MODEL 1
REMARK VINA RESULT:      -8.9      0.000      0.000
REMARK  Name = CHEMBL200415
REMARK  8 active torsions:
REMARK  status: ('A' for Active; 'I' for Inactive)
REMARK    1  A    between atoms: C_1  and  C_2
REMARK    2  A    between atoms: C_5  and  N_6
REMARK    3  A    between atoms: N_6  and  C_7
REMARK    4  A    between atoms: N_6  and  S_19
REMARK    5  A    between atoms: C_7  and  C_8
REMARK    6  A    between atoms: N_10  and  C_11
REMARK    7  A    between atoms: C_17  and  C_18
REMARK    8  A    between atoms: S_19  and  C_22
REMARK                            x       y       z     vdW  Elec       q    Type
REMARK                         _______ _______ _______ _____ _____    ______ ____
ROOT
ATOM      1  N   UNL     1      -8.248   2.652 123.449  0.00  0.00    +0.000 N 
ENDROOT
BRANCH   1   6
ATOM      2  C   UNL     1      -5.882   5.156 118.755  0.00  0.00    +0.000 C 
ATOM      3  C   UNL     1      -6.399   4.519 120.001  0.00  0.00    +0.000 A 
ATOM      4  C   UNL     1      -7.723   4.174 120.025  0.00  0.00    +0.000 A 
ATOM      5  C   UNL     1      -8.223   3.545 121.147  0.00  0.00    +0.000 A 
ATOM      6  C   UNL     1      -7.540   3.284 122.325  0.00  0.00    +0.000 A 
ATOM      7  C   UNL     1      -6.191   3.627 122.286  0.00  0.00    +0.000 A 
ATOM      8  C   UNL     1      -5.625   4.231 121.132  0.00  0.00    +0.000 A 
ENDBRANCH   1   6
BRANCH   1   9
ATOM      9  S   UNL     1      -8.011   3.345 125.030  0.00  0.00    +0.000 S 
ATOM     10  O   UNL     1      -8.154   4.781 124.868  0.00  0.00    +0.000 OA
ATOM     11  O   UNL     1      -8.878   2.639 125.957  0.00  0.00    +0.000 OA
BRANCH   9  12
ATOM     12  C   UNL     1      -6.345   3.139 125.698  0.00  0.00    +0.000 A 
ATOM     13  C   UNL     1      -5.519   4.272 125.807  0.00  0.00    +0.000 A 
ATOM     14  C   UNL     1      -4.171   4.127 126.191  0.00  0.00    +0.000 A 
ATOM     15  C   UNL     1      -3.653   2.874 126.518  0.00  0.00    +0.000 A 
ATOM     16  C   UNL     1      -4.473   1.769 126.456  0.00  0.00    +0.000 A 
ATOM     17  C   UNL     1      -5.792   1.917 126.057  0.00  0.00    +0.000 A 
ENDBRANCH   9  12
ENDBRANCH   1   9
BRANCH   1  18
ATOM     18  C   UNL     1      -9.294   1.608 123.219  0.00  0.00    +0.000 C 
BRANCH  18  19
ATOM     19  C   UNL     1      -9.287   0.120 123.548  0.00  0.00    +0.000 C 
ATOM     20  O   UNL     1      -9.839  -0.703 122.806  0.00  0.00    +0.000 OA
ATOM     21  N   UNL     1      -8.737  -0.302 124.761  0.00  0.00    +0.000 N 
ATOM     22  H   UNL     1      -9.373  -0.058 125.519  0.00  0.00    +0.000 HD
BRANCH  21  23
ATOM     23  C   UNL     1      -8.335  -1.686 124.798  0.00  0.00    +0.000 A 
ATOM     24  C   UNL     1      -9.252  -2.673 125.198  0.00  0.00    +0.000 A 
ATOM     25  C   UNL     1      -8.889  -4.025 125.172  0.00  0.00    +0.000 A 
ATOM     26  C   UNL     1      -7.616  -4.398 124.749  0.00  0.00    +0.000 A 
ATOM     27  C   UNL     1      -6.703  -3.427 124.337  0.00  0.00    +0.000 A 
ATOM     28 CL   UNL     1      -5.154  -3.997 123.814  0.00  0.00    +0.000 Cl
ATOM     29  C   UNL     1      -7.035  -2.058 124.367  0.00  0.00    +0.000 A 
ATOM     30  C   UNL     1      -6.017  -1.021 123.987  0.00  0.00    +0.000 C 
ENDBRANCH  21  23
ENDBRANCH  18  19
ENDBRANCH   1  18
TORSDOF 6
ENDMDL
MODEL 2
REMARK VINA RESULT:      -8.9      2.584      5.786
REMARK  Name = CHEMBL200415
REMARK  8 active torsions:
REMARK  status: ('A' for Active; 'I' for Inactive)
REMARK    1  A    between atoms: C_1  and  C_2
REMARK    2  A    between atoms: C_5  and  N_6
REMARK    3  A    between atoms: N_6  and  C_7
REMARK    4  A    between atoms: N_6  and  S_19
REMARK    5  A    between atoms: C_7  and  C_8
REMARK    6  A    between atoms: N_10  and  C_11
REMARK    7  A    between atoms: C_17  and  C_18
REMARK    8  A    between atoms: S_19  and  C_22
REMARK                            x       y       z     vdW  Elec       q    Type
REMARK                         _______ _______ _______ _____ _____    ______ ____
ROOT
ATOM      1  N   UNL     1      -8.773   2.489 123.536  0.00  0.00    +0.000 N 
ENDROOT
BRANCH   1   6
ATOM      2  C   UNL     1      -6.663   4.719 118.589  0.00  0.00    +0.000 C 
ATOM      3  C   UNL     1      -7.110   4.133 119.885  0.00  0.00    +0.000 A 
ATOM      4  C   UNL     1      -8.458   4.041 120.099  0.00  0.00    +0.000 A 
ATOM      5  C   UNL     1      -8.905   3.466 121.271  0.00  0.00    +0.000 A 
ATOM      6  C   UNL     1      -8.125   3.028 122.330  0.00  0.00    +0.000 A 
ATOM      7  C   UNL     1      -6.755   3.114 122.098  0.00  0.00    +0.000 A 
ATOM      8  C   UNL     1      -6.253   3.654 120.884  0.00  0.00    +0.000 A 
ENDBRANCH   1   6
BRANCH   1   9
ATOM      9  S   UNL     1      -9.559   0.941 123.393  0.00  0.00    +0.000 S 
ATOM     10  O   UNL     1     -10.376   0.790 124.584  0.00  0.00    +0.000 OA
ATOM     11  O   UNL     1     -10.184   0.880 122.084  0.00  0.00    +0.000 OA
BRANCH   9  12
ATOM     12  C   UNL     1      -8.440  -0.476 123.442  0.00  0.00    +0.000 A 
ATOM     13  C   UNL     1      -8.991  -1.770 123.451  0.00  0.00    +0.000 A 
ATOM     14  C   UNL     1      -8.157  -2.891 123.630  0.00  0.00    +0.000 A 
ATOM     15  C   UNL     1      -6.775  -2.741 123.746  0.00  0.00    +0.000 A 
ATOM     16  C   UNL     1      -6.228  -1.478 123.692  0.00  0.00    +0.000 A 
ATOM     17  C   UNL     1      -7.058  -0.379 123.537  0.00  0.00    +0.000 A 
ENDBRANCH   9  12
ENDBRANCH   1   9
BRANCH   1  18
ATOM     18  C   UNL     1      -8.577   3.128 124.874  0.00  0.00    +0.000 C 
BRANCH  18  19
ATOM     19  C   UNL     1      -7.409   3.030 125.848  0.00  0.00    +0.000 C 
ATOM     20  O   UNL     1      -7.106   1.952 126.378  0.00  0.00    +0.000 OA
ATOM     21  N   UNL     1      -6.740   4.197 126.223  0.00  0.00    +0.000 N 
ATOM     22  H   UNL     1      -7.329   4.729 126.862  0.00  0.00    +0.000 HD
BRANCH  21  23
ATOM     23  C   UNL     1      -5.406   3.997 126.733  0.00  0.00    +0.000 A 
ATOM     24  C   UNL     1      -4.347   3.734 125.847  0.00  0.00    +0.000 A 
ATOM     25  C   UNL     1      -3.040   3.604 126.330  0.00  0.00    +0.000 A 
ATOM     26  C   UNL     1      -2.782   3.738 127.691  0.00  0.00    +0.000 A 
ATOM     27  C   UNL     1      -3.823   4.013 128.577  0.00  0.00    +0.000 A 
ATOM     28 CL   UNL     1      -3.395   4.178 130.247  0.00  0.00    +0.000 Cl
ATOM     29  C   UNL     1      -5.151   4.134 128.123  0.00  0.00    +0.000 A 
ATOM     30  C   UNL     1      -6.271   4.361 129.098  0.00  0.00    +0.000 C 
ENDBRANCH  21  23
ENDBRANCH  18  19
ENDBRANCH   1  18
TORSDOF 6
ENDMDL
MODEL 3
REMARK VINA RESULT:      -8.4      2.988      4.772
REMARK  Name = CHEMBL200415
REMARK  8 active torsions:
REMARK  status: ('A' for Active; 'I' for Inactive)
REMARK    1  A    between atoms: C_1  and  C_2
REMARK    2  A    between atoms: C_5  and  N_6
REMARK    3  A    between atoms: N_6  and  C_7
REMARK    4  A    between atoms: N_6  and  S_19
REMARK    5  A    between atoms: C_7  and  C_8
REMARK    6  A    between atoms: N_10  and  C_11
REMARK    7  A    between atoms: C_17  and  C_18
REMARK    8  A    between atoms: S_19  and  C_22
REMARK                            x       y       z     vdW  Elec       q    Type
REMARK                         _______ _______ _______ _____ _____    ______ ____
ROOT
ATOM      1  N   UNL     1      -8.340   1.224 124.432  0.00  0.00    +0.000 N 
ENDROOT
BRANCH   1   6
ATOM      2  C   UNL     1      -6.590   4.384 119.866  0.00  0.00    +0.000 C 
ATOM      3  C   UNL     1      -7.131   3.600 121.013  0.00  0.00    +0.000 A 
ATOM      4  C   UNL     1      -6.229   2.945 121.806  0.00  0.00    +0.000 A 
ATOM      5  C   UNL     1      -6.694   2.245 122.900  0.00  0.00    +0.000 A 
ATOM      6  C   UNL     1      -8.019   2.051 123.258  0.00  0.00    +0.000 A 
ATOM      7  C   UNL     1      -8.929   2.731 122.453  0.00  0.00    +0.000 A 
ATOM      8  C   UNL     1      -8.488   3.504 121.346  0.00  0.00    +0.000 A 
ENDBRANCH   1   6
BRANCH   1   9
ATOM      9  S   UNL     1      -8.971  -0.373 124.133  0.00  0.00    +0.000 S 
ATOM     10  O   UNL     1      -9.721  -0.740 125.321  0.00  0.00    +0.000 OA
ATOM     11  O   UNL     1      -9.637  -0.352 122.844  0.00  0.00    +0.000 OA
BRANCH   9  12
ATOM     12  C   UNL     1      -7.713  -1.661 123.989  0.00  0.00    +0.000 A 
ATOM     13  C   UNL     1      -8.051  -2.976 124.355  0.00  0.00    +0.000 A 
ATOM     14  C   UNL     1      -7.059  -3.977 124.388  0.00  0.00    +0.000 A 
ATOM     15  C   UNL     1      -5.747  -3.692 124.010  0.00  0.00    +0.000 A 
ATOM     16  C   UNL     1      -5.423  -2.416 123.607  0.00  0.00    +0.000 A 
ATOM     17  C   UNL     1      -6.401  -1.433 123.597  0.00  0.00    +0.000 A 
ENDBRANCH   9  12
ENDBRANCH   1   9
BRANCH   1  18
ATOM     18  C   UNL     1      -7.937   1.643 125.810  0.00  0.00    +0.000 C 
BRANCH  18  19
ATOM     19  C   UNL     1      -7.755   0.814 127.076  0.00  0.00    +0.000 C 
ATOM     20  O   UNL     1      -8.358   1.099 128.119  0.00  0.00    +0.000 OA
ATOM     21  N   UNL     1      -6.814  -0.218 127.080  0.00  0.00    +0.000 N 
ATOM     22  H   UNL     1      -5.879   0.184 127.116  0.00  0.00    +0.000 HD
BRANCH  21  23
ATOM     23  C   UNL     1      -7.023  -1.228 128.087  0.00  0.00    +0.000 A 
ATOM     24  C   UNL     1      -8.000  -2.221 127.893  0.00  0.00    +0.000 A 
ATOM     25  C   UNL     1      -8.162  -3.243 128.837  0.00  0.00    +0.000 A 
ATOM     26  C   UNL     1      -7.356  -3.281 129.971  0.00  0.00    +0.000 A 
ATOM     27  C   UNL     1      -6.376  -2.309 130.165  0.00  0.00    +0.000 A 
ATOM     28 CL   UNL     1      -5.415  -2.456 131.599  0.00  0.00    +0.000 Cl
ATOM     29  C   UNL     1      -6.199  -1.260 129.242  0.00  0.00    +0.000 A 
ATOM     30  C   UNL     1      -5.186  -0.181 129.501  0.00  0.00    +0.000 C 
ENDBRANCH  21  23
ENDBRANCH  18  19
ENDBRANCH   1  18
TORSDOF 6
ENDMDL
MODEL 4
REMARK VINA RESULT:      -8.4      2.476      5.443
REMARK  Name = CHEMBL200415
REMARK  8 active torsions:
REMARK  status: ('A' for Active; 'I' for Inactive)
REMARK    1  A    between atoms: C_1  and  C_2
REMARK    2  A    between atoms: C_5  and  N_6
REMARK    3  A    between atoms: N_6  and  C_7
REMARK    4  A    between atoms: N_6  and  S_19
REMARK    5  A    between atoms: C_7  and  C_8
REMARK    6  A    between atoms: N_10  and  C_11
REMARK    7  A    between atoms: C_17  and  C_18
REMARK    8  A    between atoms: S_19  and  C_22
REMARK                            x       y       z     vdW  Elec       q    Type
REMARK                         _______ _______ _______ _____ _____    ______ ____
ROOT
ATOM      1  N   UNL     1      -8.555   1.895 124.062  0.00  0.00    +0.000 N 
ENDROOT
BRANCH   1   6
ATOM      2  C   UNL     1      -6.789   4.555 119.194  0.00  0.00    +0.000 C 
ATOM      3  C   UNL     1      -7.146   3.859 120.463  0.00  0.00    +0.000 A 
ATOM      4  C   UNL     1      -8.477   3.733 120.755  0.00  0.00    +0.000 A 
ATOM      5  C   UNL     1      -8.842   3.057 121.901  0.00  0.00    +0.000 A 
ATOM      6  C   UNL     1      -7.991   2.541 122.867  0.00  0.00    +0.000 A 
ATOM      7  C   UNL     1      -6.640   2.662 122.554  0.00  0.00    +0.000 A 
ATOM      8  C   UNL     1      -6.222   3.308 121.359  0.00  0.00    +0.000 A 
ENDBRANCH   1   6
BRANCH   1   9
ATOM      9  S   UNL     1      -8.892   0.189 123.962  0.00  0.00    +0.000 S 
ATOM     10  O   UNL     1      -9.590  -0.158 125.187  0.00  0.00    +0.000 OA
ATOM     11  O   UNL     1      -9.526  -0.064 122.681  0.00  0.00    +0.000 OA
BRANCH   9  12
ATOM     12  C   UNL     1      -7.426  -0.866 123.974  0.00  0.00    +0.000 A 
ATOM     13  C   UNL     1      -6.847  -1.230 122.745  0.00  0.00    +0.000 A 
ATOM     14  C   UNL     1      -5.791  -2.161 122.710  0.00  0.00    +0.000 A 
ATOM     15  C   UNL     1      -5.270  -2.694 123.890  0.00  0.00    +0.000 A 
ATOM     16  C   UNL     1      -5.804  -2.304 125.098  0.00  0.00    +0.000 A 
ATOM     17  C   UNL     1      -6.857  -1.403 125.122  0.00  0.00    +0.000 A 
ENDBRANCH   9  12
ENDBRANCH   1   9
BRANCH   1  18
ATOM     18  C   UNL     1      -8.628   2.615 125.372  0.00  0.00    +0.000 C 
BRANCH  18  19
ATOM     19  C   UNL     1      -7.638   2.653 126.529  0.00  0.00    +0.000 C 
ATOM     20  O   UNL     1      -7.380   1.634 127.184  0.00  0.00    +0.000 OA
ATOM     21  N   UNL     1      -7.096   3.881 126.917  0.00  0.00    +0.000 N 
ATOM     22  H   UNL     1      -7.808   4.420 127.407  0.00  0.00    +0.000 HD
BRANCH  21  23
ATOM     23  C   UNL     1      -5.860   3.795 127.654  0.00  0.00    +0.000 A 
ATOM     24  C   UNL     1      -5.880   3.781 129.059  0.00  0.00    +0.000 A 
ATOM     25  C   UNL     1      -4.689   3.631 129.780  0.00  0.00    +0.000 A 
ATOM     26  C   UNL     1      -3.478   3.492 129.106  0.00  0.00    +0.000 A 
ATOM     27  C   UNL     1      -3.449   3.489 127.712  0.00  0.00    +0.000 A 
ATOM     28 CL   UNL     1      -1.896   3.293 126.971  0.00  0.00    +0.000 Cl
ATOM     29  C   UNL     1      -4.629   3.654 126.960  0.00  0.00    +0.000 A 
ATOM     30  C   UNL     1      -4.573   3.720 125.460  0.00  0.00    +0.000 C 
ENDBRANCH  21  23
ENDBRANCH  18  19
ENDBRANCH   1  18
TORSDOF 6
ENDMDL
MODEL 5
REMARK VINA RESULT:      -8.3      3.009      4.809
REMARK  Name = CHEMBL200415
REMARK  8 active torsions:
REMARK  status: ('A' for Active; 'I' for Inactive)
REMARK    1  A    between atoms: C_1  and  C_2
REMARK    2  A    between atoms: C_5  and  N_6
REMARK    3  A    between atoms: N_6  and  C_7
REMARK    4  A    between atoms: N_6  and  S_19
REMARK    5  A    between atoms: C_7  and  C_8
REMARK    6  A    between atoms: N_10  and  C_11
REMARK    7  A    between atoms: C_17  and  C_18
REMARK    8  A    between atoms: S_19  and  C_22
REMARK                            x       y       z     vdW  Elec       q    Type
REMARK                         _______ _______ _______ _____ _____    ______ ____
ROOT
ATOM      1  N   UNL     1      -8.341   1.852 124.087  0.00  0.00    +0.000 N 
ENDROOT
BRANCH   1   6
ATOM      2  C   UNL     1      -6.932   4.585 119.143  0.00  0.00    +0.000 C 
ATOM      3  C   UNL     1      -7.197   3.867 120.423  0.00  0.00    +0.000 A 
ATOM      4  C   UNL     1      -8.500   3.763 120.825  0.00  0.00    +0.000 A 
ATOM      5  C   UNL     1      -8.782   3.068 121.984  0.00  0.00    +0.000 A 
ATOM      6  C   UNL     1      -7.865   2.513 122.862  0.00  0.00    +0.000 A 
ATOM      7  C   UNL     1      -6.542   2.613 122.438  0.00  0.00    +0.000 A 
ATOM      8  C   UNL     1      -6.213   3.276 121.226  0.00  0.00    +0.000 A 
ENDBRANCH   1   6
BRANCH   1   9
ATOM      9  S   UNL     1      -9.278   0.396 123.895  0.00  0.00    +0.000 S 
ATOM     10  O   UNL     1     -10.237   0.386 124.985  0.00  0.00    +0.000 OA
ATOM     11  O   UNL     1      -9.752   0.353 122.523  0.00  0.00    +0.000 OA
BRANCH   9  12
ATOM     12  C   UNL     1      -8.342  -1.133 124.115  0.00  0.00    +0.000 A 
ATOM     13  C   UNL     1      -6.944  -1.094 123.966  0.00  0.00    +0.000 A 
ATOM     14  C   UNL     1      -6.198  -2.289 123.993  0.00  0.00    +0.000 A 
ATOM     15  C   UNL     1      -6.823  -3.515 124.219  0.00  0.00    +0.000 A 
ATOM     16  C   UNL     1      -8.186  -3.551 124.410  0.00  0.00    +0.000 A 
ATOM     17  C   UNL     1      -8.916  -2.373 124.362  0.00  0.00    +0.000 A 
ENDBRANCH   9  12
ENDBRANCH   1   9
BRANCH   1  18
ATOM     18  C   UNL     1      -7.857   2.280 125.437  0.00  0.00    +0.000 C 
BRANCH  18  19
ATOM     19  C   UNL     1      -7.410   1.445 126.631  0.00  0.00    +0.000 C 
ATOM     20  O   UNL     1      -6.226   1.430 126.993  0.00  0.00    +0.000 OA
ATOM     21  N   UNL     1      -8.335   0.605 127.255  0.00  0.00    +0.000 N 
ATOM     22  H   UNL     1      -8.510  -0.201 126.658  0.00  0.00    +0.000 HD
BRANCH  21  23
ATOM     23  C   UNL     1      -8.003   0.233 128.608  0.00  0.00    +0.000 A 
ATOM     24  C   UNL     1      -8.115   1.177 129.644  0.00  0.00    +0.000 A 
ATOM     25  C   UNL     1      -7.858   0.803 130.968  0.00  0.00    +0.000 A 
ATOM     26  C   UNL     1      -7.491  -0.506 131.266  0.00  0.00    +0.000 A 
ATOM     27  C   UNL     1      -7.390  -1.453 130.247  0.00  0.00    +0.000 A 
ATOM     28 CL   UNL     1      -6.944  -3.057 130.724  0.00  0.00    +0.000 Cl
ATOM     29  C   UNL     1      -7.628  -1.104 128.903  0.00  0.00    +0.000 A 
ATOM     30  C   UNL     1      -7.447  -2.118 127.810  0.00  0.00    +0.000 C 
ENDBRANCH  21  23
ENDBRANCH  18  19
ENDBRANCH   1  18
TORSDOF 6
ENDMDL
MODEL 6
REMARK VINA RESULT:      -8.3      3.397      7.039
REMARK  Name = CHEMBL200415
REMARK  8 active torsions:
REMARK  status: ('A' for Active; 'I' for Inactive)
REMARK    1  A    between atoms: C_1  and  C_2
REMARK    2  A    between atoms: C_5  and  N_6
REMARK    3  A    between atoms: N_6  and  C_7
REMARK    4  A    between atoms: N_6  and  S_19
REMARK    5  A    between atoms: C_7  and  C_8
REMARK    6  A    between atoms: N_10  and  C_11
REMARK    7  A    between atoms: C_17  and  C_18
REMARK    8  A    between atoms: S_19  and  C_22
REMARK                            x       y       z     vdW  Elec       q    Type
REMARK                         _______ _______ _______ _____ _____    ______ ____
ROOT
ATOM      1  N   UNL     1      -7.254   0.431 124.750  0.00  0.00    +0.000 N 
ENDROOT
BRANCH   1   6
ATOM      2  C   UNL     1      -4.255  -4.392 123.466  0.00  0.00    +0.000 C 
ATOM      3  C   UNL     1      -5.055  -3.156 123.701  0.00  0.00    +0.000 A 
ATOM      4  C   UNL     1      -5.012  -2.611 124.955  0.00  0.00    +0.000 A 
ATOM      5  C   UNL     1      -5.708  -1.443 125.194  0.00  0.00    +0.000 A 
ATOM      6  C   UNL     1      -6.540  -0.777 124.308  0.00  0.00    +0.000 A 
ATOM      7  C   UNL     1      -6.567  -1.332 123.031  0.00  0.00    +0.000 A 
ATOM      8  C   UNL     1      -5.826  -2.505 122.729  0.00  0.00    +0.000 A 
ENDBRANCH   1   6
BRANCH   1   9
ATOM      9  S   UNL     1      -8.631   0.206 125.792  0.00  0.00    +0.000 S 
ATOM     10  O   UNL     1      -8.568   1.268 126.780  0.00  0.00    +0.000 OA
ATOM     11  O   UNL     1      -9.808   0.081 124.951  0.00  0.00    +0.000 OA
BRANCH   9  12
ATOM     12  C   UNL     1      -8.592  -1.311 126.771  0.00  0.00    +0.000 A 
ATOM     13  C   UNL     1      -7.988  -1.278 128.040  0.00  0.00    +0.000 A 
ATOM     14  C   UNL     1      -7.815  -2.471 128.771  0.00  0.00    +0.000 A 
ATOM     15  C   UNL     1      -8.285  -3.686 128.273  0.00  0.00    +0.000 A 
ATOM     16  C   UNL     1      -8.918  -3.714 127.050  0.00  0.00    +0.000 A 
ATOM     17  C   UNL     1      -9.065  -2.540 126.329  0.00  0.00    +0.000 A 
ENDBRANCH   9  12
ENDBRANCH   1   9
BRANCH   1  18
ATOM     18  C   UNL     1      -6.694   1.796 124.502  0.00  0.00    +0.000 C 
BRANCH  18  19
ATOM     19  C   UNL     1      -5.744   2.637 125.347  0.00  0.00    +0.000 C 
ATOM     20  O   UNL     1      -5.880   3.865 125.432  0.00  0.00    +0.000 OA
ATOM     21  N   UNL     1      -4.644   2.019 125.947  0.00  0.00    +0.000 N 
ATOM     22  H   UNL     1      -3.949   1.810 125.232  0.00  0.00    +0.000 HD
BRANCH  21  23
ATOM     23  C   UNL     1      -4.088   2.726 127.073  0.00  0.00    +0.000 A 
ATOM     24  C   UNL     1      -3.156   3.758 126.864  0.00  0.00    +0.000 A 
ATOM     25  C   UNL     1      -2.663   4.493 127.948  0.00  0.00    +0.000 A 
ATOM     26  C   UNL     1      -3.095   4.206 129.240  0.00  0.00    +0.000 A 
ATOM     27  C   UNL     1      -4.030   3.194 129.457  0.00  0.00    +0.000 A 
ATOM     28 CL   UNL     1      -4.515   2.929 131.098  0.00  0.00    +0.000 Cl
ATOM     29  C   UNL     1      -4.533   2.428 128.387  0.00  0.00    +0.000 A 
ATOM     30  C   UNL     1      -5.486   1.296 128.645  0.00  0.00    +0.000 C 
ENDBRANCH  21  23
ENDBRANCH  18  19
ENDBRANCH   1  18
TORSDOF 6
ENDMDL
MODEL 7
REMARK VINA RESULT:      -8.3      3.386      5.701
REMARK  Name = CHEMBL200415
REMARK  8 active torsions:
REMARK  status: ('A' for Active; 'I' for Inactive)
REMARK    1  A    between atoms: C_1  and  C_2
REMARK    2  A    between atoms: C_5  and  N_6
REMARK    3  A    between atoms: N_6  and  C_7
REMARK    4  A    between atoms: N_6  and  S_19
REMARK    5  A    between atoms: C_7  and  C_8
REMARK    6  A    between atoms: N_10  and  C_11
REMARK    7  A    between atoms: C_17  and  C_18
REMARK    8  A    between atoms: S_19  and  C_22
REMARK                            x       y       z     vdW  Elec       q    Type
REMARK                         _______ _______ _______ _____ _____    ______ ____
ROOT
ATOM      1  N   UNL     1      -6.516   1.213 125.390  0.00  0.00    +0.000 N 
ENDROOT
BRANCH   1   6
ATOM      2  C   UNL     1      -9.540  -3.338 123.378  0.00  0.00    +0.000 C 
ATOM      3  C   UNL     1      -8.715  -2.172 123.808  0.00  0.00    +0.000 A 
ATOM      4  C   UNL     1      -8.957  -1.659 125.053  0.00  0.00    +0.000 A 
ATOM      5  C   UNL     1      -8.183  -0.606 125.497  0.00  0.00    +0.000 A 
ATOM      6  C   UNL     1      -7.210   0.070 124.777  0.00  0.00    +0.000 A 
ATOM      7  C   UNL     1      -6.962  -0.468 123.517  0.00  0.00    +0.000 A 
ATOM      8  C   UNL     1      -7.702  -1.583 123.041  0.00  0.00    +0.000 A 
ENDBRANCH   1   6
BRANCH   1   9
ATOM      9  S   UNL     1      -7.099   2.806 124.991  0.00  0.00    +0.000 S 
ATOM     10  O   UNL     1      -8.455   2.880 125.506  0.00  0.00    +0.000 OA
ATOM     11  O   UNL     1      -6.108   3.766 125.442  0.00  0.00    +0.000 OA
BRANCH   9  12
ATOM     12  C   UNL     1      -7.280   3.117 123.221  0.00  0.00    +0.000 A 
ATOM     13  C   UNL     1      -6.142   3.490 122.483  0.00  0.00    +0.000 A 
ATOM     14  C   UNL     1      -6.272   3.875 121.134  0.00  0.00    +0.000 A 
ATOM     15  C   UNL     1      -7.513   3.841 120.499  0.00  0.00    +0.000 A 
ATOM     16  C   UNL     1      -8.622   3.433 121.206  0.00  0.00    +0.000 A 
ATOM     17  C   UNL     1      -8.489   3.075 122.539  0.00  0.00    +0.000 A 
ENDBRANCH   9  12
ENDBRANCH   1   9
BRANCH   1  18
ATOM     18  C   UNL     1      -5.505   1.016 126.475  0.00  0.00    +0.000 C 
BRANCH  18  19
ATOM     19  C   UNL     1      -5.538   0.103 127.695  0.00  0.00    +0.000 C 
ATOM     20  O   UNL     1      -5.859   0.537 128.809  0.00  0.00    +0.000 OA
ATOM     21  N   UNL     1      -5.099  -1.217 127.565  0.00  0.00    +0.000 N 
ATOM     22  H   UNL     1      -4.083  -1.224 127.491  0.00  0.00    +0.000 HD
BRANCH  21  23
ATOM     23  C   UNL     1      -5.589  -2.122 128.574  0.00  0.00    +0.000 A 
ATOM     24  C   UNL     1      -6.912  -2.593 128.513  0.00  0.00    +0.000 A 
ATOM     25  C   UNL     1      -7.373  -3.524 129.452  0.00  0.00    +0.000 A 
ATOM     26  C   UNL     1      -6.521  -3.989 130.450  0.00  0.00    +0.000 A 
ATOM     27  C   UNL     1      -5.203  -3.540 130.510  0.00  0.00    +0.000 A 
ATOM     28 CL   UNL     1      -4.221  -4.193 131.779  0.00  0.00    +0.000 Cl
ATOM     29  C   UNL     1      -4.715  -2.592 129.589  0.00  0.00    +0.000 A 
ATOM     30  C   UNL     1      -3.313  -2.065 129.711  0.00  0.00    +0.000 C 
ENDBRANCH  21  23
ENDBRANCH  18  19
ENDBRANCH   1  18
TORSDOF 6
ENDMDL
MODEL 8
REMARK VINA RESULT:      -8.3      2.139      2.550
REMARK  Name = CHEMBL200415
REMARK  8 active torsions:
REMARK  status: ('A' for Active; 'I' for Inactive)
REMARK    1  A    between atoms: C_1  and  C_2
REMARK    2  A    between atoms: C_5  and  N_6
REMARK    3  A    between atoms: N_6  and  C_7
REMARK    4  A    between atoms: N_6  and  S_19
REMARK    5  A    between atoms: C_7  and  C_8
REMARK    6  A    between atoms: N_10  and  C_11
REMARK    7  A    between atoms: C_17  and  C_18
REMARK    8  A    between atoms: S_19  and  C_22
REMARK                            x       y       z     vdW  Elec       q    Type
REMARK                         _______ _______ _______ _____ _____    ______ ____
ROOT
ATOM      1  N   UNL     1      -6.785   2.725 123.600  0.00  0.00    +0.000 N 
ENDROOT
BRANCH   1   6
ATOM      2  C   UNL     1      -5.726   5.572 118.633  0.00  0.00    +0.000 C 
ATOM      3  C   UNL     1      -5.909   4.874 119.938  0.00  0.00    +0.000 A 
ATOM      4  C   UNL     1      -7.069   4.169 120.114  0.00  0.00    +0.000 A 
ATOM      5  C   UNL     1      -7.251   3.478 121.294  0.00  0.00    +0.000 A 
ATOM      6  C   UNL     1      -6.406   3.478 122.394  0.00  0.00    +0.000 A 
ATOM      7  C   UNL     1      -5.223   4.186 122.200  0.00  0.00    +0.000 A 
ATOM      8  C   UNL     1      -4.975   4.871 120.981  0.00  0.00    +0.000 A 
ENDBRANCH   1   6
BRANCH   1   9
ATOM      9  S   UNL     1      -6.851   3.606 125.101  0.00  0.00    +0.000 S 
ATOM     10  O   UNL     1      -7.056   4.998 124.744  0.00  0.00    +0.000 OA
ATOM     11  O   UNL     1      -7.809   2.939 125.965  0.00  0.00    +0.000 OA
BRANCH   9  12
ATOM     12  C   UNL     1      -5.305   3.612 126.036  0.00  0.00    +0.000 A 
ATOM     13  C   UNL     1      -4.899   4.807 126.657  0.00  0.00    +0.000 A 
ATOM     14  C   UNL     1      -3.634   4.886 127.275  0.00  0.00    +0.000 A 
ATOM     15  C   UNL     1      -2.794   3.774 127.325  0.00  0.00    +0.000 A 
ATOM     16  C   UNL     1      -3.209   2.590 126.758  0.00  0.00    +0.000 A 
ATOM     17  C   UNL     1      -4.445   2.526 126.134  0.00  0.00    +0.000 A 
ENDBRANCH   9  12
ENDBRANCH   1   9
BRANCH   1  18
ATOM     18  C   UNL     1      -7.306   1.325 123.509  0.00  0.00    +0.000 C 
BRANCH  18  19
ATOM     19  C   UNL     1      -7.263   0.193 124.527  0.00  0.00    +0.000 C 
ATOM     20  O   UNL     1      -6.286  -0.563 124.604  0.00  0.00    +0.000 OA
ATOM     21  N   UNL     1      -8.392  -0.054 125.313  0.00  0.00    +0.000 N 
ATOM     22  H   UNL     1      -9.108  -0.494 124.738  0.00  0.00    +0.000 HD
BRANCH  21  23
ATOM     23  C   UNL     1      -8.137  -0.778 126.533  0.00  0.00    +0.000 A 
ATOM     24  C   UNL     1      -7.535  -0.126 127.624  0.00  0.00    +0.000 A 
ATOM     25  C   UNL     1      -7.346  -0.805 128.834  0.00  0.00    +0.000 A 
ATOM     26  C   UNL     1      -7.754  -2.130 128.962  0.00  0.00    +0.000 A 
ATOM     27  C   UNL     1      -8.365  -2.781 127.891  0.00  0.00    +0.000 A 
ATOM     28 CL   UNL     1      -8.852  -4.421 128.159  0.00  0.00    +0.000 Cl
ATOM     29  C   UNL     1      -8.556  -2.129 126.657  0.00  0.00    +0.000 A 
ATOM     30  C   UNL     1      -9.151  -2.866 125.491  0.00  0.00    +0.000 C 
ENDBRANCH  21  23
ENDBRANCH  18  19
ENDBRANCH   1  18
TORSDOF 6
ENDMDL
MODEL 9
REMARK VINA RESULT:      -8.3      3.839      7.988
REMARK  Name = CHEMBL200415
REMARK  8 active torsions:
REMARK  status: ('A' for Active; 'I' for Inactive)
REMARK    1  A    between atoms: C_1  and  C_2
REMARK    2  A    between atoms: C_5  and  N_6
REMARK    3  A    between atoms: N_6  and  C_7
REMARK    4  A    between atoms: N_6  and  S_19
REMARK    5  A    between atoms: C_7  and  C_8
REMARK    6  A    between atoms: N_10  and  C_11
REMARK    7  A    between atoms: C_17  and  C_18
REMARK    8  A    between atoms: S_19  and  C_22
REMARK                            x       y       z     vdW  Elec       q    Type
REMARK                         _______ _______ _______ _____ _____    ______ ____
ROOT
ATOM      1  N   UNL     1      -7.857  -1.411 127.487  0.00  0.00    +0.000 N 
ENDROOT
BRANCH   1   6
ATOM      2  C   UNL     1      -5.806  -4.206 132.164  0.00  0.00    +0.000 C 
ATOM      3  C   UNL     1      -6.244  -3.505 130.923  0.00  0.00    +0.000 A 
ATOM      4  C   UNL     1      -7.516  -3.002 130.903  0.00  0.00    +0.000 A 
ATOM      5  C   UNL     1      -7.937  -2.312 129.785  0.00  0.00    +0.000 A 
ATOM      6  C   UNL     1      -7.230  -2.130 128.607  0.00  0.00    +0.000 A 
ATOM      7  C   UNL     1      -5.932  -2.634 128.642  0.00  0.00    +0.000 A 
ATOM      8  C   UNL     1      -5.442  -3.308 129.792  0.00  0.00    +0.000 A 
ENDBRANCH   1   6
BRANCH   1   9
ATOM      9  S   UNL     1      -8.502  -2.371 126.185  0.00  0.00    +0.000 S 
ATOM     10  O   UNL     1      -8.558  -3.736 126.678  0.00  0.00    +0.000 OA
ATOM     11  O   UNL     1      -9.718  -1.728 125.720  0.00  0.00    +0.000 OA
BRANCH   9  12
ATOM     12  C   UNL     1      -7.439  -2.471 124.728  0.00  0.00    +0.000 A 
ATOM     13  C   UNL     1      -6.102  -2.875 124.896  0.00  0.00    +0.000 A 
ATOM     14  C   UNL     1      -5.209  -2.831 123.807  0.00  0.00    +0.000 A 
ATOM     15  C   UNL     1      -5.647  -2.439 122.542  0.00  0.00    +0.000 A 
ATOM     16  C   UNL     1      -6.966  -2.086 122.364  0.00  0.00    +0.000 A 
ATOM     17  C   UNL     1      -7.833  -2.113 123.446  0.00  0.00    +0.000 A 
ENDBRANCH   9  12
ENDBRANCH   1   9
BRANCH   1  18
ATOM     18  C   UNL     1      -8.129   0.058 127.564  0.00  0.00    +0.000 C 
BRANCH  18  19
ATOM     19  C   UNL     1      -8.205   1.103 126.457  0.00  0.00    +0.000 C 
ATOM     20  O   UNL     1      -8.650   2.237 126.677  0.00  0.00    +0.000 OA
ATOM     21  N   UNL     1      -7.863   0.735 125.153  0.00  0.00    +0.000 N 
ATOM     22  H   UNL     1      -8.606   0.156 124.765  0.00  0.00    +0.000 HD
BRANCH  21  23
ATOM     23  C   UNL     1      -7.500   1.829 124.288  0.00  0.00    +0.000 A 
ATOM     24  C   UNL     1      -6.305   2.535 124.511  0.00  0.00    +0.000 A 
ATOM     25  C   UNL     1      -5.915   3.555 123.635  0.00  0.00    +0.000 A 
ATOM     26  C   UNL     1      -6.709   3.873 122.536  0.00  0.00    +0.000 A 
ATOM     27  C   UNL     1      -7.888   3.169 122.298  0.00  0.00    +0.000 A 
ATOM     28 CL   UNL     1      -8.794   3.631 120.896  0.00  0.00    +0.000 Cl
ATOM     29  C   UNL     1      -8.315   2.148 123.170  0.00  0.00    +0.000 A 
ATOM     30  C   UNL     1      -9.623   1.447 122.939  0.00  0.00    +0.000 C 
ENDBRANCH  21  23
ENDBRANCH  18  19
ENDBRANCH   1  18
TORSDOF 6
ENDMDL
