MODEL 1
REMARK VINA RESULT:      -7.5      0.000      0.000
REMARK  Name = CHEMBL515447
REMARK  7 active torsions:
REMARK  status: ('A' for Active; 'I' for Inactive)
REMARK    1  A    between atoms: C_2  and  C_3
REMARK    2  A    between atoms: C_6  and  C_7
REMARK    3  A    between atoms: C_12  and  C_13
REMARK    4  A    between atoms: N_19  and  C_20
REMARK    5  A    between atoms: N_19  and  C_24
REMARK    6  A    between atoms: C_20  and  C_21
REMARK    7  A    between atoms: C_24  and  C_25
REMARK                            x       y       z     vdW  Elec       q    Type
REMARK                         _______ _______ _______ _____ _____    ______ ____
ROOT
ATOM      1  C   UNL     1      -5.567   1.224 126.503  0.00  0.00    +0.000 A 
ATOM      2  C   UNL     1      -5.456  -0.013 125.854  0.00  0.00    +0.000 A 
ATOM      3  C   UNL     1      -5.506  -1.168 126.581  0.00  0.00    +0.000 A 
ATOM      4  C   UNL     1      -5.605  -1.035 127.953  0.00  0.00    +0.000 A 
ATOM      5  N   UNL     1      -5.823   0.138 128.602  0.00  0.00    +0.000 NA
ATOM      6  C   UNL     1      -5.843   1.250 127.849  0.00  0.00    +0.000 A 
ENDROOT
BRANCH   4   7
ATOM      7  C   UNL     1      -5.436  -2.188 128.805  0.00  0.00    +0.000 A 
ATOM      8  C   UNL     1      -4.120  -2.571 129.108  0.00  0.00    +0.000 A 
ATOM      9  C   UNL     1      -3.873  -3.691 129.883  0.00  0.00    +0.000 A 
ATOM     10  C   UNL     1      -4.940  -4.399 130.424  0.00  0.00    +0.000 A 
ATOM     11  C   UNL     1      -6.254  -4.021 130.142  0.00  0.00    +0.000 A 
ATOM     12  C   UNL     1      -6.528  -2.919 129.316  0.00  0.00    +0.000 A 
BRANCH  12  13
ATOM     13  C   UNL     1      -7.984  -2.580 129.058  0.00  0.00    +0.000 C 
ATOM     14  F   UNL     1      -8.832  -3.551 129.499  0.00  0.00    +0.000 F 
ATOM     15  F   UNL     1      -8.347  -1.443 129.723  0.00  0.00    +0.000 F 
ATOM     16  F   UNL     1      -8.354  -2.363 127.769  0.00  0.00    +0.000 F 
ENDBRANCH  12  13
ENDBRANCH   4   7
BRANCH   1  18
ATOM     17  O   UNL     1      -4.413   2.964 125.817  0.00  0.00    +0.000 OA
ATOM     18  C   UNL     1      -5.467   2.386 125.634  0.00  0.00    +0.000 C 
ATOM     19  N   UNL     1      -6.472   2.732 124.714  0.00  0.00    +0.000 N 
BRANCH  19  20
ATOM     20  C   UNL     1      -6.203   3.681 123.606  0.00  0.00    +0.000 C 
BRANCH  20  21
ATOM     21  C   UNL     1      -6.026   3.230 122.185  0.00  0.00    +0.000 C 
ATOM     22  C   UNL     1      -7.055   3.720 121.209  0.00  0.00    +0.000 C 
ATOM     23  C   UNL     1      -5.586   4.136 121.084  0.00  0.00    +0.000 C 
ENDBRANCH  20  21
ENDBRANCH  19  20
BRANCH  19  24
ATOM     24  C   UNL     1      -7.856   2.712 125.250  0.00  0.00    +0.000 C 
BRANCH  24  25
ATOM     25  C   UNL     1      -8.812   1.594 124.810  0.00  0.00    +0.000 C 
ATOM     26  C   UNL     1      -9.082   0.551 125.879  0.00  0.00    +0.000 C 
ATOM     27  C   UNL     1      -9.283  -0.713 125.115  0.00  0.00    +0.000 C 
ATOM     28  C   UNL     1      -8.360  -0.532 123.941  0.00  0.00    +0.000 C 
ATOM     29  O   UNL     1      -8.239   0.877 123.698  0.00  0.00    +0.000 OA
ENDBRANCH  24  25
ENDBRANCH  19  24
ENDBRANCH   1  18
TORSDOF 7
ENDMDL
MODEL 2
REMARK VINA RESULT:      -7.4      6.765      9.929
REMARK  Name = CHEMBL515447
REMARK  7 active torsions:
REMARK  status: ('A' for Active; 'I' for Inactive)
REMARK    1  A    between atoms: C_2  and  C_3
REMARK    2  A    between atoms: C_6  and  C_7
REMARK    3  A    between atoms: C_12  and  C_13
REMARK    4  A    between atoms: N_19  and  C_20
REMARK    5  A    between atoms: N_19  and  C_24
REMARK    6  A    between atoms: C_20  and  C_21
REMARK    7  A    between atoms: C_24  and  C_25
REMARK                            x       y       z     vdW  Elec       q    Type
REMARK                         _______ _______ _______ _____ _____    ______ ____
ROOT
ATOM      1  C   UNL     1      -6.934   5.021 130.278  0.00  0.00    +0.000 A 
ATOM      2  C   UNL     1      -7.219   6.135 131.080  0.00  0.00    +0.000 A 
ATOM      3  C   UNL     1      -8.388   6.816 130.905  0.00  0.00    +0.000 A 
ATOM      4  C   UNL     1      -9.209   6.389 129.879  0.00  0.00    +0.000 A 
ATOM      5  N   UNL     1      -9.017   5.255 129.157  0.00  0.00    +0.000 NA
ATOM      6  C   UNL     1      -7.893   4.564 129.406  0.00  0.00    +0.000 A 
ENDROOT
BRANCH   4   7
ATOM      7  C   UNL     1     -10.344   7.188 129.482  0.00  0.00    +0.000 A 
ATOM      8  C   UNL     1     -10.219   7.932 128.298  0.00  0.00    +0.000 A 
ATOM      9  C   UNL     1     -11.247   8.755 127.872  0.00  0.00    +0.000 A 
ATOM     10  C   UNL     1     -12.440   8.789 128.586  0.00  0.00    +0.000 A 
ATOM     11  C   UNL     1     -12.583   8.042 129.758  0.00  0.00    +0.000 A 
ATOM     12  C   UNL     1     -11.535   7.240 130.236  0.00  0.00    +0.000 A 
BRANCH  12  13
ATOM     13  C   UNL     1     -11.773   6.466 131.518  0.00  0.00    +0.000 C 
ATOM     14  F   UNL     1     -13.020   6.669 132.026  0.00  0.00    +0.000 F 
ATOM     15  F   UNL     1     -11.678   5.120 131.303  0.00  0.00    +0.000 F 
ATOM     16  F   UNL     1     -10.936   6.711 132.560  0.00  0.00    +0.000 F 
ENDBRANCH  12  13
ENDBRANCH   4   7
BRANCH   1  18
ATOM     17  O   UNL     1      -4.848   4.697 129.665  0.00  0.00    +0.000 OA
ATOM     18  C   UNL     1      -5.646   4.393 130.531  0.00  0.00    +0.000 C 
ATOM     19  N   UNL     1      -5.411   3.574 131.649  0.00  0.00    +0.000 N 
BRANCH  19  20
ATOM     20  C   UNL     1      -4.030   3.246 132.080  0.00  0.00    +0.000 C 
BRANCH  20  21
ATOM     21  C   UNL     1      -3.230   4.151 132.972  0.00  0.00    +0.000 C 
ATOM     22  C   UNL     1      -1.762   4.238 132.671  0.00  0.00    +0.000 C 
ATOM     23  C   UNL     1      -2.672   5.462 132.525  0.00  0.00    +0.000 C 
ENDBRANCH  20  21
ENDBRANCH  19  20
BRANCH  19  24
ATOM     24  C   UNL     1      -6.451   2.549 131.914  0.00  0.00    +0.000 C 
BRANCH  24  25
ATOM     25  C   UNL     1      -7.353   2.703 133.147  0.00  0.00    +0.000 C 
ATOM     26  C   UNL     1      -8.801   3.023 132.820  0.00  0.00    +0.000 C 
ATOM     27  C   UNL     1      -9.253   3.873 133.959  0.00  0.00    +0.000 C 
ATOM     28  C   UNL     1      -8.000   4.620 134.323  0.00  0.00    +0.000 C 
ATOM     29  O   UNL     1      -6.882   3.796 133.959  0.00  0.00    +0.000 OA
ENDBRANCH  24  25
ENDBRANCH  19  24
ENDBRANCH   1  18
TORSDOF 7
ENDMDL
MODEL 3
REMARK VINA RESULT:      -7.4      7.056      9.930
REMARK  Name = CHEMBL515447
REMARK  7 active torsions:
REMARK  status: ('A' for Active; 'I' for Inactive)
REMARK    1  A    between atoms: C_2  and  C_3
REMARK    2  A    between atoms: C_6  and  C_7
REMARK    3  A    between atoms: C_12  and  C_13
REMARK    4  A    between atoms: N_19  and  C_20
REMARK    5  A    between atoms: N_19  and  C_24
REMARK    6  A    between atoms: C_20  and  C_21
REMARK    7  A    between atoms: C_24  and  C_25
REMARK                            x       y       z     vdW  Elec       q    Type
REMARK                         _______ _______ _______ _____ _____    ______ ____
ROOT
ATOM      1  C   UNL     1      -7.292   5.121 130.024  0.00  0.00    +0.000 A 
ATOM      2  C   UNL     1      -7.364   6.276 130.816  0.00  0.00    +0.000 A 
ATOM      3  C   UNL     1      -8.575   6.854 131.063  0.00  0.00    +0.000 A 
ATOM      4  C   UNL     1      -9.674   6.284 130.450  0.00  0.00    +0.000 A 
ATOM      5  N   UNL     1      -9.654   5.108 129.768  0.00  0.00    +0.000 NA
ATOM      6  C   UNL     1      -8.457   4.524 129.607  0.00  0.00    +0.000 A 
ENDROOT
BRANCH   4   7
ATOM      7  C   UNL     1     -10.948   6.962 130.473  0.00  0.00    +0.000 A 
ATOM      8  C   UNL     1     -11.765   6.750 131.595  0.00  0.00    +0.000 A 
ATOM      9  C   UNL     1     -13.019   7.330 131.673  0.00  0.00    +0.000 A 
ATOM     10  C   UNL     1     -13.442   8.186 130.662  0.00  0.00    +0.000 A 
ATOM     11  C   UNL     1     -12.634   8.417 129.547  0.00  0.00    +0.000 A 
ATOM     12  C   UNL     1     -11.380   7.799 129.423  0.00  0.00    +0.000 A 
BRANCH  12  13
ATOM     13  C   UNL     1     -10.569   8.101 128.177  0.00  0.00    +0.000 C 
ATOM     14  F   UNL     1     -11.307   8.713 127.210  0.00  0.00    +0.000 F 
ATOM     15  F   UNL     1      -9.543   8.960 128.456  0.00  0.00    +0.000 F 
ATOM     16  F   UNL     1      -9.981   7.051 127.546  0.00  0.00    +0.000 F 
ENDBRANCH  12  13
ENDBRANCH   4   7
BRANCH   1  18
ATOM     17  O   UNL     1      -5.580   4.863 128.670  0.00  0.00    +0.000 OA
ATOM     18  C   UNL     1      -5.947   4.611 129.801  0.00  0.00    +0.000 C 
ATOM     19  N   UNL     1      -5.215   3.946 130.800  0.00  0.00    +0.000 N 
BRANCH  19  20
ATOM     20  C   UNL     1      -3.749   3.761 130.678  0.00  0.00    +0.000 C 
BRANCH  20  21
ATOM     21  C   UNL     1      -2.764   4.763 131.207  0.00  0.00    +0.000 C 
ATOM     22  C   UNL     1      -2.451   5.917 130.300  0.00  0.00    +0.000 C 
ATOM     23  C   UNL     1      -3.148   6.138 131.647  0.00  0.00    +0.000 C 
ENDBRANCH  20  21
ENDBRANCH  19  20
BRANCH  19  24
ATOM     24  C   UNL     1      -5.959   2.894 131.537  0.00  0.00    +0.000 C 
BRANCH  24  25
ATOM     25  C   UNL     1      -6.337   3.137 133.005  0.00  0.00    +0.000 C 
ATOM     26  C   UNL     1      -7.832   3.225 133.255  0.00  0.00    +0.000 C 
ATOM     27  C   UNL     1      -7.958   4.187 134.386  0.00  0.00    +0.000 C 
ATOM     28  C   UNL     1      -6.810   5.128 134.140  0.00  0.00    +0.000 C 
ATOM     29  O   UNL     1      -5.791   4.396 133.445  0.00  0.00    +0.000 OA
ENDBRANCH  24  25
ENDBRANCH  19  24
ENDBRANCH   1  18
TORSDOF 7
ENDMDL
MODEL 4
REMARK VINA RESULT:      -7.3      2.548      4.031
REMARK  Name = CHEMBL515447
REMARK  7 active torsions:
REMARK  status: ('A' for Active; 'I' for Inactive)
REMARK    1  A    between atoms: C_2  and  C_3
REMARK    2  A    between atoms: C_6  and  C_7
REMARK    3  A    between atoms: C_12  and  C_13
REMARK    4  A    between atoms: N_19  and  C_20
REMARK    5  A    between atoms: N_19  and  C_24
REMARK    6  A    between atoms: C_20  and  C_21
REMARK    7  A    between atoms: C_24  and  C_25
REMARK                            x       y       z     vdW  Elec       q    Type
REMARK                         _______ _______ _______ _____ _____    ______ ____
ROOT
ATOM      1  C   UNL     1      -6.291  -2.031 126.851  0.00  0.00    +0.000 A 
ATOM      2  C   UNL     1      -7.538  -2.500 127.289  0.00  0.00    +0.000 A 
ATOM      3  C   UNL     1      -7.816  -2.541 128.624  0.00  0.00    +0.000 A 
ATOM      4  C   UNL     1      -6.802  -2.165 129.483  0.00  0.00    +0.000 A 
ATOM      5  N   UNL     1      -5.626  -1.607 129.092  0.00  0.00    +0.000 NA
ATOM      6  C   UNL     1      -5.413  -1.510 127.771  0.00  0.00    +0.000 A 
ENDROOT
BRANCH   4   7
ATOM      7  C   UNL     1      -6.934  -2.395 130.902  0.00  0.00    +0.000 A 
ATOM      8  C   UNL     1      -7.639  -1.433 131.642  0.00  0.00    +0.000 A 
ATOM      9  C   UNL     1      -7.773  -1.559 133.014  0.00  0.00    +0.000 A 
ATOM     10  C   UNL     1      -7.264  -2.685 133.652  0.00  0.00    +0.000 A 
ATOM     11  C   UNL     1      -6.573  -3.656 132.926  0.00  0.00    +0.000 A 
ATOM     12  C   UNL     1      -6.381  -3.524 131.541  0.00  0.00    +0.000 A 
BRANCH  12  13
ATOM     13  C   UNL     1      -5.614  -4.623 130.831  0.00  0.00    +0.000 C 
ATOM     14  F   UNL     1      -5.240  -5.626 131.672  0.00  0.00    +0.000 F 
ATOM     15  F   UNL     1      -6.385  -5.215 129.870  0.00  0.00    +0.000 F 
ATOM     16  F   UNL     1      -4.469  -4.270 130.189  0.00  0.00    +0.000 F 
ENDBRANCH  12  13
ENDBRANCH   4   7
BRANCH   1  18
ATOM     17  O   UNL     1      -5.420  -3.025 125.095  0.00  0.00    +0.000 OA
ATOM     18  C   UNL     1      -6.093  -2.063 125.410  0.00  0.00    +0.000 C 
ATOM     19  N   UNL     1      -6.645  -1.099 124.549  0.00  0.00    +0.000 N 
BRANCH  19  20
ATOM     20  C   UNL     1      -6.740  -1.341 123.088  0.00  0.00    +0.000 C 
BRANCH  20  21
ATOM     21  C   UNL     1      -7.877  -2.104 122.472  0.00  0.00    +0.000 C 
ATOM     22  C   UNL     1      -8.744  -2.873 123.425  0.00  0.00    +0.000 C 
ATOM     23  C   UNL     1      -9.308  -1.702 122.613  0.00  0.00    +0.000 C 
ENDBRANCH  20  21
ENDBRANCH  19  20
BRANCH  19  24
ATOM     24  C   UNL     1      -6.467   0.311 124.978  0.00  0.00    +0.000 C 
BRANCH  24  25
ATOM     25  C   UNL     1      -7.705   1.207 125.131  0.00  0.00    +0.000 C 
ATOM     26  C   UNL     1      -8.992   0.448 125.396  0.00  0.00    +0.000 C 
ATOM     27  C   UNL     1     -10.045   1.273 124.740  0.00  0.00    +0.000 C 
ATOM     28  C   UNL     1      -9.314   1.851 123.559  0.00  0.00    +0.000 C 
ATOM     29  O   UNL     1      -7.925   1.941 123.911  0.00  0.00    +0.000 OA
ENDBRANCH  24  25
ENDBRANCH  19  24
ENDBRANCH   1  18
TORSDOF 7
ENDMDL
MODEL 5
REMARK VINA RESULT:      -7.2      6.143      8.627
REMARK  Name = CHEMBL515447
REMARK  7 active torsions:
REMARK  status: ('A' for Active; 'I' for Inactive)
REMARK    1  A    between atoms: C_2  and  C_3
REMARK    2  A    between atoms: C_6  and  C_7
REMARK    3  A    between atoms: C_12  and  C_13
REMARK    4  A    between atoms: N_19  and  C_20
REMARK    5  A    between atoms: N_19  and  C_24
REMARK    6  A    between atoms: C_20  and  C_21
REMARK    7  A    between atoms: C_24  and  C_25
REMARK                            x       y       z     vdW  Elec       q    Type
REMARK                         _______ _______ _______ _____ _____    ______ ____
ROOT
ATOM      1  C   UNL     1      -7.321   4.878 129.852  0.00  0.00    +0.000 A 
ATOM      2  C   UNL     1      -7.288   6.081 130.570  0.00  0.00    +0.000 A 
ATOM      3  C   UNL     1      -8.455   6.712 130.890  0.00  0.00    +0.000 A 
ATOM      4  C   UNL     1      -9.621   6.141 130.419  0.00  0.00    +0.000 A 
ATOM      5  N   UNL     1      -9.697   4.925 129.816  0.00  0.00    +0.000 NA
ATOM      6  C   UNL     1      -8.535   4.294 129.583  0.00  0.00    +0.000 A 
ENDROOT
BRANCH   4   7
ATOM      7  C   UNL     1     -10.869   6.859 130.516  0.00  0.00    +0.000 A 
ATOM      8  C   UNL     1     -11.662   6.614 131.648  0.00  0.00    +0.000 A 
ATOM      9  C   UNL     1     -12.893   7.231 131.793  0.00  0.00    +0.000 A 
ATOM     10  C   UNL     1     -13.312   8.156 130.844  0.00  0.00    +0.000 A 
ATOM     11  C   UNL     1     -12.526   8.421 129.720  0.00  0.00    +0.000 A 
ATOM     12  C   UNL     1     -11.298   7.768 129.526  0.00  0.00    +0.000 A 
BRANCH  12  13
ATOM     13  C   UNL     1     -10.510   8.111 128.277  0.00  0.00    +0.000 C 
ATOM     14  F   UNL     1     -10.007   7.007 127.658  0.00  0.00    +0.000 F 
ATOM     15  F   UNL     1     -11.305   8.723 127.349  0.00  0.00    +0.000 F 
ATOM     16  F   UNL     1      -9.443   8.940 128.421  0.00  0.00    +0.000 F 
ENDBRANCH  12  13
ENDBRANCH   4   7
BRANCH   1  18
ATOM     17  O   UNL     1      -5.223   4.558 130.426  0.00  0.00    +0.000 OA
ATOM     18  C   UNL     1      -6.017   4.312 129.539  0.00  0.00    +0.000 C 
ATOM     19  N   UNL     1      -5.775   3.573 128.368  0.00  0.00    +0.000 N 
BRANCH  19  20
ATOM     20  C   UNL     1      -4.573   2.714 128.240  0.00  0.00    +0.000 C 
BRANCH  20  21
ATOM     21  C   UNL     1      -3.181   3.277 128.210  0.00  0.00    +0.000 C 
ATOM     22  C   UNL     1      -2.451   3.150 126.905  0.00  0.00    +0.000 C 
ATOM     23  C   UNL     1      -2.816   4.525 127.476  0.00  0.00    +0.000 C 
ENDBRANCH  20  21
ENDBRANCH  19  20
BRANCH  19  24
ATOM     24  C   UNL     1      -6.294   4.181 127.117  0.00  0.00    +0.000 C 
BRANCH  24  25
ATOM     25  C   UNL     1      -6.106   3.432 125.790  0.00  0.00    +0.000 C 
ATOM     26  C   UNL     1      -5.444   4.256 124.700  0.00  0.00    +0.000 C 
ATOM     27  C   UNL     1      -6.052   3.749 123.438  0.00  0.00    +0.000 C 
ATOM     28  C   UNL     1      -7.447   3.387 123.871  0.00  0.00    +0.000 C 
ATOM     29  O   UNL     1      -7.392   3.047 125.265  0.00  0.00    +0.000 OA
ENDBRANCH  24  25
ENDBRANCH  19  24
ENDBRANCH   1  18
TORSDOF 7
ENDMDL
MODEL 6
REMARK VINA RESULT:      -7.1      2.782      4.520
REMARK  Name = CHEMBL515447
REMARK  7 active torsions:
REMARK  status: ('A' for Active; 'I' for Inactive)
REMARK    1  A    between atoms: C_2  and  C_3
REMARK    2  A    between atoms: C_6  and  C_7
REMARK    3  A    between atoms: C_12  and  C_13
REMARK    4  A    between atoms: N_19  and  C_20
REMARK    5  A    between atoms: N_19  and  C_24
REMARK    6  A    between atoms: C_20  and  C_21
REMARK    7  A    between atoms: C_24  and  C_25
REMARK                            x       y       z     vdW  Elec       q    Type
REMARK                         _______ _______ _______ _____ _____    ______ ____
ROOT
ATOM      1  C   UNL     1      -6.451   2.563 127.754  0.00  0.00    +0.000 A 
ATOM      2  C   UNL     1      -7.809   2.370 128.043  0.00  0.00    +0.000 A 
ATOM      3  C   UNL     1      -8.305   1.103 128.158  0.00  0.00    +0.000 A 
ATOM      4  C   UNL     1      -7.425   0.067 127.914  0.00  0.00    +0.000 A 
ATOM      5  N   UNL     1      -6.085   0.215 127.739  0.00  0.00    +0.000 NA
ATOM      6  C   UNL     1      -5.617   1.473 127.706  0.00  0.00    +0.000 A 
ENDROOT
BRANCH   4   7
ATOM      7  C   UNL     1      -7.916  -1.285 127.790  0.00  0.00    +0.000 A 
ATOM      8  C   UNL     1      -7.845  -2.098 128.933  0.00  0.00    +0.000 A 
ATOM      9  C   UNL     1      -8.257  -3.418 128.884  0.00  0.00    +0.000 A 
ATOM     10  C   UNL     1      -8.810  -3.921 127.712  0.00  0.00    +0.000 A 
ATOM     11  C   UNL     1      -8.900  -3.120 126.572  0.00  0.00    +0.000 A 
ATOM     12  C   UNL     1      -8.441  -1.793 126.584  0.00  0.00    +0.000 A 
BRANCH  12  13
ATOM     13  C   UNL     1      -8.572  -0.994 125.302  0.00  0.00    +0.000 C 
ATOM     14  F   UNL     1      -8.984  -1.757 124.251  0.00  0.00    +0.000 F 
ATOM     15  F   UNL     1      -9.510  -0.009 125.431  0.00  0.00    +0.000 F 
ATOM     16  F   UNL     1      -7.460  -0.358 124.847  0.00  0.00    +0.000 F 
ENDBRANCH  12  13
ENDBRANCH   4   7
BRANCH   1  18
ATOM     17  O   UNL     1      -6.781   4.676 128.263  0.00  0.00    +0.000 OA
ATOM     18  C   UNL     1      -6.042   3.954 127.622  0.00  0.00    +0.000 C 
ATOM     19  N   UNL     1      -4.925   4.344 126.864  0.00  0.00    +0.000 N 
BRANCH  19  20
ATOM     20  C   UNL     1      -4.318   5.687 127.031  0.00  0.00    +0.000 C 
BRANCH  20  21
ATOM     21  C   UNL     1      -3.688   6.130 128.320  0.00  0.00    +0.000 C 
ATOM     22  C   UNL     1      -2.747   5.153 128.960  0.00  0.00    +0.000 C 
ATOM     23  C   UNL     1      -2.249   6.507 128.444  0.00  0.00    +0.000 C 
ENDBRANCH  20  21
ENDBRANCH  19  20
BRANCH  19  24
ATOM     24  C   UNL     1      -4.833   3.737 125.512  0.00  0.00    +0.000 C 
BRANCH  24  25
ATOM     25  C   UNL     1      -5.939   4.026 124.487  0.00  0.00    +0.000 C 
ATOM     26  C   UNL     1      -6.668   2.788 123.996  0.00  0.00    +0.000 C 
ATOM     27  C   UNL     1      -7.035   3.114 122.589  0.00  0.00    +0.000 C 
ATOM     28  C   UNL     1      -5.888   3.982 122.148  0.00  0.00    +0.000 C 
ATOM     29  O   UNL     1      -5.366   4.636 123.314  0.00  0.00    +0.000 OA
ENDBRANCH  24  25
ENDBRANCH  19  24
ENDBRANCH   1  18
TORSDOF 7
ENDMDL
MODEL 7
REMARK VINA RESULT:      -7.0      3.133      4.952
REMARK  Name = CHEMBL515447
REMARK  7 active torsions:
REMARK  status: ('A' for Active; 'I' for Inactive)
REMARK    1  A    between atoms: C_2  and  C_3
REMARK    2  A    between atoms: C_6  and  C_7
REMARK    3  A    between atoms: C_12  and  C_13
REMARK    4  A    between atoms: N_19  and  C_20
REMARK    5  A    between atoms: N_19  and  C_24
REMARK    6  A    between atoms: C_20  and  C_21
REMARK    7  A    between atoms: C_24  and  C_25
REMARK                            x       y       z     vdW  Elec       q    Type
REMARK                         _______ _______ _______ _____ _____    ______ ____
ROOT
ATOM      1  C   UNL     1      -5.887   1.915 126.518  0.00  0.00    +0.000 A 
ATOM      2  C   UNL     1      -5.207   0.735 126.188  0.00  0.00    +0.000 A 
ATOM      3  C   UNL     1      -5.837  -0.469 126.314  0.00  0.00    +0.000 A 
ATOM      4  C   UNL     1      -7.117  -0.450 126.833  0.00  0.00    +0.000 A 
ATOM      5  N   UNL     1      -7.842   0.677 127.060  0.00  0.00    +0.000 NA
ATOM      6  C   UNL     1      -7.218   1.847 126.854  0.00  0.00    +0.000 A 
ENDROOT
BRANCH   4   7
ATOM      7  C   UNL     1      -7.763  -1.685 127.210  0.00  0.00    +0.000 A 
ATOM      8  C   UNL     1      -7.634  -2.090 128.548  0.00  0.00    +0.000 A 
ATOM      9  C   UNL     1      -8.188  -3.283 128.979  0.00  0.00    +0.000 A 
ATOM     10  C   UNL     1      -8.939  -4.050 128.094  0.00  0.00    +0.000 A 
ATOM     11  C   UNL     1      -9.087  -3.651 126.764  0.00  0.00    +0.000 A 
ATOM     12  C   UNL     1      -8.491  -2.470 126.292  0.00  0.00    +0.000 A 
BRANCH  12  13
ATOM     13  C   UNL     1      -8.699  -2.113 124.833  0.00  0.00    +0.000 C 
ATOM     14  F   UNL     1      -7.550  -2.198 124.107  0.00  0.00    +0.000 F 
ATOM     15  F   UNL     1      -9.575  -2.976 124.238  0.00  0.00    +0.000 F 
ATOM     16  F   UNL     1      -9.187  -0.875 124.557  0.00  0.00    +0.000 F 
ENDBRANCH  12  13
ENDBRANCH   4   7
BRANCH   1  18
ATOM     17  O   UNL     1      -5.089   3.494 125.213  0.00  0.00    +0.000 OA
ATOM     18  C   UNL     1      -5.108   3.136 126.375  0.00  0.00    +0.000 C 
ATOM     19  N   UNL     1      -4.501   3.778 127.468  0.00  0.00    +0.000 N 
BRANCH  19  20
ATOM     20  C   UNL     1      -4.031   5.181 127.367  0.00  0.00    +0.000 C 
BRANCH  20  21
ATOM     21  C   UNL     1      -3.613   5.978 128.569  0.00  0.00    +0.000 C 
ATOM     22  C   UNL     1      -2.163   6.355 128.634  0.00  0.00    +0.000 C 
ATOM     23  C   UNL     1      -3.252   7.426 128.509  0.00  0.00    +0.000 C 
ENDBRANCH  20  21
ENDBRANCH  19  20
BRANCH  19  24
ATOM     24  C   UNL     1      -3.747   2.889 128.387  0.00  0.00    +0.000 C 
BRANCH  24  25
ATOM     25  C   UNL     1      -4.382   2.489 129.727  0.00  0.00    +0.000 C 
ATOM     26  C   UNL     1      -4.776   1.026 129.816  0.00  0.00    +0.000 C 
ATOM     27  C   UNL     1      -5.980   1.024 130.694  0.00  0.00    +0.000 C 
ATOM     28  C   UNL     1      -6.631   2.336 130.354  0.00  0.00    +0.000 C 
ATOM     29  O   UNL     1      -5.597   3.236 129.930  0.00  0.00    +0.000 OA
ENDBRANCH  24  25
ENDBRANCH  19  24
ENDBRANCH   1  18
TORSDOF 7
ENDMDL
MODEL 8
REMARK VINA RESULT:      -7.0      3.379      4.682
REMARK  Name = CHEMBL515447
REMARK  7 active torsions:
REMARK  status: ('A' for Active; 'I' for Inactive)
REMARK    1  A    between atoms: C_2  and  C_3
REMARK    2  A    between atoms: C_6  and  C_7
REMARK    3  A    between atoms: C_12  and  C_13
REMARK    4  A    between atoms: N_19  and  C_20
REMARK    5  A    between atoms: N_19  and  C_24
REMARK    6  A    between atoms: C_20  and  C_21
REMARK    7  A    between atoms: C_24  and  C_25
REMARK                            x       y       z     vdW  Elec       q    Type
REMARK                         _______ _______ _______ _____ _____    ______ ____
ROOT
ATOM      1  C   UNL     1      -6.379  -1.486 128.836  0.00  0.00    +0.000 A 
ATOM      2  C   UNL     1      -6.964  -2.761 128.822  0.00  0.00    +0.000 A 
ATOM      3  C   UNL     1      -7.301  -3.366 129.998  0.00  0.00    +0.000 A 
ATOM      4  C   UNL     1      -6.979  -2.690 131.159  0.00  0.00    +0.000 A 
ATOM      5  N   UNL     1      -6.513  -1.415 131.207  0.00  0.00    +0.000 NA
ATOM      6  C   UNL     1      -6.263  -0.819 130.031  0.00  0.00    +0.000 A 
ENDROOT
BRANCH   4   7
ATOM      7  C   UNL     1      -7.091  -3.354 132.436  0.00  0.00    +0.000 A 
ATOM      8  C   UNL     1      -8.144  -2.955 133.274  0.00  0.00    +0.000 A 
ATOM      9  C   UNL     1      -8.294  -3.513 134.531  0.00  0.00    +0.000 A 
ATOM     10  C   UNL     1      -7.436  -4.528 134.938  0.00  0.00    +0.000 A 
ATOM     11  C   UNL     1      -6.392  -4.945 134.109  0.00  0.00    +0.000 A 
ATOM     12  C   UNL     1      -6.190  -4.357 132.850  0.00  0.00    +0.000 A 
BRANCH  12  13
ATOM     13  C   UNL     1      -5.030  -4.867 132.016  0.00  0.00    +0.000 C 
ATOM     14  F   UNL     1      -4.135  -5.585 132.750  0.00  0.00    +0.000 F 
ATOM     15  F   UNL     1      -5.466  -5.713 131.036  0.00  0.00    +0.000 F 
ATOM     16  F   UNL     1      -4.275  -3.942 131.367  0.00  0.00    +0.000 F 
ENDBRANCH  12  13
ENDBRANCH   4   7
BRANCH   1  18
ATOM     17  O   UNL     1      -4.998  -0.318 127.588  0.00  0.00    +0.000 OA
ATOM     18  C   UNL     1      -6.033  -0.954 127.527  0.00  0.00    +0.000 C 
ATOM     19  N   UNL     1      -6.813  -1.192 126.382  0.00  0.00    +0.000 N 
BRANCH  19  20
ATOM     20  C   UNL     1      -6.269  -0.958 125.022  0.00  0.00    +0.000 C 
BRANCH  20  21
ATOM     21  C   UNL     1      -5.245  -1.863 124.399  0.00  0.00    +0.000 C 
ATOM     22  C   UNL     1      -5.441  -3.332 124.630  0.00  0.00    +0.000 C 
ATOM     23  C   UNL     1      -5.530  -2.736 123.222  0.00  0.00    +0.000 C 
ENDBRANCH  20  21
ENDBRANCH  19  20
BRANCH  19  24
ATOM     24  C   UNL     1      -8.273  -0.991 126.557  0.00  0.00    +0.000 C 
BRANCH  24  25
ATOM     25  C   UNL     1      -9.248  -1.803 125.692  0.00  0.00    +0.000 C 
ATOM     26  C   UNL     1      -8.816  -3.237 125.450  0.00  0.00    +0.000 C 
ATOM     27  C   UNL     1      -9.339  -3.553 124.090  0.00  0.00    +0.000 C 
ATOM     28  C   UNL     1      -9.241  -2.225 123.390  0.00  0.00    +0.000 C 
ATOM     29  O   UNL     1      -9.355  -1.199 124.387  0.00  0.00    +0.000 OA
ENDBRANCH  24  25
ENDBRANCH  19  24
ENDBRANCH   1  18
TORSDOF 7
ENDMDL
MODEL 9
REMARK VINA RESULT:      -7.0      4.292      8.427
REMARK  Name = CHEMBL515447
REMARK  7 active torsions:
REMARK  status: ('A' for Active; 'I' for Inactive)
REMARK    1  A    between atoms: C_2  and  C_3
REMARK    2  A    between atoms: C_6  and  C_7
REMARK    3  A    between atoms: C_12  and  C_13
REMARK    4  A    between atoms: N_19  and  C_20
REMARK    5  A    between atoms: N_19  and  C_24
REMARK    6  A    between atoms: C_20  and  C_21
REMARK    7  A    between atoms: C_24  and  C_25
REMARK                            x       y       z     vdW  Elec       q    Type
REMARK                         _______ _______ _______ _____ _____    ______ ____
ROOT
ATOM      1  C   UNL     1      -7.851  -1.587 129.815  0.00  0.00    +0.000 A 
ATOM      2  C   UNL     1      -8.023  -2.924 129.430  0.00  0.00    +0.000 A 
ATOM      3  C   UNL     1      -8.004  -3.256 128.106  0.00  0.00    +0.000 A 
ATOM      4  C   UNL     1      -7.877  -2.216 127.206  0.00  0.00    +0.000 A 
ATOM      5  N   UNL     1      -7.602  -0.930 127.545  0.00  0.00    +0.000 NA
ATOM      6  C   UNL     1      -7.552  -0.649 128.857  0.00  0.00    +0.000 A 
ENDROOT
BRANCH   4   7
ATOM      7  C   UNL     1      -8.076  -2.452 125.796  0.00  0.00    +0.000 A 
ATOM      8  C   UNL     1      -9.385  -2.733 125.373  0.00  0.00    +0.000 A 
ATOM      9  C   UNL     1      -9.652  -3.013 124.045  0.00  0.00    +0.000 A 
ATOM     10  C   UNL     1      -8.625  -2.945 123.110  0.00  0.00    +0.000 A 
ATOM     11  C   UNL     1      -7.321  -2.652 123.514  0.00  0.00    +0.000 A 
ATOM     12  C   UNL     1      -7.018  -2.416 124.864  0.00  0.00    +0.000 A 
BRANCH  12  13
ATOM     13  C   UNL     1      -5.575  -2.110 125.217  0.00  0.00    +0.000 C 
ATOM     14  F   UNL     1      -4.704  -2.515 124.251  0.00  0.00    +0.000 F 
ATOM     15  F   UNL     1      -5.377  -0.764 125.350  0.00  0.00    +0.000 F 
ATOM     16  F   UNL     1      -5.086  -2.648 126.365  0.00  0.00    +0.000 F 
ENDBRANCH  12  13
ENDBRANCH   4   7
BRANCH   1  18
ATOM     17  O   UNL     1      -8.847  -0.600 131.509  0.00  0.00    +0.000 OA
ATOM     18  C   UNL     1      -7.921  -1.345 131.249  0.00  0.00    +0.000 C 
ATOM     19  N   UNL     1      -7.029  -1.936 132.159  0.00  0.00    +0.000 N 
BRANCH  19  20
ATOM     20  C   UNL     1      -7.329  -1.972 133.612  0.00  0.00    +0.000 C 
BRANCH  20  21
ATOM     21  C   UNL     1      -8.229  -3.009 134.221  0.00  0.00    +0.000 C 
ATOM     22  C   UNL     1      -7.545  -4.218 134.788  0.00  0.00    +0.000 C 
ATOM     23  C   UNL     1      -8.322  -3.253 135.691  0.00  0.00    +0.000 C 
ENDBRANCH  20  21
ENDBRANCH  19  20
BRANCH  19  24
ATOM     24  C   UNL     1      -5.596  -1.865 131.779  0.00  0.00    +0.000 C 
BRANCH  24  25
ATOM     25  C   UNL     1      -4.774  -3.161 131.720  0.00  0.00    +0.000 C 
ATOM     26  C   UNL     1      -5.612  -4.424 131.646  0.00  0.00    +0.000 C 
ATOM     27  C   UNL     1      -4.802  -5.443 132.373  0.00  0.00    +0.000 C 
ATOM     28  C   UNL     1      -4.117  -4.619 133.428  0.00  0.00    +0.000 C 
ATOM     29  O   UNL     1      -3.979  -3.286 132.915  0.00  0.00    +0.000 OA
ENDBRANCH  24  25
ENDBRANCH  19  24
ENDBRANCH   1  18
TORSDOF 7
ENDMDL
