MODEL 1
REMARK VINA RESULT:      -9.4      0.000      0.000
REMARK  Name = CHEMBL265858
REMARK  19 active torsions:
REMARK  status: ('A' for Active; 'I' for Inactive)
REMARK    1  A    between atoms: C_2  and  C_4
REMARK    2  A    between atoms: C_4  and  N_5
REMARK    3  A    between atoms: C_6  and  C_8
REMARK    4  A    between atoms: C_8  and  C_9
REMARK    5  A    between atoms: C_8  and  N_16
REMARK    6  A    between atoms: C_9  and  C_10
REMARK    7  A    between atoms: C_10  and  C_11
REMARK    8  A    between atoms: C_11  and  N_12
REMARK    9  A    between atoms: C_17  and  C_19
REMARK   10  A    between atoms: C_24  and  C_26
REMARK   11  A    between atoms: C_35  and  C_36
REMARK   12  A    between atoms: C_36  and  C_37
REMARK   13  A    between atoms: C_40  and  O_41
REMARK   14  A    between atoms: C_47  and  C_48
REMARK   15  A    between atoms: C_48  and  C_49
REMARK   16  A    between atoms: C_58  and  C_59
REMARK   17  A    between atoms: C_59  and  C_60
REMARK   18  A    between atoms: C_69  and  C_70
REMARK   19  A    between atoms: C_70  and  C_71
REMARK                            x       y       z     vdW  Elec       q    Type
REMARK                         _______ _______ _______ _____ _____    ______ ____
ROOT
ATOM      1  C   UNL     1      -5.706   2.040 132.418  0.00  0.00    +0.000 C 
ATOM      2  C   UNL     1      -4.987  -0.175 131.198  0.00  0.00    +0.000 C 
ATOM      3  S   UNL     1      -4.439  -1.765 129.040  0.00  0.00    +0.000 S 
ATOM      4  S   UNL     1      -4.413  -3.184 126.612  0.00  0.00    +0.000 S 
ATOM      5  C   UNL     1      -5.662  -2.699 125.118  0.00  0.00    +0.000 C 
ATOM      6  C   UNL     1      -6.709  -3.314 124.203  0.00  0.00    +0.000 C 
ATOM      7  C   UNL     1      -7.899  -2.422 123.777  0.00  0.00    +0.000 C 
ATOM      8  O   UNL     1      -8.680  -2.805 122.903  0.00  0.00    +0.000 OA
ATOM      9  N   UNL     1      -8.098  -1.226 124.417  0.00  0.00    +0.000 N 
ATOM     10  C   UNL     1      -7.247  -0.662 125.436  0.00  0.00    +0.000 C 
ATOM     11  C   UNL     1      -7.426  -1.665 126.764  0.00  0.00    +0.000 C 
ATOM     12  O   UNL     1      -7.307  -2.915 126.817  0.00  0.00    +0.000 OA
ATOM     13  N   UNL     1      -7.552  -1.103 127.919  0.00  0.00    +0.000 N 
ATOM     14  C   UNL     1      -7.977   0.227 128.120  0.00  0.00    +0.000 C 
ATOM     15  C   UNL     1      -6.577   1.319 127.733  0.00  0.00    +0.000 C 
ATOM     16  O   UNL     1      -5.758   1.161 126.801  0.00  0.00    +0.000 OA
ATOM     17  N   UNL     1      -6.452   2.483 128.361  0.00  0.00    +0.000 N 
ATOM     18  C   UNL     1      -6.890   2.614 129.653  0.00  0.00    +0.000 C 
ATOM     19  C   UNL     1      -8.305   3.003 129.554  0.00  0.00    +0.000 C 
ATOM     20  O   UNL     1      -9.261   2.395 129.071  0.00  0.00    +0.000 OA
ATOM     21  N   UNL     1      -8.562   3.963 130.380  0.00  0.00    +0.000 N 
ATOM     22  C   UNL     1      -7.577   4.691 131.151  0.00  0.00    +0.000 C 
ATOM     23  C   UNL     1      -7.271   3.088 131.956  0.00  0.00    +0.000 C 
ATOM     24  O   UNL     1      -6.986   2.147 131.450  0.00  0.00    +0.000 OA
ATOM     25  N   UNL     1      -6.471   3.184 133.527  0.00  0.00    +0.000 N 
ATOM     26  H   UNL     1      -8.854  -0.593 124.117  0.00  0.00    +0.000 HD
ATOM     27  H   UNL     1      -7.548  -1.773 128.661  0.00  0.00    +0.000 HD
ATOM     28  H   UNL     1      -5.472   2.728 128.359  0.00  0.00    +0.000 HD
ATOM     29  H   UNL     1      -9.508   3.947 130.733  0.00  0.00    +0.000 HD
ATOM     30  H   UNL     1      -6.685   3.445 134.729  0.00  0.00    +0.000 HD
ENDROOT
BRANCH   1  36
ATOM     31  C   UNL     1      -6.133   6.220 135.685  0.00  0.00    +0.000 C 
ATOM     32  C   UNL     1      -6.273   5.826 137.235  0.00  0.00    +0.000 C 
ATOM     33  C   UNL     1      -7.015   6.920 137.829  0.00  0.00    +0.000 C 
ATOM     34  C   UNL     1      -7.972   6.974 136.133  0.00  0.00    +0.000 C 
ATOM     35  N   UNL     1      -7.300   5.780 134.463  0.00  0.00    +0.000 N 
ATOM     36  C   UNL     1      -6.963   4.002 133.232  0.00  0.00    +0.000 C 
ATOM     37  O   UNL     1      -8.118   5.062 133.294  0.00  0.00    +0.000 OA
BRANCH  31  39
ATOM     38  N   UNL     1      -4.948   4.281 134.725  0.00  0.00    +0.000 N 
ATOM     39  C   UNL     1      -5.525   5.350 134.906  0.00  0.00    +0.000 C 
ATOM     40  O   UNL     1      -5.503   5.899 133.917  0.00  0.00    +0.000 OA
ATOM     41  H   UNL     1      -5.241   3.800 135.461  0.00  0.00    +0.000 HD
BRANCH  38  42
ATOM     42  C   UNL     1      -4.205   3.550 133.697  0.00  0.00    +0.000 C 
BRANCH  42  44
ATOM     43  N   UNL     1      -2.693   1.447 133.349  0.00  0.00    +0.000 N 
ATOM     44  C   UNL     1      -3.280   2.641 134.417  0.00  0.00    +0.000 C 
ATOM     45  O   UNL     1      -3.798   2.511 135.549  0.00  0.00    +0.000 OA
ATOM     46  H   UNL     1      -3.224   1.390 132.401  0.00  0.00    +0.000 HD
BRANCH  43  47
ATOM     47  C   UNL     1      -2.472  -0.387 133.807  0.00  0.00    +0.000 C 
BRANCH  47  49
ATOM     48  N   UNL     1      -2.778  -0.458 136.218  0.00  0.00    +0.000 N 
ATOM     49  C   UNL     1      -3.255  -0.931 134.900  0.00  0.00    +0.000 C 
ATOM     50  O   UNL     1      -4.588  -1.730 134.302  0.00  0.00    +0.000 OA
ATOM     51  H   UNL     1      -2.715  -1.242 136.911  0.00  0.00    +0.000 HD
ATOM     52  H   UNL     1      -2.052   0.223 136.386  0.00  0.00    +0.000 HD
ENDBRANCH  47  49
ENDBRANCH  43  47
ENDBRANCH  42  44
BRANCH  42  53
ATOM     53  C   UNL     1      -3.074   4.078 133.112  0.00  0.00    +0.000 C 
BRANCH  53  54
ATOM     54  C   UNL     1      -2.580   4.984 134.145  0.00  0.00    +0.000 C 
BRANCH  54  55
ATOM     55  C   UNL     1      -1.801   6.039 133.465  0.00  0.00    +0.000 C 
BRANCH  55  56
ATOM     56  N   UNL     1      -2.549   6.526 132.306  0.00  0.00    +0.000 NA
ATOM     57  C   UNL     1      -2.714   7.807 132.177  0.00  0.00    +0.000 C 
ATOM     58  N   UNL     1      -2.212   8.719 133.082  0.00  0.00    +0.000 N 
ATOM     59  N   UNL     1      -3.421   8.293 131.086  0.00  0.00    +0.000 N 
ATOM     60  H   UNL     1      -1.683   8.416 133.908  0.00  0.00    +0.000 HD
ATOM     61  H   UNL     1      -2.319   9.721 133.018  0.00  0.00    +0.000 HD
ATOM     62  H   UNL     1      -3.820   7.664 130.374  0.00  0.00    +0.000 HD
ATOM     63  H   UNL     1      -3.601   9.273 130.899  0.00  0.00    +0.000 HD
ENDBRANCH  55  56
ENDBRANCH  54  55
ENDBRANCH  53  54
ENDBRANCH  42  53
ENDBRANCH  38  42
ENDBRANCH  31  39
ENDBRANCH   1  36
BRANCH  10  64
ATOM     64  C   UNL     1      -7.773   0.675 125.618  0.00  0.00    +0.000 C 
BRANCH  64  65
ATOM     65  C   UNL     1      -8.047   1.551 124.525  0.00  0.00    +0.000 A 
ATOM     66  C   UNL     1      -6.945   2.164 124.019  0.00  0.00    +0.000 A 
ATOM     67  C   UNL     1      -7.019   2.940 122.906  0.00  0.00    +0.000 A 
ATOM     68  C   UNL     1      -8.239   3.106 122.301  0.00  0.00    +0.000 A 
ATOM     69  C   UNL     1      -9.372   2.526 122.838  0.00  0.00    +0.000 A 
ATOM     70  C   UNL     1      -9.284   1.736 123.957  0.00  0.00    +0.000 A 
BRANCH  68  71
ATOM     71  O   UNL     1      -8.425   3.841 121.176  0.00  0.00    +0.000 OA
ATOM     72  H   UNL     1      -8.148   4.768 121.243  0.00  0.00    +0.000 HD
ENDBRANCH  68  71
ENDBRANCH  64  65
ENDBRANCH  10  64
BRANCH  14  73
ATOM     73  C   UNL     1      -8.406   0.209 129.486  0.00  0.00    +0.000 C 
BRANCH  73  74
ATOM     74  C   UNL     1      -8.224  -0.830 130.386  0.00  0.00    +0.000 A 
ATOM     75  C   UNL     1      -8.485  -0.440 131.642  0.00  0.00    +0.000 A 
ATOM     76  C   UNL     1      -8.056  -1.259 132.612  0.00  0.00    +0.000 A 
ATOM     77  C   UNL     1      -7.733  -2.558 132.353  0.00  0.00    +0.000 A 
ATOM     78  C   UNL     1      -7.576  -2.945 131.056  0.00  0.00    +0.000 A 
ATOM     79  C   UNL     1      -7.845  -2.083 130.048  0.00  0.00    +0.000 A 
ENDBRANCH  73  74
ENDBRANCH  14  73
BRANCH  18  80
ATOM     80  C   UNL     1      -5.654   3.274 130.452  0.00  0.00    +0.000 C 
BRANCH  80  81
ATOM     81  C   UNL     1      -4.331   3.908 130.211  0.00  0.00    +0.000 C 
ATOM     82  C   UNL     1      -4.066   3.354 129.011  0.00  0.00    +0.000 C 
ATOM     83  C   UNL     1      -2.660   3.521 128.147  0.00  0.00    +0.000 C 
ATOM     84  C   UNL     1      -3.094   4.712 127.666  0.00  0.00    +0.000 C 
ATOM     85  C   UNL     1      -3.468   5.592 128.829  0.00  0.00    +0.000 C 
ATOM     86  C   UNL     1      -4.625   5.132 129.649  0.00  0.00    +0.000 C 
ENDBRANCH  80  81
ENDBRANCH  18  80
BRANCH  22  87
ATOM     87  C   UNL     1      -8.100   5.967 131.748  0.00  0.00    +0.000 C 
BRANCH  87  88
ATOM     88  C   UNL     1      -9.068   6.628 130.995  0.00  0.00    +0.000 C 
ATOM     89  N   UNL     1     -10.247   6.560 131.634  0.00  0.00    +0.000 N 
ATOM     90  O   UNL     1      -8.851   7.183 129.945  0.00  0.00    +0.000 OA
ATOM     91  H   UNL     1     -10.364   6.191 132.580  0.00  0.00    +0.000 HD
ATOM     92  H   UNL     1     -11.042   6.904 131.178  0.00  0.00    +0.000 HD
ENDBRANCH  87  88
ENDBRANCH  22  87
TORSDOF 19
ENDMDL
MODEL 2
REMARK VINA RESULT:      -8.6      3.070      5.886
REMARK  Name = CHEMBL265858
REMARK  19 active torsions:
REMARK  status: ('A' for Active; 'I' for Inactive)
REMARK    1  A    between atoms: C_2  and  C_4
REMARK    2  A    between atoms: C_4  and  N_5
REMARK    3  A    between atoms: C_6  and  C_8
REMARK    4  A    between atoms: C_8  and  C_9
REMARK    5  A    between atoms: C_8  and  N_16
REMARK    6  A    between atoms: C_9  and  C_10
REMARK    7  A    between atoms: C_10  and  C_11
REMARK    8  A    between atoms: C_11  and  N_12
REMARK    9  A    between atoms: C_17  and  C_19
REMARK   10  A    between atoms: C_24  and  C_26
REMARK   11  A    between atoms: C_35  and  C_36
REMARK   12  A    between atoms: C_36  and  C_37
REMARK   13  A    between atoms: C_40  and  O_41
REMARK   14  A    between atoms: C_47  and  C_48
REMARK   15  A    between atoms: C_48  and  C_49
REMARK   16  A    between atoms: C_58  and  C_59
REMARK   17  A    between atoms: C_59  and  C_60
REMARK   18  A    between atoms: C_69  and  C_70
REMARK   19  A    between atoms: C_70  and  C_71
REMARK                            x       y       z     vdW  Elec       q    Type
REMARK                         _______ _______ _______ _____ _____    ______ ____
ROOT
ATOM      1  C   UNL     1      -6.151  -1.257 132.924  0.00  0.00    +0.000 C 
ATOM      2  C   UNL     1      -7.578  -2.472 131.080  0.00  0.00    +0.000 C 
ATOM      3  S   UNL     1      -8.242  -3.211 128.531  0.00  0.00    +0.000 S 
ATOM      4  S   UNL     1      -8.855  -3.373 125.791  0.00  0.00    +0.000 S 
ATOM      5  C   UNL     1      -8.430  -1.857 124.546  0.00  0.00    +0.000 C 
ATOM      6  C   UNL     1      -9.087  -0.949 123.521  0.00  0.00    +0.000 C 
ATOM      7  C   UNL     1      -8.565   0.504 123.413  0.00  0.00    +0.000 C 
ATOM      8  O   UNL     1      -8.935   1.230 122.488  0.00  0.00    +0.000 OA
ATOM      9  N   UNL     1      -7.727   0.983 124.386  0.00  0.00    +0.000 N 
ATOM     10  C   UNL     1      -7.209   0.230 125.502  0.00  0.00    +0.000 C 
ATOM     11  C   UNL     1      -8.534  -0.081 126.476  0.00  0.00    +0.000 C 
ATOM     12  O   UNL     1      -9.637  -0.589 126.150  0.00  0.00    +0.000 OA
ATOM     13  N   UNL     1      -8.383   0.068 127.749  0.00  0.00    +0.000 N 
ATOM     14  C   UNL     1      -7.380   0.857 128.349  0.00  0.00    +0.000 C 
ATOM     15  C   UNL     1      -5.821  -0.072 128.265  0.00  0.00    +0.000 C 
ATOM     16  O   UNL     1      -5.437  -0.776 127.305  0.00  0.00    +0.000 OA
ATOM     17  N   UNL     1      -4.900   0.094 129.207  0.00  0.00    +0.000 N 
ATOM     18  C   UNL     1      -5.279   0.385 130.492  0.00  0.00    +0.000 C 
ATOM     19  C   UNL     1      -5.375   1.851 130.554  0.00  0.00    +0.000 C 
ATOM     20  O   UNL     1      -6.113   2.623 129.939  0.00  0.00    +0.000 OA
ATOM     21  N   UNL     1      -4.819   2.288 131.635  0.00  0.00    +0.000 N 
ATOM     22  C   UNL     1      -4.042   1.491 132.559  0.00  0.00    +0.000 C 
ATOM     23  C   UNL     1      -5.604   0.601 132.841  0.00  0.00    +0.000 C 
ATOM     24  O   UNL     1      -6.220   0.104 132.070  0.00  0.00    +0.000 OA
ATOM     25  N   UNL     1      -5.676  -0.320 134.346  0.00  0.00    +0.000 N 
ATOM     26  H   UNL     1      -7.327   1.931 124.311  0.00  0.00    +0.000 HD
ATOM     27  H   UNL     1      -9.188  -0.239 128.257  0.00  0.00    +0.000 HD
ATOM     28  H   UNL     1      -4.349  -0.753 129.250  0.00  0.00    +0.000 HD
ATOM     29  H   UNL     1      -5.246   3.131 131.994  0.00  0.00    +0.000 HD
ATOM     30  H   UNL     1      -5.838  -0.187 135.577  0.00  0.00    +0.000 HD
ENDROOT
BRANCH   1  36
ATOM     31  C   UNL     1      -3.728   0.116 137.459  0.00  0.00    +0.000 C 
ATOM     32  C   UNL     1      -4.685   0.085 138.748  0.00  0.00    +0.000 C 
ATOM     33  C   UNL     1      -4.118   1.062 139.655  0.00  0.00    +0.000 C 
ATOM     34  C   UNL     1      -3.694   2.069 138.042  0.00  0.00    +0.000 C 
ATOM     35  N   UNL     1      -3.974   1.177 136.095  0.00  0.00    +0.000 N 
ATOM     36  C   UNL     1      -5.023   0.436 134.322  0.00  0.00    +0.000 C 
ATOM     37  O   UNL     1      -4.398   1.826 134.697  0.00  0.00    +0.000 OA
BRANCH  31  39
ATOM     38  N   UNL     1      -4.762  -1.542 135.954  0.00  0.00    +0.000 N 
ATOM     39  C   UNL     1      -4.062  -0.665 136.455  0.00  0.00    +0.000 C 
ATOM     40  O   UNL     1      -3.269  -0.410 135.688  0.00  0.00    +0.000 OA
ATOM     41  H   UNL     1      -5.510  -1.496 136.499  0.00  0.00    +0.000 HD
BRANCH  38  42
ATOM     42  C   UNL     1      -4.850  -2.381 134.759  0.00  0.00    +0.000 C 
BRANCH  42  44
ATOM     43  N   UNL     1      -7.369  -3.021 135.038  0.00  0.00    +0.000 N 
ATOM     44  C   UNL     1      -5.738  -3.516 135.109  0.00  0.00    +0.000 C 
ATOM     45  O   UNL     1      -5.126  -4.111 136.025  0.00  0.00    +0.000 OA
ATOM     46  H   UNL     1      -7.510  -1.944 134.968  0.00  0.00    +0.000 HD
BRANCH  43  47
ATOM     47  C   UNL     1      -8.701  -3.529 136.299  0.00  0.00    +0.000 C 
BRANCH  47  49
ATOM     48  N   UNL     1      -9.598  -3.575 138.558  0.00  0.00    +0.000 N 
ATOM     49  C   UNL     1      -8.717  -2.878 137.595  0.00  0.00    +0.000 C 
ATOM     50  O   UNL     1      -7.553  -1.689 137.648  0.00  0.00    +0.000 OA
ATOM     51  H   UNL     1     -10.201  -2.901 139.088  0.00  0.00    +0.000 HD
ATOM     52  H   UNL     1     -10.087  -4.444 138.406  0.00  0.00    +0.000 HD
ENDBRANCH  47  49
ENDBRANCH  43  47
ENDBRANCH  42  44
BRANCH  42  53
ATOM     53  C   UNL     1      -3.900  -3.339 134.477  0.00  0.00    +0.000 C 
BRANCH  53  54
ATOM     54  C   UNL     1      -2.677  -2.548 134.379  0.00  0.00    +0.000 C 
BRANCH  54  55
ATOM     55  C   UNL     1      -1.631  -3.264 135.138  0.00  0.00    +0.000 C 
BRANCH  55  56
ATOM     56  N   UNL     1      -0.443  -3.420 134.300  0.00  0.00    +0.000 NA
ATOM     57  C   UNL     1       0.712  -3.515 134.885  0.00  0.00    +0.000 C 
ATOM     58  N   UNL     1       0.860  -3.477 136.256  0.00  0.00    +0.000 N 
ATOM     59  N   UNL     1       1.855  -3.663 134.111  0.00  0.00    +0.000 N 
ATOM     60  H   UNL     1       0.050  -3.367 136.878  0.00  0.00    +0.000 HD
ATOM     61  H   UNL     1       1.738  -3.546 136.748  0.00  0.00    +0.000 HD
ATOM     62  H   UNL     1       1.811  -3.700 133.082  0.00  0.00    +0.000 HD
ATOM     63  H   UNL     1       2.797  -3.745 134.474  0.00  0.00    +0.000 HD
ENDBRANCH  55  56
ENDBRANCH  54  55
ENDBRANCH  53  54
ENDBRANCH  42  53
ENDBRANCH  38  42
ENDBRANCH  31  39
ENDBRANCH   1  36
BRANCH  10  64
ATOM     64  C   UNL     1      -6.228   1.119 126.089  0.00  0.00    +0.000 C 
BRANCH  64  65
ATOM     65  C   UNL     1      -6.246   2.531 125.881  0.00  0.00    +0.000 A 
ATOM     66  C   UNL     1      -5.076   3.035 125.406  0.00  0.00    +0.000 A 
ATOM     67  C   UNL     1      -4.965   4.340 125.048  0.00  0.00    +0.000 A 
ATOM     68  C   UNL     1      -6.060   5.155 125.187  0.00  0.00    +0.000 A 
ATOM     69  C   UNL     1      -7.238   4.662 125.715  0.00  0.00    +0.000 A 
ATOM     70  C   UNL     1      -7.343   3.339 126.064  0.00  0.00    +0.000 A 
BRANCH  68  71
ATOM     71  O   UNL     1      -6.068   6.467 124.842  0.00  0.00    +0.000 OA
ATOM     72  H   UNL     1      -6.672   7.022 125.361  0.00  0.00    +0.000 HD
ENDBRANCH  68  71
ENDBRANCH  64  65
ENDBRANCH  10  64
BRANCH  14  73
ATOM     73  C   UNL     1      -7.912   1.084 129.659  0.00  0.00    +0.000 C 
BRANCH  73  74
ATOM     74  C   UNL     1      -8.787   2.096 130.022  0.00  0.00    +0.000 A 
ATOM     75  C   UNL     1      -9.328   1.866 131.227  0.00  0.00    +0.000 A 
ATOM     76  C   UNL     1     -10.399   2.607 131.541  0.00  0.00    +0.000 A 
ATOM     77  C   UNL     1     -10.685   3.761 130.872  0.00  0.00    +0.000 A 
ATOM     78  C   UNL     1     -10.039   4.012 129.699  0.00  0.00    +0.000 A 
ATOM     79  C   UNL     1      -9.057   3.186 129.269  0.00  0.00    +0.000 A 
ENDBRANCH  73  74
ENDBRANCH  14  73
BRANCH  18  80
ATOM     80  C   UNL     1      -4.486  -0.674 131.414  0.00  0.00    +0.000 C 
BRANCH  80  81
ATOM     81  C   UNL     1      -3.629  -1.884 131.307  0.00  0.00    +0.000 C 
ATOM     82  C   UNL     1      -4.509  -2.690 130.680  0.00  0.00    +0.000 C 
ATOM     83  C   UNL     1      -4.281  -4.293 130.319  0.00  0.00    +0.000 C 
ATOM     84  C   UNL     1      -3.583  -3.946 129.209  0.00  0.00    +0.000 C 
ATOM     85  C   UNL     1      -2.471  -3.015 129.613  0.00  0.00    +0.000 C 
ATOM     86  C   UNL     1      -2.893  -1.692 130.157  0.00  0.00    +0.000 C 
ENDBRANCH  80  81
ENDBRANCH  18  80
BRANCH  22  87
ATOM     87  C   UNL     1      -3.228   2.306 133.524  0.00  0.00    +0.000 C 
BRANCH  87  88
ATOM     88  C   UNL     1      -2.813   3.551 133.055  0.00  0.00    +0.000 C 
ATOM     89  N   UNL     1      -2.852   4.438 134.062  0.00  0.00    +0.000 N 
ATOM     90  O   UNL     1      -2.461   3.767 131.920  0.00  0.00    +0.000 OA
ATOM     91  H   UNL     1      -3.034   4.188 135.037  0.00  0.00    +0.000 HD
ATOM     92  H   UNL     1      -2.673   5.379 133.860  0.00  0.00    +0.000 HD
ENDBRANCH  87  88
ENDBRANCH  22  87
TORSDOF 19
ENDMDL
MODEL 3
REMARK VINA RESULT:      -8.6      4.163      8.792
REMARK  Name = CHEMBL265858
REMARK  19 active torsions:
REMARK  status: ('A' for Active; 'I' for Inactive)
REMARK    1  A    between atoms: C_2  and  C_4
REMARK    2  A    between atoms: C_4  and  N_5
REMARK    3  A    between atoms: C_6  and  C_8
REMARK    4  A    between atoms: C_8  and  C_9
REMARK    5  A    between atoms: C_8  and  N_16
REMARK    6  A    between atoms: C_9  and  C_10
REMARK    7  A    between atoms: C_10  and  C_11
REMARK    8  A    between atoms: C_11  and  N_12
REMARK    9  A    between atoms: C_17  and  C_19
REMARK   10  A    between atoms: C_24  and  C_26
REMARK   11  A    between atoms: C_35  and  C_36
REMARK   12  A    between atoms: C_36  and  C_37
REMARK   13  A    between atoms: C_40  and  O_41
REMARK   14  A    between atoms: C_47  and  C_48
REMARK   15  A    between atoms: C_48  and  C_49
REMARK   16  A    between atoms: C_58  and  C_59
REMARK   17  A    between atoms: C_59  and  C_60
REMARK   18  A    between atoms: C_69  and  C_70
REMARK   19  A    between atoms: C_70  and  C_71
REMARK                            x       y       z     vdW  Elec       q    Type
REMARK                         _______ _______ _______ _____ _____    ______ ____
ROOT
ATOM      1  C   UNL     1      -3.355   2.835 132.873  0.00  0.00    +0.000 C 
ATOM      2  C   UNL     1      -3.585   0.358 132.022  0.00  0.00    +0.000 C 
ATOM      3  S   UNL     1      -4.698  -2.137 131.893  0.00  0.00    +0.000 S 
ATOM      4  S   UNL     1      -5.822  -4.671 132.373  0.00  0.00    +0.000 S 
ATOM      5  C   UNL     1      -6.498  -5.172 134.195  0.00  0.00    +0.000 C 
ATOM      6  C   UNL     1      -6.347  -6.248 135.258  0.00  0.00    +0.000 C 
ATOM      7  C   UNL     1      -6.465  -5.812 136.738  0.00  0.00    +0.000 C 
ATOM      8  O   UNL     1      -6.526  -6.659 137.632  0.00  0.00    +0.000 OA
ATOM      9  N   UNL     1      -6.450  -4.475 137.042  0.00  0.00    +0.000 N 
ATOM     10  C   UNL     1      -6.402  -3.393 136.089  0.00  0.00    +0.000 C 
ATOM     11  C   UNL     1      -4.882  -3.486 135.394  0.00  0.00    +0.000 C 
ATOM     12  O   UNL     1      -4.327  -4.484 134.867  0.00  0.00    +0.000 OA
ATOM     13  N   UNL     1      -4.238  -2.380 135.226  0.00  0.00    +0.000 N 
ATOM     14  C   UNL     1      -4.490  -1.191 135.941  0.00  0.00    +0.000 C 
ATOM     15  C   UNL     1      -5.986  -0.433 135.244  0.00  0.00    +0.000 C 
ATOM     16  O   UNL     1      -7.007  -1.044 134.856  0.00  0.00    +0.000 OA
ATOM     17  N   UNL     1      -6.130   0.888 135.262  0.00  0.00    +0.000 N 
ATOM     18  C   UNL     1      -5.029   1.698 135.170  0.00  0.00    +0.000 C 
ATOM     19  C   UNL     1      -4.562   1.890 136.551  0.00  0.00    +0.000 C 
ATOM     20  O   UNL     1      -4.147   1.066 137.369  0.00  0.00    +0.000 OA
ATOM     21  N   UNL     1      -4.274   3.133 136.755  0.00  0.00    +0.000 N 
ATOM     22  C   UNL     1      -4.550   4.218 135.838  0.00  0.00    +0.000 C 
ATOM     23  C   UNL     1      -3.380   3.361 134.739  0.00  0.00    +0.000 C 
ATOM     24  O   UNL     1      -3.458   2.315 134.391  0.00  0.00    +0.000 OA
ATOM     25  N   UNL     1      -2.688   4.364 133.460  0.00  0.00    +0.000 N 
ATOM     26  H   UNL     1      -6.576  -4.160 138.015  0.00  0.00    +0.000 HD
ATOM     27  H   UNL     1      -3.391  -2.518 134.713  0.00  0.00    +0.000 HD
ATOM     28  H   UNL     1      -6.743   1.140 134.500  0.00  0.00    +0.000 HD
ATOM     29  H   UNL     1      -3.529   3.269 137.424  0.00  0.00    +0.000 HD
ATOM     30  H   UNL     1      -1.826   5.242 133.253  0.00  0.00    +0.000 HD
ENDROOT
BRANCH   1  36
ATOM     31  C   UNL     1      -3.032   8.128 133.333  0.00  0.00    +0.000 C 
ATOM     32  C   UNL     1      -1.767   8.773 132.584  0.00  0.00    +0.000 C 
ATOM     33  C   UNL     1      -1.472   9.981 133.328  0.00  0.00    +0.000 C 
ATOM     34  C   UNL     1      -2.009   8.951 134.892  0.00  0.00    +0.000 C 
ATOM     35  N   UNL     1      -2.901   6.998 134.657  0.00  0.00    +0.000 N 
ATOM     36  C   UNL     1      -3.031   4.848 134.264  0.00  0.00    +0.000 C 
ATOM     37  O   UNL     1      -2.811   5.689 135.571  0.00  0.00    +0.000 OA
BRANCH  31  39
ATOM     38  N   UNL     1      -3.464   6.075 132.034  0.00  0.00    +0.000 N 
ATOM     39  C   UNL     1      -3.472   6.978 132.868  0.00  0.00    +0.000 C 
ATOM     40  O   UNL     1      -4.302   6.734 133.599  0.00  0.00    +0.000 OA
ATOM     41  H   UNL     1      -2.625   6.195 131.659  0.00  0.00    +0.000 HD
BRANCH  38  42
ATOM     42  C   UNL     1      -4.202   4.870 131.658  0.00  0.00    +0.000 C 
BRANCH  42  44
ATOM     43  N   UNL     1      -2.711   5.565 129.627  0.00  0.00    +0.000 N 
ATOM     44  C   UNL     1      -3.520   4.317 130.464  0.00  0.00    +0.000 C 
ATOM     45  O   UNL     1      -4.314   3.453 130.029  0.00  0.00    +0.000 OA
ATOM     46  H   UNL     1      -2.982   6.569 129.946  0.00  0.00    +0.000 HD
BRANCH  43  47
ATOM     47  C   UNL     1      -2.667   5.734 127.732  0.00  0.00    +0.000 C 
BRANCH  47  49
ATOM     48  N   UNL     1      -2.819   3.796 126.271  0.00  0.00    +0.000 N 
ATOM     49  C   UNL     1      -3.547   4.898 126.937  0.00  0.00    +0.000 C 
ATOM     50  O   UNL     1      -5.134   5.313 127.223  0.00  0.00    +0.000 OA
ATOM     51  H   UNL     1      -3.106   3.694 125.268  0.00  0.00    +0.000 HD
ATOM     52  H   UNL     1      -1.844   3.563 126.386  0.00  0.00    +0.000 HD
ENDBRANCH  47  49
ENDBRANCH  43  47
ENDBRANCH  42  44
BRANCH  42  53
ATOM     53  C   UNL     1      -5.328   4.931 130.865  0.00  0.00    +0.000 C 
BRANCH  53  54
ATOM     54  C   UNL     1      -5.748   6.320 131.024  0.00  0.00    +0.000 C 
BRANCH  54  55
ATOM     55  C   UNL     1      -7.177   6.304 131.399  0.00  0.00    +0.000 C 
BRANCH  55  56
ATOM     56  N   UNL     1      -7.961   6.970 130.360  0.00  0.00    +0.000 NA
ATOM     57  C   UNL     1      -9.252   7.001 130.491  0.00  0.00    +0.000 C 
ATOM     58  N   UNL     1      -9.907   6.438 131.566  0.00  0.00    +0.000 N 
ATOM     59  N   UNL     1     -10.018   7.627 129.517  0.00  0.00    +0.000 N 
ATOM     60  H   UNL     1      -9.392   5.961 132.316  0.00  0.00    +0.000 HD
ATOM     61  H   UNL     1     -10.907   6.441 131.704  0.00  0.00    +0.000 HD
ATOM     62  H   UNL     1      -9.589   8.068 128.690  0.00  0.00    +0.000 HD
ATOM     63  H   UNL     1     -11.028   7.704 129.531  0.00  0.00    +0.000 HD
ENDBRANCH  55  56
ENDBRANCH  54  55
ENDBRANCH  53  54
ENDBRANCH  42  53
ENDBRANCH  38  42
ENDBRANCH  31  39
ENDBRANCH   1  36
BRANCH  10  64
ATOM     64  C   UNL     1      -6.619  -2.214 136.901  0.00  0.00    +0.000 C 
BRANCH  64  65
ATOM     65  C   UNL     1      -7.657  -2.131 137.878  0.00  0.00    +0.000 A 
ATOM     66  C   UNL     1      -7.307  -1.445 138.998  0.00  0.00    +0.000 A 
ATOM     67  C   UNL     1      -8.214  -1.179 139.973  0.00  0.00    +0.000 A 
ATOM     68  C   UNL     1      -9.501  -1.628 139.813  0.00  0.00    +0.000 A 
ATOM     69  C   UNL     1      -9.852  -2.368 138.700  0.00  0.00    +0.000 A 
ATOM     70  C   UNL     1      -8.929  -2.623 137.717  0.00  0.00    +0.000 A 
BRANCH  68  71
ATOM     71  O   UNL     1     -10.492  -1.402 140.712  0.00  0.00    +0.000 OA
ATOM     72  H   UNL     1     -10.586  -2.084 141.395  0.00  0.00    +0.000 HD
ENDBRANCH  68  71
ENDBRANCH  64  65
ENDBRANCH  10  64
BRANCH  14  73
ATOM     73  C   UNL     1      -3.270  -0.462 135.764  0.00  0.00    +0.000 C 
BRANCH  73  74
ATOM     74  C   UNL     1      -2.034  -1.003 135.448  0.00  0.00    +0.000 A 
ATOM     75  C   UNL     1      -1.434  -1.521 136.530  0.00  0.00    +0.000 A 
ATOM     76  C   UNL     1      -0.128  -1.792 136.405  0.00  0.00    +0.000 A 
ATOM     77  C   UNL     1       0.459  -1.905 135.180  0.00  0.00    +0.000 A 
ATOM     78  C   UNL     1      -0.223  -1.463 134.086  0.00  0.00    +0.000 A 
ATOM     79  C   UNL     1      -1.497  -1.025 134.206  0.00  0.00    +0.000 A 
ENDBRANCH  73  74
ENDBRANCH  14  73
BRANCH  18  80
ATOM     80  C   UNL     1      -5.381   2.755 134.004  0.00  0.00    +0.000 C 
BRANCH  80  81
ATOM     81  C   UNL     1      -6.536   3.269 133.222  0.00  0.00    +0.000 C 
ATOM     82  C   UNL     1      -6.969   2.094 132.722  0.00  0.00    +0.000 C 
ATOM     83  C   UNL     1      -8.202   1.892 131.630  0.00  0.00    +0.000 C 
ATOM     84  C   UNL     1      -9.108   1.965 132.637  0.00  0.00    +0.000 C 
ATOM     85  C   UNL     1      -8.872   3.239 133.403  0.00  0.00    +0.000 C 
ATOM     86  C   UNL     1      -7.573   3.333 134.129  0.00  0.00    +0.000 C 
ENDBRANCH  80  81
ENDBRANCH  18  80
BRANCH  22  87
ATOM     87  C   UNL     1      -4.439   5.581 136.463  0.00  0.00    +0.000 C 
BRANCH  87  88
ATOM     88  C   UNL     1      -5.486   5.937 137.311  0.00  0.00    +0.000 C 
ATOM     89  N   UNL     1      -6.162   6.964 136.771  0.00  0.00    +0.000 N 
ATOM     90  O   UNL     1      -5.735   5.382 138.354  0.00  0.00    +0.000 OA
ATOM     91  H   UNL     1      -5.996   7.324 135.828  0.00  0.00    +0.000 HD
ATOM     92  H   UNL     1      -6.872   7.382 137.299  0.00  0.00    +0.000 HD
ENDBRANCH  87  88
ENDBRANCH  22  87
TORSDOF 19
ENDMDL
MODEL 4
REMARK VINA RESULT:      -8.5      3.003      9.327
REMARK  Name = CHEMBL265858
REMARK  19 active torsions:
REMARK  status: ('A' for Active; 'I' for Inactive)
REMARK    1  A    between atoms: C_2  and  C_4
REMARK    2  A    between atoms: C_4  and  N_5
REMARK    3  A    between atoms: C_6  and  C_8
REMARK    4  A    between atoms: C_8  and  C_9
REMARK    5  A    between atoms: C_8  and  N_16
REMARK    6  A    between atoms: C_9  and  C_10
REMARK    7  A    between atoms: C_10  and  C_11
REMARK    8  A    between atoms: C_11  and  N_12
REMARK    9  A    between atoms: C_17  and  C_19
REMARK   10  A    between atoms: C_24  and  C_26
REMARK   11  A    between atoms: C_35  and  C_36
REMARK   12  A    between atoms: C_36  and  C_37
REMARK   13  A    between atoms: C_40  and  O_41
REMARK   14  A    between atoms: C_47  and  C_48
REMARK   15  A    between atoms: C_48  and  C_49
REMARK   16  A    between atoms: C_58  and  C_59
REMARK   17  A    between atoms: C_59  and  C_60
REMARK   18  A    between atoms: C_69  and  C_70
REMARK   19  A    between atoms: C_70  and  C_71
REMARK                            x       y       z     vdW  Elec       q    Type
REMARK                         _______ _______ _______ _____ _____    ______ ____
ROOT
ATOM      1  C   UNL     1      -7.531   1.306 130.962  0.00  0.00    +0.000 C 
ATOM      2  C   UNL     1      -8.180  -1.026 131.989  0.00  0.00    +0.000 C 
ATOM      3  S   UNL     1      -8.239  -2.971 133.913  0.00  0.00    +0.000 S 
ATOM      4  S   UNL     1      -7.695  -4.865 135.919  0.00  0.00    +0.000 S 
ATOM      5  C   UNL     1      -5.948  -4.850 136.907  0.00  0.00    +0.000 C 
ATOM      6  C   UNL     1      -4.782  -5.758 137.262  0.00  0.00    +0.000 C 
ATOM      7  C   UNL     1      -3.378  -5.115 137.358  0.00  0.00    +0.000 C 
ATOM      8  O   UNL     1      -2.430  -5.760 137.811  0.00  0.00    +0.000 OA
ATOM      9  N   UNL     1      -3.197  -3.839 136.890  0.00  0.00    +0.000 N 
ATOM     10  C   UNL     1      -4.227  -2.980 136.360  0.00  0.00    +0.000 C 
ATOM     11  C   UNL     1      -4.691  -3.688 134.916  0.00  0.00    +0.000 C 
ATOM     12  O   UNL     1      -5.043  -4.878 134.711  0.00  0.00    +0.000 OA
ATOM     13  N   UNL     1      -4.866  -2.910 133.902  0.00  0.00    +0.000 N 
ATOM     14  C   UNL     1      -4.303  -1.623 133.775  0.00  0.00    +0.000 C 
ATOM     15  C   UNL     1      -5.268  -0.492 134.819  0.00  0.00    +0.000 C 
ATOM     16  O   UNL     1      -5.738  -0.755 135.948  0.00  0.00    +0.000 OA
ATOM     17  N   UNL     1      -5.389   0.786 134.476  0.00  0.00    +0.000 N 
ATOM     18  C   UNL     1      -5.398   1.142 133.152  0.00  0.00    +0.000 C 
ATOM     19  C   UNL     1      -3.988   1.343 132.786  0.00  0.00    +0.000 C 
ATOM     20  O   UNL     1      -3.050   0.543 132.780  0.00  0.00    +0.000 OA
ATOM     21  N   UNL     1      -3.859   2.423 132.089  0.00  0.00    +0.000 N 
ATOM     22  C   UNL     1      -4.899   3.402 131.861  0.00  0.00    +0.000 C 
ATOM     23  C   UNL     1      -5.742   2.052 130.978  0.00  0.00    +0.000 C 
ATOM     24  O   UNL     1      -6.002   1.062 131.396  0.00  0.00    +0.000 OA
ATOM     25  N   UNL     1      -6.996   2.570 129.848  0.00  0.00    +0.000 N 
ATOM     26  H   UNL     1      -2.284  -3.372 136.989  0.00  0.00    +0.000 HD
ATOM     27  H   UNL     1      -5.241  -3.402 133.117  0.00  0.00    +0.000 HD
ATOM     28  H   UNL     1      -6.249   1.132 134.877  0.00  0.00    +0.000 HD
ATOM     29  H   UNL     1      -3.107   2.378 131.415  0.00  0.00    +0.000 HD
ATOM     30  H   UNL     1      -7.159   3.057 128.710  0.00  0.00    +0.000 HD
ENDROOT
BRANCH   1  36
ATOM     31  C   UNL     1      -4.321   3.447 127.297  0.00  0.00    +0.000 C 
ATOM     32  C   UNL     1      -2.833   2.844 127.299  0.00  0.00    +0.000 C 
ATOM     33  C   UNL     1      -1.998   3.914 126.791  0.00  0.00    +0.000 C 
ATOM     34  C   UNL     1      -3.212   5.094 127.756  0.00  0.00    +0.000 C 
ATOM     35  N   UNL     1      -5.018   4.310 128.645  0.00  0.00    +0.000 N 
ATOM     36  C   UNL     1      -6.295   3.246 130.069  0.00  0.00    +0.000 C 
ATOM     37  O   UNL     1      -5.799   4.732 129.973  0.00  0.00    +0.000 OA
BRANCH  31  39
ATOM     38  N   UNL     1      -5.685   1.583 128.163  0.00  0.00    +0.000 N 
ATOM     39  C   UNL     1      -5.275   2.670 127.765  0.00  0.00    +0.000 C 
ATOM     40  O   UNL     1      -6.168   3.365 127.751  0.00  0.00    +0.000 OA
ATOM     41  H   UNL     1      -4.887   1.175 128.401  0.00  0.00    +0.000 HD
BRANCH  38  42
ATOM     42  C   UNL     1      -6.925   0.905 128.541  0.00  0.00    +0.000 C 
BRANCH  42  44
ATOM     43  N   UNL     1      -5.341  -0.902 127.512  0.00  0.00    +0.000 N 
ATOM     44  C   UNL     1      -6.611  -0.543 128.594  0.00  0.00    +0.000 C 
ATOM     45  O   UNL     1      -7.728  -1.094 128.720  0.00  0.00    +0.000 OA
ATOM     46  H   UNL     1      -5.107  -0.102 126.812  0.00  0.00    +0.000 HD
BRANCH  43  47
ATOM     47  C   UNL     1      -5.279  -2.448 126.404  0.00  0.00    +0.000 C 
BRANCH  47  49
ATOM     48  N   UNL     1      -5.159  -3.464 124.198  0.00  0.00    +0.000 N 
ATOM     49  C   UNL     1      -5.629  -2.314 125.002  0.00  0.00    +0.000 C 
ATOM     50  O   UNL     1      -6.653  -1.018 124.793  0.00  0.00    +0.000 OA
ATOM     51  H   UNL     1      -4.707  -3.152 123.305  0.00  0.00    +0.000 HD
ATOM     52  H   UNL     1      -4.716  -4.300 124.546  0.00  0.00    +0.000 HD
ENDBRANCH  47  49
ENDBRANCH  43  47
ENDBRANCH  42  44
BRANCH  42  53
ATOM     53  C   UNL     1      -7.877   0.565 127.604  0.00  0.00    +0.000 C 
BRANCH  53  54
ATOM     54  C   UNL     1      -8.538   1.842 127.352  0.00  0.00    +0.000 C 
BRANCH  54  55
ATOM     55  C   UNL     1      -8.915   1.864 125.923  0.00  0.00    +0.000 C 
BRANCH  55  56
ATOM     56  N   UNL     1      -8.490   3.130 125.327  0.00  0.00    +0.000 NA
ATOM     57  C   UNL     1      -7.415   3.134 124.600  0.00  0.00    +0.000 C 
ATOM     58  N   UNL     1      -6.666   2.000 124.367  0.00  0.00    +0.000 N 
ATOM     59  N   UNL     1      -6.990   4.324 124.024  0.00  0.00    +0.000 N 
ATOM     60  H   UNL     1      -6.931   1.093 124.769  0.00  0.00    +0.000 HD
ATOM     61  H   UNL     1      -5.825   1.962 123.809  0.00  0.00    +0.000 HD
ATOM     62  H   UNL     1      -7.507   5.206 124.159  0.00  0.00    +0.000 HD
ATOM     63  H   UNL     1      -6.168   4.428 123.442  0.00  0.00    +0.000 HD
ENDBRANCH  55  56
ENDBRANCH  54  55
ENDBRANCH  53  54
ENDBRANCH  42  53
ENDBRANCH  38  42
ENDBRANCH  31  39
ENDBRANCH   1  36
BRANCH  10  64
ATOM     64  C   UNL     1      -3.563  -1.701 136.214  0.00  0.00    +0.000 C 
BRANCH  64  65
ATOM     65  C   UNL     1      -2.246  -1.456 136.707  0.00  0.00    +0.000 A 
ATOM     66  C   UNL     1      -2.215  -0.863 137.929  0.00  0.00    +0.000 A 
ATOM     67  C   UNL     1      -1.042  -0.666 138.587  0.00  0.00    +0.000 A 
ATOM     68  C   UNL     1       0.124  -1.067 137.985  0.00  0.00    +0.000 A 
ATOM     69  C   UNL     1       0.104  -1.626 136.721  0.00  0.00    +0.000 A 
ATOM     70  C   UNL     1      -1.087  -1.829 136.070  0.00  0.00    +0.000 A 
BRANCH  68  71
ATOM     71  O   UNL     1       1.347  -0.939 138.558  0.00  0.00    +0.000 OA
ATOM     72  H   UNL     1       2.076  -0.794 137.935  0.00  0.00    +0.000 HD
ENDBRANCH  68  71
ENDBRANCH  64  65
ENDBRANCH  10  64
BRANCH  14  73
ATOM     73  C   UNL     1      -4.373  -1.396 132.363  0.00  0.00    +0.000 C 
BRANCH  73  74
ATOM     74  C   UNL     1      -4.249  -2.359 131.374  0.00  0.00    +0.000 A 
ATOM     75  C   UNL     1      -3.071  -2.261 130.740  0.00  0.00    +0.000 A 
ATOM     76  C   UNL     1      -2.969  -2.931 129.584  0.00  0.00    +0.000 A 
ATOM     77  C   UNL     1      -3.834  -3.937 129.267  0.00  0.00    +0.000 A 
ATOM     78  C   UNL     1      -4.975  -4.070 130.001  0.00  0.00    +0.000 A 
ATOM     79  C   UNL     1      -5.186  -3.291 131.086  0.00  0.00    +0.000 A 
ENDBRANCH  73  74
ENDBRANCH  14  73
BRANCH  18  80
ATOM     80  C   UNL     1      -6.692   2.089 132.981  0.00  0.00    +0.000 C 
BRANCH  80  81
ATOM     81  C   UNL     1      -7.745   2.762 133.786  0.00  0.00    +0.000 C 
ATOM     82  C   UNL     1      -7.019   3.817 134.209  0.00  0.00    +0.000 C 
ATOM     83  C   UNL     1      -7.520   4.983 135.278  0.00  0.00    +0.000 C 
ATOM     84  C   UNL     1      -8.154   5.635 134.272  0.00  0.00    +0.000 C 
ATOM     85  C   UNL     1      -9.088   4.672 133.589  0.00  0.00    +0.000 C 
ATOM     86  C   UNL     1      -8.443   3.531 132.879  0.00  0.00    +0.000 C 
ENDBRANCH  80  81
ENDBRANCH  18  80
BRANCH  22  87
ATOM     87  C   UNL     1      -4.390   4.711 131.326  0.00  0.00    +0.000 C 
BRANCH  87  88
ATOM     88  C   UNL     1      -3.852   5.578 132.276  0.00  0.00    +0.000 C 
ATOM     89  N   UNL     1      -4.221   6.836 131.986  0.00  0.00    +0.000 N 
ATOM     90  O   UNL     1      -3.177   5.224 133.213  0.00  0.00    +0.000 OA
ATOM     91  H   UNL     1      -4.896   7.079 131.257  0.00  0.00    +0.000 HD
ATOM     92  H   UNL     1      -3.842   7.565 132.517  0.00  0.00    +0.000 HD
ENDBRANCH  87  88
ENDBRANCH  22  87
TORSDOF 19
ENDMDL
MODEL 5
REMARK VINA RESULT:      -8.4      3.014      9.268
REMARK  Name = CHEMBL265858
REMARK  19 active torsions:
REMARK  status: ('A' for Active; 'I' for Inactive)
REMARK    1  A    between atoms: C_2  and  C_4
REMARK    2  A    between atoms: C_4  and  N_5
REMARK    3  A    between atoms: C_6  and  C_8
REMARK    4  A    between atoms: C_8  and  C_9
REMARK    5  A    between atoms: C_8  and  N_16
REMARK    6  A    between atoms: C_9  and  C_10
REMARK    7  A    between atoms: C_10  and  C_11
REMARK    8  A    between atoms: C_11  and  N_12
REMARK    9  A    between atoms: C_17  and  C_19
REMARK   10  A    between atoms: C_24  and  C_26
REMARK   11  A    between atoms: C_35  and  C_36
REMARK   12  A    between atoms: C_36  and  C_37
REMARK   13  A    between atoms: C_40  and  O_41
REMARK   14  A    between atoms: C_47  and  C_48
REMARK   15  A    between atoms: C_48  and  C_49
REMARK   16  A    between atoms: C_58  and  C_59
REMARK   17  A    between atoms: C_59  and  C_60
REMARK   18  A    between atoms: C_69  and  C_70
REMARK   19  A    between atoms: C_70  and  C_71
REMARK                            x       y       z     vdW  Elec       q    Type
REMARK                         _______ _______ _______ _____ _____    ______ ____
ROOT
ATOM      1  C   UNL     1      -7.240   1.546 131.566  0.00  0.00    +0.000 C 
ATOM      2  C   UNL     1      -8.054  -0.781 132.478  0.00  0.00    +0.000 C 
ATOM      3  S   UNL     1      -8.158  -2.864 134.250  0.00  0.00    +0.000 S 
ATOM      4  S   UNL     1      -7.651  -4.967 136.047  0.00  0.00    +0.000 S 
ATOM      5  C   UNL     1      -5.830  -5.223 136.851  0.00  0.00    +0.000 C 
ATOM      6  C   UNL     1      -4.748  -6.277 137.019  0.00  0.00    +0.000 C 
ATOM      7  C   UNL     1      -3.277  -5.797 137.020  0.00  0.00    +0.000 C 
ATOM      8  O   UNL     1      -2.371  -6.576 137.325  0.00  0.00    +0.000 OA
ATOM      9  N   UNL     1      -2.995  -4.514 136.631  0.00  0.00    +0.000 N 
ATOM     10  C   UNL     1      -3.964  -3.507 136.272  0.00  0.00    +0.000 C 
ATOM     11  C   UNL     1      -4.638  -4.038 134.835  0.00  0.00    +0.000 C 
ATOM     12  O   UNL     1      -5.141  -5.162 134.579  0.00  0.00    +0.000 OA
ATOM     13  N   UNL     1      -4.815  -3.163 133.903  0.00  0.00    +0.000 N 
ATOM     14  C   UNL     1      -4.123  -1.937 133.815  0.00  0.00    +0.000 C 
ATOM     15  C   UNL     1      -4.852  -0.801 135.031  0.00  0.00    +0.000 C 
ATOM     16  O   UNL     1      -5.242  -1.107 136.180  0.00  0.00    +0.000 OA
ATOM     17  N   UNL     1      -4.856   0.506 134.797  0.00  0.00    +0.000 N 
ATOM     18  C   UNL     1      -4.947   0.971 133.511  0.00  0.00    +0.000 C 
ATOM     19  C   UNL     1      -3.563   1.051 133.019  0.00  0.00    +0.000 C 
ATOM     20  O   UNL     1      -2.727   0.159 132.860  0.00  0.00    +0.000 OA
ATOM     21  N   UNL     1      -3.376   2.166 132.394  0.00  0.00    +0.000 N 
ATOM     22  C   UNL     1      -4.313   3.266 132.345  0.00  0.00    +0.000 C 
ATOM     23  C   UNL     1      -5.384   2.093 131.455  0.00  0.00    +0.000 C 
ATOM     24  O   UNL     1      -5.716   1.105 131.823  0.00  0.00    +0.000 OA
ATOM     25  N   UNL     1      -6.669   2.835 130.499  0.00  0.00    +0.000 N 
ATOM     26  H   UNL     1      -2.029  -4.157 136.671  0.00  0.00    +0.000 HD
ATOM     27  H   UNL     1      -5.315  -3.544 133.126  0.00  0.00    +0.000 HD
ATOM     28  H   UNL     1      -5.631   0.907 135.307  0.00  0.00    +0.000 HD
ATOM     29  H   UNL     1      -2.699   2.098 131.647  0.00  0.00    +0.000 HD
ATOM     30  H   UNL     1      -6.879   3.431 129.422  0.00  0.00    +0.000 HD
ENDROOT
BRANCH   1  36
ATOM     31  C   UNL     1      -4.525   3.824 127.595  0.00  0.00    +0.000 C 
ATOM     32  C   UNL     1      -3.210   3.016 127.155  0.00  0.00    +0.000 C 
ATOM     33  C   UNL     1      -2.315   4.025 126.625  0.00  0.00    +0.000 C 
ATOM     34  C   UNL     1      -3.057   5.174 128.013  0.00  0.00    +0.000 C 
ATOM     35  N   UNL     1      -4.751   4.518 129.181  0.00  0.00    +0.000 N 
ATOM     36  C   UNL     1      -5.878   3.412 130.697  0.00  0.00    +0.000 C 
ATOM     37  O   UNL     1      -5.143   4.799 130.704  0.00  0.00    +0.000 OA
BRANCH  31  39
ATOM     38  N   UNL     1      -6.677   2.894 128.362  0.00  0.00    +0.000 N 
ATOM     39  C   UNL     1      -5.488   3.125 128.158  0.00  0.00    +0.000 C 
ATOM     40  O   UNL     1      -4.904   2.400 128.801  0.00  0.00    +0.000 OA
ATOM     41  H   UNL     1      -7.063   3.312 127.630  0.00  0.00    +0.000 HD
BRANCH  38  42
ATOM     42  C   UNL     1      -7.546   2.062 129.195  0.00  0.00    +0.000 C 
BRANCH  42  44
ATOM     43  N   UNL     1      -6.304  -0.192 128.734  0.00  0.00    +0.000 N 
ATOM     44  C   UNL     1      -7.692   0.768 128.485  0.00  0.00    +0.000 C 
ATOM     45  O   UNL     1      -8.269   1.070 127.415  0.00  0.00    +0.000 OA
ATOM     46  H   UNL     1      -5.461   0.341 129.169  0.00  0.00    +0.000 HD
BRANCH  43  47
ATOM     47  C   UNL     1      -5.472  -1.247 127.387  0.00  0.00    +0.000 C 
BRANCH  47  49
ATOM     48  N   UNL     1      -5.673  -2.483 125.302  0.00  0.00    +0.000 N 
ATOM     49  C   UNL     1      -6.294  -2.151 126.604  0.00  0.00    +0.000 C 
ATOM     50  O   UNL     1      -7.562  -2.708 127.527  0.00  0.00    +0.000 OA
ATOM     51  H   UNL     1      -6.367  -2.429 124.519  0.00  0.00    +0.000 HD
ATOM     52  H   UNL     1      -4.758  -2.204 124.984  0.00  0.00    +0.000 HD
ENDBRANCH  47  49
ENDBRANCH  43  47
ENDBRANCH  42  44
BRANCH  42  53
ATOM     53  C   UNL     1      -8.920   2.148 129.116  0.00  0.00    +0.000 C 
BRANCH  53  54
ATOM     54  C   UNL     1      -9.154   3.578 129.292  0.00  0.00    +0.000 C 
BRANCH  54  55
ATOM     55  C   UNL     1     -10.183   3.726 130.342  0.00  0.00    +0.000 C 
BRANCH  55  56
ATOM     56  N   UNL     1     -11.136   4.763 129.946  0.00  0.00    +0.000 NA
ATOM     57  C   UNL     1     -11.459   5.665 130.823  0.00  0.00    +0.000 C 
ATOM     58  N   UNL     1     -10.941   5.684 132.100  0.00  0.00    +0.000 N 
ATOM     59  N   UNL     1     -12.362   6.659 130.471  0.00  0.00    +0.000 N 
ATOM     60  H   UNL     1     -10.271   4.973 132.416  0.00  0.00    +0.000 HD
ATOM     61  H   UNL     1     -11.167   6.366 132.809  0.00  0.00    +0.000 HD
ATOM     62  H   UNL     1     -12.785   6.700 129.531  0.00  0.00    +0.000 HD
ATOM     63  H   UNL     1     -12.675   7.403 131.083  0.00  0.00    +0.000 HD
ENDBRANCH  55  56
ENDBRANCH  54  55
ENDBRANCH  53  54
ENDBRANCH  42  53
ENDBRANCH  38  42
ENDBRANCH  31  39
ENDBRANCH   1  36
BRANCH  10  64
ATOM     64  C   UNL     1      -3.175  -2.299 136.154  0.00  0.00    +0.000 C 
BRANCH  64  65
ATOM     65  C   UNL     1      -2.015  -2.056 136.950  0.00  0.00    +0.000 A 
ATOM     66  C   UNL     1      -0.855  -2.033 136.243  0.00  0.00    +0.000 A 
ATOM     67  C   UNL     1       0.323  -1.701 136.832  0.00  0.00    +0.000 A 
ATOM     68  C   UNL     1       0.325  -1.398 138.171  0.00  0.00    +0.000 A 
ATOM     69  C   UNL     1      -0.842  -1.467 138.907  0.00  0.00    +0.000 A 
ATOM     70  C   UNL     1      -2.028  -1.794 138.299  0.00  0.00    +0.000 A 
BRANCH  68  71
ATOM     71  O   UNL     1       1.438  -1.034 138.856  0.00  0.00    +0.000 OA
ATOM     72  H   UNL     1       1.886  -0.243 138.516  0.00  0.00    +0.000 HD
ENDBRANCH  68  71
ENDBRANCH  64  65
ENDBRANCH  10  64
BRANCH  14  73
ATOM     73  C   UNL     1      -4.296  -1.586 132.437  0.00  0.00    +0.000 C 
BRANCH  73  74
ATOM     74  C   UNL     1      -4.232  -2.454 131.359  0.00  0.00    +0.000 A 
ATOM     75  C   UNL     1      -3.030  -2.408 130.764  0.00  0.00    +0.000 A 
ATOM     76  C   UNL     1      -2.955  -2.967 129.549  0.00  0.00    +0.000 A 
ATOM     77  C   UNL     1      -3.899  -3.849 129.113  0.00  0.00    +0.000 A 
ATOM     78  C   UNL     1      -5.070  -3.943 129.803  0.00  0.00    +0.000 A 
ATOM     79  C   UNL     1      -5.242  -3.258 130.957  0.00  0.00    +0.000 A 
ENDBRANCH  73  74
ENDBRANCH  14  73
BRANCH  18  80
ATOM     80  C   UNL     1      -6.135   2.062 133.541  0.00  0.00    +0.000 C 
BRANCH  80  81
ATOM     81  C   UNL     1      -7.041   2.756 134.493  0.00  0.00    +0.000 C 
ATOM     82  C   UNL     1      -6.225   3.774 134.830  0.00  0.00    +0.000 C 
ATOM     83  C   UNL     1      -6.530   4.934 135.976  0.00  0.00    +0.000 C 
ATOM     84  C   UNL     1      -7.270   5.630 135.077  0.00  0.00    +0.000 C 
ATOM     85  C   UNL     1      -8.324   4.716 134.513  0.00  0.00    +0.000 C 
ATOM     86  C   UNL     1      -7.826   3.567 133.703  0.00  0.00    +0.000 C 
ENDBRANCH  80  81
ENDBRANCH  18  80
BRANCH  22  87
ATOM     87  C   UNL     1      -3.709   4.554 131.859  0.00  0.00    +0.000 C 
BRANCH  87  88
ATOM     88  C   UNL     1      -2.439   4.843 132.353  0.00  0.00    +0.000 C 
ATOM     89  N   UNL     1      -1.795   5.636 131.482  0.00  0.00    +0.000 N 
ATOM     90  O   UNL     1      -2.014   4.444 133.411  0.00  0.00    +0.000 OA
ATOM     91  H   UNL     1      -2.234   6.053 130.658  0.00  0.00    +0.000 HD
ATOM     92  H   UNL     1      -0.855   5.849 131.654  0.00  0.00    +0.000 HD
ENDBRANCH  87  88
ENDBRANCH  22  87
TORSDOF 19
ENDMDL
MODEL 6
REMARK VINA RESULT:      -8.3      4.215      9.909
REMARK  Name = CHEMBL265858
REMARK  19 active torsions:
REMARK  status: ('A' for Active; 'I' for Inactive)
REMARK    1  A    between atoms: C_2  and  C_4
REMARK    2  A    between atoms: C_4  and  N_5
REMARK    3  A    between atoms: C_6  and  C_8
REMARK    4  A    between atoms: C_8  and  C_9
REMARK    5  A    between atoms: C_8  and  N_16
REMARK    6  A    between atoms: C_9  and  C_10
REMARK    7  A    between atoms: C_10  and  C_11
REMARK    8  A    between atoms: C_11  and  N_12
REMARK    9  A    between atoms: C_17  and  C_19
REMARK   10  A    between atoms: C_24  and  C_26
REMARK   11  A    between atoms: C_35  and  C_36
REMARK   12  A    between atoms: C_36  and  C_37
REMARK   13  A    between atoms: C_40  and  O_41
REMARK   14  A    between atoms: C_47  and  C_48
REMARK   15  A    between atoms: C_48  and  C_49
REMARK   16  A    between atoms: C_58  and  C_59
REMARK   17  A    between atoms: C_59  and  C_60
REMARK   18  A    between atoms: C_69  and  C_70
REMARK   19  A    between atoms: C_70  and  C_71
REMARK                            x       y       z     vdW  Elec       q    Type
REMARK                         _______ _______ _______ _____ _____    ______ ____
ROOT
ATOM      1  C   UNL     1      -5.780  -2.068 134.457  0.00  0.00    +0.000 C 
ATOM      2  C   UNL     1      -5.630  -1.001 132.059  0.00  0.00    +0.000 C 
ATOM      3  S   UNL     1      -4.621   0.657 130.130  0.00  0.00    +0.000 S 
ATOM      4  S   UNL     1      -3.624   2.787 128.587  0.00  0.00    +0.000 S 
ATOM      5  C   UNL     1      -3.032   4.499 129.450  0.00  0.00    +0.000 C 
ATOM      6  C   UNL     1      -3.264   5.999 129.384  0.00  0.00    +0.000 C 
ATOM      7  C   UNL     1      -3.178   6.795 130.709  0.00  0.00    +0.000 C 
ATOM      8  O   UNL     1      -3.182   8.028 130.693  0.00  0.00    +0.000 OA
ATOM      9  N   UNL     1      -3.145   6.110 131.896  0.00  0.00    +0.000 N 
ATOM     10  C   UNL     1      -3.114   4.676 132.043  0.00  0.00    +0.000 C 
ATOM     11  C   UNL     1      -4.613   4.148 131.517  0.00  0.00    +0.000 C 
ATOM     12  O   UNL     1      -5.192   4.408 130.432  0.00  0.00    +0.000 OA
ATOM     13  N   UNL     1      -5.203   3.240 132.220  0.00  0.00    +0.000 N 
ATOM     14  C   UNL     1      -4.924   2.971 133.576  0.00  0.00    +0.000 C 
ATOM     15  C   UNL     1      -3.373   2.027 133.645  0.00  0.00    +0.000 C 
ATOM     16  O   UNL     1      -2.367   2.212 132.924  0.00  0.00    +0.000 OA
ATOM     17  N   UNL     1      -3.173   1.153 134.625  0.00  0.00    +0.000 N 
ATOM     18  C   UNL     1      -4.235   0.477 135.167  0.00  0.00    +0.000 C 
ATOM     19  C   UNL     1      -4.739   1.334 136.251  0.00  0.00    +0.000 C 
ATOM     20  O   UNL     1      -5.216   2.469 136.205  0.00  0.00    +0.000 OA
ATOM     21  N   UNL     1      -4.979   0.625 137.304  0.00  0.00    +0.000 N 
ATOM     22  C   UNL     1      -4.626  -0.768 137.475  0.00  0.00    +0.000 C 
ATOM     23  C   UNL     1      -5.796  -1.056 136.110  0.00  0.00    +0.000 C 
ATOM     24  O   UNL     1      -5.751  -0.597 135.105  0.00  0.00    +0.000 OA
ATOM     25  N   UNL     1      -6.400  -2.710 135.983  0.00  0.00    +0.000 N 
ATOM     26  H   UNL     1      -3.038   6.616 132.787  0.00  0.00    +0.000 HD
ATOM     27  H   UNL     1      -6.037   2.912 131.777  0.00  0.00    +0.000 HD
ATOM     28  H   UNL     1      -2.525   0.456 134.287  0.00  0.00    +0.000 HD
ATOM     29  H   UNL     1      -5.739   0.984 137.865  0.00  0.00    +0.000 HD
ATOM     30  H   UNL     1      -7.216  -3.504 136.495  0.00  0.00    +0.000 HD
ENDROOT
BRANCH   1  36
ATOM     31  C   UNL     1      -6.095  -5.358 138.629  0.00  0.00    +0.000 C 
ATOM     32  C   UNL     1      -7.382  -6.316 138.610  0.00  0.00    +0.000 C 
ATOM     33  C   UNL     1      -7.655  -6.597 140.005  0.00  0.00    +0.000 C 
ATOM     34  C   UNL     1      -7.070  -4.766 140.318  0.00  0.00    +0.000 C 
ATOM     35  N   UNL     1      -6.183  -3.617 138.718  0.00  0.00    +0.000 N 
ATOM     36  C   UNL     1      -6.064  -2.431 136.881  0.00  0.00    +0.000 C 
ATOM     37  O   UNL     1      -6.244  -2.053 138.394  0.00  0.00    +0.000 OA
BRANCH  31  39
ATOM     38  N   UNL     1      -5.756  -4.835 136.242  0.00  0.00    +0.000 N 
ATOM     39  C   UNL     1      -5.667  -4.918 137.464  0.00  0.00    +0.000 C 
ATOM     40  O   UNL     1      -4.718  -4.374 137.755  0.00  0.00    +0.000 OA
ATOM     41  H   UNL     1      -6.650  -5.047 136.119  0.00  0.00    +0.000 HD
BRANCH  38  42
ATOM     42  C   UNL     1      -5.018  -4.340 135.080  0.00  0.00    +0.000 C 
BRANCH  42  44
ATOM     43  N   UNL     1      -4.835  -4.514 132.478  0.00  0.00    +0.000 N 
ATOM     44  C   UNL     1      -5.437  -5.178 133.930  0.00  0.00    +0.000 C 
ATOM     45  O   UNL     1      -6.601  -5.534 134.220  0.00  0.00    +0.000 OA
ATOM     46  H   UNL     1      -4.441  -3.504 132.574  0.00  0.00    +0.000 HD
BRANCH  43  47
ATOM     47  C   UNL     1      -5.819  -4.418 130.852  0.00  0.00    +0.000 C 
BRANCH  47  49
ATOM     48  N   UNL     1      -6.273  -2.892 129.014  0.00  0.00    +0.000 N 
ATOM     49  C   UNL     1      -5.252  -3.683 129.737  0.00  0.00    +0.000 C 
ATOM     50  O   UNL     1      -3.591  -3.786 129.776  0.00  0.00    +0.000 OA
ATOM     51  H   UNL     1      -6.178  -2.997 127.976  0.00  0.00    +0.000 HD
ATOM     52  H   UNL     1      -7.241  -2.780 129.273  0.00  0.00    +0.000 HD
ENDBRANCH  47  49
ENDBRANCH  43  47
ENDBRANCH  42  44
BRANCH  42  53
ATOM     53  C   UNL     1      -3.738  -4.770 134.801  0.00  0.00    +0.000 C 
BRANCH  53  54
ATOM     54  C   UNL     1      -3.811  -6.194 135.115  0.00  0.00    +0.000 C 
BRANCH  54  55
ATOM     55  C   UNL     1      -2.429  -6.660 135.352  0.00  0.00    +0.000 C 
BRANCH  55  56
ATOM     56  N   UNL     1      -1.963  -6.165 136.647  0.00  0.00    +0.000 NA
ATOM     57  C   UNL     1      -0.863  -5.477 136.681  0.00  0.00    +0.000 C 
ATOM     58  N   UNL     1      -0.123  -5.196 135.552  0.00  0.00    +0.000 N 
ATOM     59  N   UNL     1      -0.400  -4.997 137.899  0.00  0.00    +0.000 N 
ATOM     60  H   UNL     1      -0.416  -5.527 134.625  0.00  0.00    +0.000 HD
ATOM     61  H   UNL     1       0.737  -4.667 135.537  0.00  0.00    +0.000 HD
ATOM     62  H   UNL     1      -0.908  -5.172 138.779  0.00  0.00    +0.000 HD
ATOM     63  H   UNL     1       0.445  -4.453 138.026  0.00  0.00    +0.000 HD
ENDBRANCH  55  56
ENDBRANCH  54  55
ENDBRANCH  53  54
ENDBRANCH  42  53
ENDBRANCH  38  42
ENDBRANCH  31  39
ENDBRANCH   1  36
BRANCH  10  64
ATOM     64  C   UNL     1      -2.873   4.483 133.458  0.00  0.00    +0.000 C 
BRANCH  64  65
ATOM     65  C   UNL     1      -2.527   5.555 134.334  0.00  0.00    +0.000 A 
ATOM     66  C   UNL     1      -3.422   5.760 135.337  0.00  0.00    +0.000 A 
ATOM     67  C   UNL     1      -3.182   6.666 136.321  0.00  0.00    +0.000 A 
ATOM     68  C   UNL     1      -2.017   7.388 136.279  0.00  0.00    +0.000 A 
ATOM     69  C   UNL     1      -1.126   7.221 135.236  0.00  0.00    +0.000 A 
ATOM     70  C   UNL     1      -1.372   6.295 134.253  0.00  0.00    +0.000 A 
BRANCH  68  71
ATOM     71  O   UNL     1      -1.666   8.303 137.218  0.00  0.00    +0.000 OA
ATOM     72  H   UNL     1      -2.048   9.185 137.090  0.00  0.00    +0.000 HD
ENDBRANCH  68  71
ENDBRANCH  64  65
ENDBRANCH  10  64
BRANCH  14  73
ATOM     73  C   UNL     1      -6.104   2.282 134.001  0.00  0.00    +0.000 C 
BRANCH  73  74
ATOM     74  C   UNL     1      -7.401   2.556 133.597  0.00  0.00    +0.000 A 
ATOM     75  C   UNL     1      -7.843   3.710 134.119  0.00  0.00    +0.000 A 
ATOM     76  C   UNL     1      -9.164   3.920 134.045  0.00  0.00    +0.000 A 
ATOM     77  C   UNL     1      -9.947   3.220 133.175  0.00  0.00    +0.000 A 
ATOM     78  C   UNL     1      -9.429   2.108 132.581  0.00  0.00    +0.000 A 
ATOM     79  C   UNL     1      -8.131   1.774 132.769  0.00  0.00    +0.000 A 
ENDBRANCH  73  74
ENDBRANCH  14  73
BRANCH  18  80
ATOM     80  C   UNL     1      -3.799  -1.076 135.148  0.00  0.00    +0.000 C 
BRANCH  80  81
ATOM     81  C   UNL     1      -2.587  -1.935 135.198  0.00  0.00    +0.000 C 
ATOM     82  C   UNL     1      -1.817  -1.235 134.341  0.00  0.00    +0.000 C 
ATOM     83  C   UNL     1      -0.310  -1.670 133.801  0.00  0.00    +0.000 C 
ATOM     84  C   UNL     1       0.242  -1.171 134.935  0.00  0.00    +0.000 C 
ATOM     85  C   UNL     1      -0.436  -1.806 136.119  0.00  0.00    +0.000 C 
ATOM     86  C   UNL     1      -1.882  -1.484 136.293  0.00  0.00    +0.000 C 
ENDBRANCH  80  81
ENDBRANCH  18  80
BRANCH  22  87
ATOM     87  C   UNL     1      -4.699  -1.239 138.900  0.00  0.00    +0.000 C 
BRANCH  87  88
ATOM     88  C   UNL     1      -3.593  -0.931 139.690  0.00  0.00    +0.000 C 
ATOM     89  N   UNL     1      -3.349  -1.953 140.527  0.00  0.00    +0.000 N 
ATOM     90  O   UNL     1      -2.961   0.094 139.603  0.00  0.00    +0.000 OA
ATOM     91  H   UNL     1      -3.830  -2.854 140.483  0.00  0.00    +0.000 HD
ATOM     92  H   UNL     1      -2.654  -1.840 141.206  0.00  0.00    +0.000 HD
ENDBRANCH  87  88
ENDBRANCH  22  87
TORSDOF 19
ENDMDL
MODEL 7
REMARK VINA RESULT:      -8.2      3.270      8.866
REMARK  Name = CHEMBL265858
REMARK  19 active torsions:
REMARK  status: ('A' for Active; 'I' for Inactive)
REMARK    1  A    between atoms: C_2  and  C_4
REMARK    2  A    between atoms: C_4  and  N_5
REMARK    3  A    between atoms: C_6  and  C_8
REMARK    4  A    between atoms: C_8  and  C_9
REMARK    5  A    between atoms: C_8  and  N_16
REMARK    6  A    between atoms: C_9  and  C_10
REMARK    7  A    between atoms: C_10  and  C_11
REMARK    8  A    between atoms: C_11  and  N_12
REMARK    9  A    between atoms: C_17  and  C_19
REMARK   10  A    between atoms: C_24  and  C_26
REMARK   11  A    between atoms: C_35  and  C_36
REMARK   12  A    between atoms: C_36  and  C_37
REMARK   13  A    between atoms: C_40  and  O_41
REMARK   14  A    between atoms: C_47  and  C_48
REMARK   15  A    between atoms: C_48  and  C_49
REMARK   16  A    between atoms: C_58  and  C_59
REMARK   17  A    between atoms: C_59  and  C_60
REMARK   18  A    between atoms: C_69  and  C_70
REMARK   19  A    between atoms: C_70  and  C_71
REMARK                            x       y       z     vdW  Elec       q    Type
REMARK                         _______ _______ _______ _____ _____    ______ ____
ROOT
ATOM      1  C   UNL     1      -4.121   1.761 131.348  0.00  0.00    +0.000 C 
ATOM      2  C   UNL     1      -4.190  -0.866 131.250  0.00  0.00    +0.000 C 
ATOM      3  S   UNL     1      -5.040  -3.363 131.976  0.00  0.00    +0.000 S 
ATOM      4  S   UNL     1      -5.820  -5.723 133.293  0.00  0.00    +0.000 S 
ATOM      5  C   UNL     1      -6.207  -5.727 135.262  0.00  0.00    +0.000 C 
ATOM      6  C   UNL     1      -5.812  -6.442 136.544  0.00  0.00    +0.000 C 
ATOM      7  C   UNL     1      -5.790  -5.611 137.849  0.00  0.00    +0.000 C 
ATOM      8  O   UNL     1      -5.649  -6.169 138.938  0.00  0.00    +0.000 OA
ATOM      9  N   UNL     1      -5.879  -4.245 137.769  0.00  0.00    +0.000 N 
ATOM     10  C   UNL     1      -6.065  -3.479 136.561  0.00  0.00    +0.000 C 
ATOM     11  C   UNL     1      -4.643  -3.665 135.699  0.00  0.00    +0.000 C 
ATOM     12  O   UNL     1      -4.055  -4.732 135.389  0.00  0.00    +0.000 OA
ATOM     13  N   UNL     1      -4.145  -2.613 135.141  0.00  0.00    +0.000 N 
ATOM     14  C   UNL     1      -4.431  -1.288 135.533  0.00  0.00    +0.000 C 
ATOM     15  C   UNL     1      -6.075  -0.863 134.887  0.00  0.00    +0.000 C 
ATOM     16  O   UNL     1      -7.065  -1.626 134.838  0.00  0.00    +0.000 OA
ATOM     17  N   UNL     1      -6.355   0.395 134.565  0.00  0.00    +0.000 N 
ATOM     18  C   UNL     1      -5.366   1.217 134.091  0.00  0.00    +0.000 C 
ATOM     19  C   UNL     1      -4.753   1.827 135.281  0.00  0.00    +0.000 C 
ATOM     20  O   UNL     1      -4.154   1.300 136.222  0.00  0.00    +0.000 OA
ATOM     21  N   UNL     1      -4.576   3.093 135.092  0.00  0.00    +0.000 N 
ATOM     22  C   UNL     1      -5.077   3.850 133.966  0.00  0.00    +0.000 C 
ATOM     23  C   UNL     1      -3.968   2.794 132.981  0.00  0.00    +0.000 C 
ATOM     24  O   UNL     1      -3.978   1.689 132.948  0.00  0.00    +0.000 OA
ATOM     25  N   UNL     1      -3.552   3.434 131.389  0.00  0.00    +0.000 N 
ATOM     26  H   UNL     1      -5.916  -3.674 138.626  0.00  0.00    +0.000 HD
ATOM     27  H   UNL     1      -3.359  -2.835 134.565  0.00  0.00    +0.000 HD
ATOM     28  H   UNL     1      -7.081   0.378 133.863  0.00  0.00    +0.000 HD
ATOM     29  H   UNL     1      -3.772   3.463 135.580  0.00  0.00    +0.000 HD
ATOM     30  H   UNL     1      -2.820   4.273 130.823  0.00  0.00    +0.000 HD
ENDROOT
BRANCH   1  36
ATOM     31  C   UNL     1      -4.526   6.976 130.367  0.00  0.00    +0.000 C 
ATOM     32  C   UNL     1      -3.547   7.501 129.209  0.00  0.00    +0.000 C 
ATOM     33  C   UNL     1      -3.300   8.892 129.534  0.00  0.00    +0.000 C 
ATOM     34  C   UNL     1      -3.355   8.295 131.388  0.00  0.00    +0.000 C 
ATOM     35  N   UNL     1      -3.967   6.280 131.867  0.00  0.00    +0.000 N 
ATOM     36  C   UNL     1      -3.841   4.104 132.071  0.00  0.00    +0.000 C 
ATOM     37  O   UNL     1      -3.500   5.294 133.035  0.00  0.00    +0.000 OA
BRANCH  31  39
ATOM     38  N   UNL     1      -4.828   4.594 129.801  0.00  0.00    +0.000 N 
ATOM     39  C   UNL     1      -4.869   5.706 130.321  0.00  0.00    +0.000 C 
ATOM     40  O   UNL     1      -5.596   5.631 131.185  0.00  0.00    +0.000 OA
ATOM     41  H   UNL     1      -4.045   4.662 129.310  0.00  0.00    +0.000 HD
BRANCH  38  42
ATOM     42  C   UNL     1      -5.451   3.273 129.893  0.00  0.00    +0.000 C 
BRANCH  42  44
ATOM     43  N   UNL     1      -6.010   1.095 128.560  0.00  0.00    +0.000 N 
ATOM     44  C   UNL     1      -5.317   2.654 128.552  0.00  0.00    +0.000 C 
ATOM     45  O   UNL     1      -4.186   3.020 128.158  0.00  0.00    +0.000 OA
ATOM     46  H   UNL     1      -6.239   0.709 129.552  0.00  0.00    +0.000 HD
BRANCH  43  47
ATOM     47  C   UNL     1      -5.253  -0.422 127.695  0.00  0.00    +0.000 C 
BRANCH  47  49
ATOM     48  N   UNL     1      -4.806  -2.744 128.259  0.00  0.00    +0.000 N 
ATOM     49  C   UNL     1      -5.834  -1.728 127.944  0.00  0.00    +0.000 C 
ATOM     50  O   UNL     1      -7.492  -1.605 128.023  0.00  0.00    +0.000 OA
ATOM     51  H   UNL     1      -4.974  -3.638 127.737  0.00  0.00    +0.000 HD
ATOM     52  H   UNL     1      -3.817  -2.584 128.377  0.00  0.00    +0.000 HD
ENDBRANCH  47  49
ENDBRANCH  43  47
ENDBRANCH  42  44
BRANCH  42  53
ATOM     53  C   UNL     1      -6.809   3.102 129.728  0.00  0.00    +0.000 C 
BRANCH  53  54
ATOM     54  C   UNL     1      -7.166   4.236 128.881  0.00  0.00    +0.000 C 
BRANCH  54  55
ATOM     55  C   UNL     1      -8.467   4.746 129.360  0.00  0.00    +0.000 C 
BRANCH  55  56
ATOM     56  N   UNL     1      -9.004   5.699 128.389  0.00  0.00    +0.000 NA
ATOM     57  C   UNL     1     -10.037   6.406 128.730  0.00  0.00    +0.000 C 
ATOM     58  N   UNL     1     -10.643   6.296 129.965  0.00  0.00    +0.000 N 
ATOM     59  N   UNL     1     -10.565   7.317 127.826  0.00  0.00    +0.000 N 
ATOM     60  H   UNL     1     -10.296   5.638 130.672  0.00  0.00    +0.000 HD
ATOM     61  H   UNL     1     -11.446   6.826 130.268  0.00  0.00    +0.000 HD
ATOM     62  H   UNL     1     -10.158   7.448 126.887  0.00  0.00    +0.000 HD
ATOM     63  H   UNL     1     -11.366   7.913 128.000  0.00  0.00    +0.000 HD
ENDBRANCH  55  56
ENDBRANCH  54  55
ENDBRANCH  53  54
ENDBRANCH  42  53
ENDBRANCH  38  42
ENDBRANCH  31  39
ENDBRANCH   1  36
BRANCH  10  64
ATOM     64  C   UNL     1      -6.304  -2.134 137.043  0.00  0.00    +0.000 C 
BRANCH  64  65
ATOM     65  C   UNL     1      -7.252  -1.840 138.068  0.00  0.00    +0.000 A 
ATOM     66  C   UNL     1      -6.755  -1.075 139.076  0.00  0.00    +0.000 A 
ATOM     67  C   UNL     1      -7.557  -0.612 140.070  0.00  0.00    +0.000 A 
ATOM     68  C   UNL     1      -8.888  -0.943 140.048  0.00  0.00    +0.000 A 
ATOM     69  C   UNL     1      -9.391  -1.760 139.053  0.00  0.00    +0.000 A 
ATOM     70  C   UNL     1      -8.574  -2.214 138.048  0.00  0.00    +0.000 A 
BRANCH  68  71
ATOM     71  O   UNL     1      -9.783  -0.519 140.976  0.00  0.00    +0.000 OA
ATOM     72  H   UNL     1      -9.480  -0.589 141.895  0.00  0.00    +0.000 HD
ENDBRANCH  68  71
ENDBRANCH  64  65
ENDBRANCH  10  64
BRANCH  14  73
ATOM     73  C   UNL     1      -3.327  -0.561 134.983  0.00  0.00    +0.000 C 
BRANCH  73  74
ATOM     74  C   UNL     1      -2.017  -1.006 134.898  0.00  0.00    +0.000 A 
ATOM     75  C   UNL     1      -1.600  -1.527 136.061  0.00  0.00    +0.000 A 
ATOM     76  C   UNL     1      -0.278  -1.706 136.184  0.00  0.00    +0.000 A 
ATOM     77  C   UNL     1       0.540  -1.730 135.093  0.00  0.00    +0.000 A 
ATOM     78  C   UNL     1       0.049  -1.288 133.901  0.00  0.00    +0.000 A 
ATOM     79  C   UNL     1      -1.253  -0.940 133.783  0.00  0.00    +0.000 A 
ENDBRANCH  73  74
ENDBRANCH  14  73
BRANCH  18  80
ATOM     80  C   UNL     1      -5.970   1.871 132.747  0.00  0.00    +0.000 C 
BRANCH  80  81
ATOM     81  C   UNL     1      -7.252   2.015 132.009  0.00  0.00    +0.000 C 
ATOM     82  C   UNL     1      -7.536   0.706 131.856  0.00  0.00    +0.000 C 
ATOM     83  C   UNL     1      -8.808   0.075 130.999  0.00  0.00    +0.000 C 
ATOM     84  C   UNL     1      -9.627   0.280 132.060  0.00  0.00    +0.000 C 
ATOM     85  C   UNL     1      -9.532   1.725 132.468  0.00  0.00    +0.000 C 
ATOM     86  C   UNL     1      -8.207   2.169 132.991  0.00  0.00    +0.000 C 
ENDBRANCH  80  81
ENDBRANCH  18  80
BRANCH  22  87
ATOM     87  C   UNL     1      -5.034   5.338 134.171  0.00  0.00    +0.000 C 
BRANCH  87  88
ATOM     88  C   UNL     1      -6.174   5.896 134.746  0.00  0.00    +0.000 C 
ATOM     89  N   UNL     1      -7.212   5.746 133.906  0.00  0.00    +0.000 N 
ATOM     90  O   UNL     1      -6.202   6.412 135.837  0.00  0.00    +0.000 OA
ATOM     91  H   UNL     1      -7.175   5.192 133.047  0.00  0.00    +0.000 HD
ATOM     92  H   UNL     1      -8.062   6.171 134.138  0.00  0.00    +0.000 HD
ENDBRANCH  87  88
ENDBRANCH  22  87
TORSDOF 19
ENDMDL
MODEL 8
REMARK VINA RESULT:      -8.0      3.719      8.575
REMARK  Name = CHEMBL265858
REMARK  19 active torsions:
REMARK  status: ('A' for Active; 'I' for Inactive)
REMARK    1  A    between atoms: C_2  and  C_4
REMARK    2  A    between atoms: C_4  and  N_5
REMARK    3  A    between atoms: C_6  and  C_8
REMARK    4  A    between atoms: C_8  and  C_9
REMARK    5  A    between atoms: C_8  and  N_16
REMARK    6  A    between atoms: C_9  and  C_10
REMARK    7  A    between atoms: C_10  and  C_11
REMARK    8  A    between atoms: C_11  and  N_12
REMARK    9  A    between atoms: C_17  and  C_19
REMARK   10  A    between atoms: C_24  and  C_26
REMARK   11  A    between atoms: C_35  and  C_36
REMARK   12  A    between atoms: C_36  and  C_37
REMARK   13  A    between atoms: C_40  and  O_41
REMARK   14  A    between atoms: C_47  and  C_48
REMARK   15  A    between atoms: C_48  and  C_49
REMARK   16  A    between atoms: C_58  and  C_59
REMARK   17  A    between atoms: C_59  and  C_60
REMARK   18  A    between atoms: C_69  and  C_70
REMARK   19  A    between atoms: C_70  and  C_71
REMARK                            x       y       z     vdW  Elec       q    Type
REMARK                         _______ _______ _______ _____ _____    ______ ____
ROOT
ATOM      1  C   UNL     1      -4.190   0.564 135.918  0.00  0.00    +0.000 C 
ATOM      2  C   UNL     1      -5.752   2.656 135.603  0.00  0.00    +0.000 C 
ATOM      3  S   UNL     1      -7.756   4.115 134.447  0.00  0.00    +0.000 S 
ATOM      4  S   UNL     1      -9.542   5.452 132.735  0.00  0.00    +0.000 S 
ATOM      5  C   UNL     1      -9.579   5.056 130.767  0.00  0.00    +0.000 C 
ATOM      6  C   UNL     1      -9.483   5.750 129.419  0.00  0.00    +0.000 C 
ATOM      7  C   UNL     1      -8.808   4.975 128.263  0.00  0.00    +0.000 C 
ATOM      8  O   UNL     1      -8.857   5.412 127.111  0.00  0.00    +0.000 OA
ATOM      9  N   UNL     1      -8.116   3.826 128.546  0.00  0.00    +0.000 N 
ATOM     10  C   UNL     1      -8.003   3.206 129.843  0.00  0.00    +0.000 C 
ATOM     11  C   UNL     1      -7.077   4.261 130.756  0.00  0.00    +0.000 C 
ATOM     12  O   UNL     1      -7.251   5.493 130.935  0.00  0.00    +0.000 OA
ATOM     13  N   UNL     1      -6.156   3.749 131.500  0.00  0.00    +0.000 N 
ATOM     14  C   UNL     1      -5.579   2.478 131.301  0.00  0.00    +0.000 C 
ATOM     15  C   UNL     1      -6.762   1.234 131.898  0.00  0.00    +0.000 C 
ATOM     16  O   UNL     1      -8.005   1.279 131.764  0.00  0.00    +0.000 OA
ATOM     17  N   UNL     1      -6.320   0.083 132.391  0.00  0.00    +0.000 N 
ATOM     18  C   UNL     1      -5.118   0.036 133.049  0.00  0.00    +0.000 C 
ATOM     19  C   UNL     1      -4.107  -0.206 132.009  0.00  0.00    +0.000 C 
ATOM     20  O   UNL     1      -3.787   0.485 131.039  0.00  0.00    +0.000 OA
ATOM     21  N   UNL     1      -3.271  -1.109 132.402  0.00  0.00    +0.000 N 
ATOM     22  C   UNL     1      -3.407  -1.913 133.597  0.00  0.00    +0.000 C 
ATOM     23  C   UNL     1      -3.247  -0.327 134.477  0.00  0.00    +0.000 C 
ATOM     24  O   UNL     1      -3.887   0.563 134.338  0.00  0.00    +0.000 OA
ATOM     25  N   UNL     1      -2.772  -0.461 136.172  0.00  0.00    +0.000 N 
ATOM     26  H   UNL     1      -7.699   3.267 127.787  0.00  0.00    +0.000 HD
ATOM     27  H   UNL     1      -5.726   4.437 132.085  0.00  0.00    +0.000 HD
ATOM     28  H   UNL     1      -7.018  -0.264 133.034  0.00  0.00    +0.000 HD
ATOM     29  H   UNL     1      -2.340  -0.984 132.030  0.00  0.00    +0.000 HD
ATOM     30  H   UNL     1      -1.783  -0.663 136.907  0.00  0.00    +0.000 HD
ENDROOT
BRANCH   1  36
ATOM     31  C   UNL     1      -0.842  -3.059 137.916  0.00  0.00    +0.000 C 
ATOM     32  C   UNL     1       0.399  -2.431 138.716  0.00  0.00    +0.000 C 
ATOM     33  C   UNL     1       1.459  -3.410 138.584  0.00  0.00    +0.000 C 
ATOM     34  C   UNL     1       0.735  -3.709 136.801  0.00  0.00    +0.000 C 
ATOM     35  N   UNL     1      -1.133  -2.795 136.215  0.00  0.00    +0.000 N 
ATOM     36  C   UNL     1      -2.529  -1.231 135.585  0.00  0.00    +0.000 C 
ATOM     37  O   UNL     1      -1.633  -2.252 134.798  0.00  0.00    +0.000 OA
BRANCH  31  39
ATOM     38  N   UNL     1      -2.557  -1.292 138.073  0.00  0.00    +0.000 N 
ATOM     39  C   UNL     1      -1.934  -2.327 137.849  0.00  0.00    +0.000 C 
ATOM     40  O   UNL     1      -2.668  -3.047 137.374  0.00  0.00    +0.000 OA
ATOM     41  H   UNL     1      -1.859  -0.694 138.193  0.00  0.00    +0.000 HD
BRANCH  38  42
ATOM     42  C   UNL     1      -3.909  -0.739 137.992  0.00  0.00    +0.000 C 
BRANCH  42  44
ATOM     43  N   UNL     1      -3.506   1.717 138.789  0.00  0.00    +0.000 N 
ATOM     44  C   UNL     1      -4.068   0.151 139.167  0.00  0.00    +0.000 C 
ATOM     45  O   UNL     1      -3.789  -0.579 140.145  0.00  0.00    +0.000 OA
ATOM     46  H   UNL     1      -2.936   1.780 137.864  0.00  0.00    +0.000 HD
BRANCH  43  47
ATOM     47  C   UNL     1      -2.490   2.808 139.972  0.00  0.00    +0.000 C 
BRANCH  47  49
ATOM     48  N   UNL     1      -0.647   3.101 141.531  0.00  0.00    +0.000 N 
ATOM     49  C   UNL     1      -1.157   2.376 140.346  0.00  0.00    +0.000 C 
ATOM     50  O   UNL     1      -0.725   1.035 139.459  0.00  0.00    +0.000 OA
ATOM     51  H   UNL     1       0.344   3.415 141.395  0.00  0.00    +0.000 HD
ATOM     52  H   UNL     1      -1.156   3.766 142.093  0.00  0.00    +0.000 HD
ENDBRANCH  47  49
ENDBRANCH  43  47
ENDBRANCH  42  44
BRANCH  42  53
ATOM     53  C   UNL     1      -4.999  -1.423 138.487  0.00  0.00    +0.000 C 
BRANCH  53  54
ATOM     54  C   UNL     1      -6.074  -0.447 138.340  0.00  0.00    +0.000 C 
BRANCH  54  55
ATOM     55  C   UNL     1      -7.272  -1.015 138.993  0.00  0.00    +0.000 C 
BRANCH  55  56
ATOM     56  N   UNL     1      -8.029  -1.802 138.021  0.00  0.00    +0.000 NA
ATOM     57  C   UNL     1      -9.228  -2.184 138.342  0.00  0.00    +0.000 C 
ATOM     58  N   UNL     1      -9.810  -1.877 139.554  0.00  0.00    +0.000 N 
ATOM     59  N   UNL     1      -9.967  -2.933 137.436  0.00  0.00    +0.000 N 
ATOM     60  H   UNL     1      -9.310  -1.327 140.263  0.00  0.00    +0.000 HD
ATOM     61  H   UNL     1     -10.737  -2.155 139.841  0.00  0.00    +0.000 HD
ATOM     62  H   UNL     1      -9.589  -3.195 136.513  0.00  0.00    +0.000 HD
ATOM     63  H   UNL     1     -10.907  -3.275 137.595  0.00  0.00    +0.000 HD
ENDBRANCH  55  56
ENDBRANCH  54  55
ENDBRANCH  53  54
ENDBRANCH  42  53
ENDBRANCH  38  42
ENDBRANCH  31  39
ENDBRANCH   1  36
BRANCH  10  64
ATOM     64  C   UNL     1      -7.364   1.938 129.561  0.00  0.00    +0.000 C 
BRANCH  64  65
ATOM     65  C   UNL     1      -7.274   1.396 128.243  0.00  0.00    +0.000 A 
ATOM     66  C   UNL     1      -6.008   1.357 127.748  0.00  0.00    +0.000 A 
ATOM     67  C   UNL     1      -5.737   0.767 126.555  0.00  0.00    +0.000 A 
ATOM     68  C   UNL     1      -6.773   0.217 125.844  0.00  0.00    +0.000 A 
ATOM     69  C   UNL     1      -8.069   0.296 126.318  0.00  0.00    +0.000 A 
ATOM     70  C   UNL     1      -8.330   0.885 127.529  0.00  0.00    +0.000 A 
BRANCH  68  71
ATOM     71  O   UNL     1      -6.614  -0.415 124.653  0.00  0.00    +0.000 OA
ATOM     72  H   UNL     1      -6.154   0.104 123.975  0.00  0.00    +0.000 HD
ENDBRANCH  68  71
ENDBRANCH  64  65
ENDBRANCH  10  64
BRANCH  14  73
ATOM     73  C   UNL     1      -4.349   2.581 132.026  0.00  0.00    +0.000 C 
BRANCH  73  74
ATOM     74  C   UNL     1      -3.395   3.575 131.879  0.00  0.00    +0.000 A 
ATOM     75  C   UNL     1      -2.595   3.650 132.953  0.00  0.00    +0.000 A 
ATOM     76  C   UNL     1      -1.845   4.755 133.051  0.00  0.00    +0.000 A 
ATOM     77  C   UNL     1      -1.614   5.555 131.971  0.00  0.00    +0.000 A 
ATOM     78  C   UNL     1      -2.378   5.382 130.856  0.00  0.00    +0.000 A 
ATOM     79  C   UNL     1      -3.269   4.366 130.788  0.00  0.00    +0.000 A 
ENDBRANCH  73  74
ENDBRANCH  14  73
BRANCH  18  80
ATOM     80  C   UNL     1      -5.428  -0.725 134.436  0.00  0.00    +0.000 C 
BRANCH  80  81
ATOM     81  C   UNL     1      -6.454  -1.590 135.074  0.00  0.00    +0.000 C 
ATOM     82  C   UNL     1      -6.961  -2.146 133.956  0.00  0.00    +0.000 C 
ATOM     83  C   UNL     1      -8.265  -3.169 133.877  0.00  0.00    +0.000 C 
ATOM     84  C   UNL     1      -7.467  -4.214 134.211  0.00  0.00    +0.000 C 
ATOM     85  C   UNL     1      -6.745  -3.878 135.488  0.00  0.00    +0.000 C 
ATOM     86  C   UNL     1      -5.780  -2.744 135.414  0.00  0.00    +0.000 C 
ENDBRANCH  80  81
ENDBRANCH  18  80
BRANCH  22  87
ATOM     87  C   UNL     1      -2.498  -3.109 133.628  0.00  0.00    +0.000 C 
BRANCH  87  88
ATOM     88  C   UNL     1      -3.079  -4.313 133.235  0.00  0.00    +0.000 C 
ATOM     89  N   UNL     1      -2.273  -5.328 133.585  0.00  0.00    +0.000 N 
ATOM     90  O   UNL     1      -4.150  -4.403 132.684  0.00  0.00    +0.000 OA
ATOM     91  H   UNL     1      -1.436  -5.220 134.162  0.00  0.00    +0.000 HD
ATOM     92  H   UNL     1      -2.510  -6.232 133.292  0.00  0.00    +0.000 HD
ENDBRANCH  87  88
ENDBRANCH  22  87
TORSDOF 19
ENDMDL
MODEL 9
REMARK VINA RESULT:      -7.2      7.857     12.108
REMARK  Name = CHEMBL265858
REMARK  19 active torsions:
REMARK  status: ('A' for Active; 'I' for Inactive)
REMARK    1  A    between atoms: C_2  and  C_4
REMARK    2  A    between atoms: C_4  and  N_5
REMARK    3  A    between atoms: C_6  and  C_8
REMARK    4  A    between atoms: C_8  and  C_9
REMARK    5  A    between atoms: C_8  and  N_16
REMARK    6  A    between atoms: C_9  and  C_10
REMARK    7  A    between atoms: C_10  and  C_11
REMARK    8  A    between atoms: C_11  and  N_12
REMARK    9  A    between atoms: C_17  and  C_19
REMARK   10  A    between atoms: C_24  and  C_26
REMARK   11  A    between atoms: C_35  and  C_36
REMARK   12  A    between atoms: C_36  and  C_37
REMARK   13  A    between atoms: C_40  and  O_41
REMARK   14  A    between atoms: C_47  and  C_48
REMARK   15  A    between atoms: C_48  and  C_49
REMARK   16  A    between atoms: C_58  and  C_59
REMARK   17  A    between atoms: C_59  and  C_60
REMARK   18  A    between atoms: C_69  and  C_70
REMARK   19  A    between atoms: C_70  and  C_71
REMARK                            x       y       z     vdW  Elec       q    Type
REMARK                         _______ _______ _______ _____ _____    ______ ____
ROOT
ATOM      1  C   UNL     1      -2.576   9.517 137.316  0.00  0.00    +0.000 C 
ATOM      2  C   UNL     1      -3.393   8.848 139.724  0.00  0.00    +0.000 C 
ATOM      3  S   UNL     1      -3.869   7.140 141.807  0.00  0.00    +0.000 S 
ATOM      4  S   UNL     1      -4.611   5.030 143.513  0.00  0.00    +0.000 S 
ATOM      5  C   UNL     1      -5.139   3.241 142.773  0.00  0.00    +0.000 C 
ATOM      6  C   UNL     1      -6.270   2.226 142.825  0.00  0.00    +0.000 C 
ATOM      7  C   UNL     1      -6.560   1.414 141.541  0.00  0.00    +0.000 C 
ATOM      8  O   UNL     1      -7.341   0.461 141.573  0.00  0.00    +0.000 OA
ATOM      9  N   UNL     1      -5.975   1.799 140.362  0.00  0.00    +0.000 N 
ATOM     10  C   UNL     1      -5.032   2.879 140.201  0.00  0.00    +0.000 C 
ATOM     11  C   UNL     1      -5.910   4.275 140.487  0.00  0.00    +0.000 C 
ATOM     12  O   UNL     1      -6.638   4.548 141.475  0.00  0.00    +0.000 OA
ATOM     13  N   UNL     1      -5.716   5.272 139.690  0.00  0.00    +0.000 N 
ATOM     14  C   UNL     1      -5.185   5.163 138.388  0.00  0.00    +0.000 C 
ATOM     15  C   UNL     1      -3.390   4.928 138.540  0.00  0.00    +0.000 C 
ATOM     16  O   UNL     1      -2.811   4.236 139.408  0.00  0.00    +0.000 OA
ATOM     17  N   UNL     1      -2.580   5.378 137.589  0.00  0.00    +0.000 N 
ATOM     18  C   UNL     1      -2.912   6.505 136.883  0.00  0.00    +0.000 C 
ATOM     19  C   UNL     1      -3.722   6.037 135.748  0.00  0.00    +0.000 C 
ATOM     20  O   UNL     1      -4.809   5.456 135.737  0.00  0.00    +0.000 OA
ATOM     21  N   UNL     1      -3.346   6.625 134.661  0.00  0.00    +0.000 N 
ATOM     22  C   UNL     1      -2.180   7.470 134.525  0.00  0.00    +0.000 C 
ATOM     23  C   UNL     1      -3.046   8.564 135.694  0.00  0.00    +0.000 C 
ATOM     24  O   UNL     1      -3.409   8.287 136.701  0.00  0.00    +0.000 OA
ATOM     25  N   UNL     1      -2.484  10.238 135.704  0.00  0.00    +0.000 N 
ATOM     26  H   UNL     1      -6.114   1.245 139.505  0.00  0.00    +0.000 HD
ATOM     27  H   UNL     1      -6.200   6.092 139.996  0.00  0.00    +0.000 HD
ATOM     28  H   UNL     1      -1.679   5.553 138.012  0.00  0.00    +0.000 HD
ATOM     29  H   UNL     1      -4.096   6.758 133.997  0.00  0.00    +0.000 HD
ATOM     30  H   UNL     1      -2.556  11.307 135.063  0.00  0.00    +0.000 HD
ENDROOT
BRANCH   1  36
ATOM     31  C   UNL     1      -0.513  12.005 133.088  0.00  0.00    +0.000 C 
ATOM     32  C   UNL     1      -1.062  13.499 132.875  0.00  0.00    +0.000 C 
ATOM     33  C   UNL     1      -0.957  13.734 131.449  0.00  0.00    +0.000 C 
ATOM     34  C   UNL     1      -1.427  11.851 131.273  0.00  0.00    +0.000 C 
ATOM     35  N   UNL     1      -1.522  10.583 133.018  0.00  0.00    +0.000 N 
ATOM     36  C   UNL     1      -2.303   9.717 134.871  0.00  0.00    +0.000 C 
ATOM     37  O   UNL     1      -2.464   9.337 133.356  0.00  0.00    +0.000 OA
BRANCH  31  39
ATOM     38  N   UNL     1      -0.746  11.665 135.520  0.00  0.00    +0.000 N 
ATOM     39  C   UNL     1      -0.547  11.531 134.315  0.00  0.00    +0.000 C 
ATOM     40  O   UNL     1      -0.161  10.477 134.167  0.00  0.00    +0.000 OA
ATOM     41  H   UNL     1      -1.295  12.411 135.522  0.00  0.00    +0.000 HD
BRANCH  38  42
ATOM     42  C   UNL     1      -0.580  10.949 136.785  0.00  0.00    +0.000 C 
BRANCH  42  44
ATOM     43  N   UNL     1      -2.204  12.915 137.358  0.00  0.00    +0.000 N 
ATOM     44  C   UNL     1      -0.916  11.914 137.859  0.00  0.00    +0.000 C 
ATOM     45  O   UNL     1       0.193  12.230 138.346  0.00  0.00    +0.000 OA
ATOM     46  H   UNL     1      -2.434  12.855 136.296  0.00  0.00    +0.000 HD
BRANCH  43  47
ATOM     47  C   UNL     1      -2.304  14.785 137.694  0.00  0.00    +0.000 C 
BRANCH  47  49
ATOM     48  N   UNL     1      -0.981  16.768 138.175  0.00  0.00    +0.000 N 
ATOM     49  C   UNL     1      -1.210  15.631 137.256  0.00  0.00    +0.000 C 
ATOM     50  O   UNL     1      -0.413  14.914 135.983  0.00  0.00    +0.000 OA
ATOM     51  H   UNL     1      -0.848  17.667 137.653  0.00  0.00    +0.000 HD
ATOM     52  H   UNL     1      -1.449  16.935 139.053  0.00  0.00    +0.000 HD
ENDBRANCH  47  49
ENDBRANCH  43  47
ENDBRANCH  42  44
BRANCH  42  53
ATOM     53  C   UNL     1       0.650  10.845 137.399  0.00  0.00    +0.000 C 
BRANCH  53  54
ATOM     54  C   UNL     1       1.499  10.351 136.319  0.00  0.00    +0.000 C 
BRANCH  54  55
ATOM     55  C   UNL     1       2.722  11.179 136.311  0.00  0.00    +0.000 C 
BRANCH  55  56
ATOM     56  N   UNL     1       2.666  12.120 135.193  0.00  0.00    +0.000 NA
ATOM     57  C   UNL     1       2.464  13.375 135.457  0.00  0.00    +0.000 C 
ATOM     58  N   UNL     1       2.303  13.851 136.742  0.00  0.00    +0.000 N 
ATOM     59  N   UNL     1       2.406  14.287 134.413  0.00  0.00    +0.000 N 
ATOM     60  H   UNL     1       2.335  13.222 137.552  0.00  0.00    +0.000 HD
ATOM     61  H   UNL     1       2.143  14.817 136.988  0.00  0.00    +0.000 HD
ATOM     62  H   UNL     1       2.519  13.995 133.430  0.00  0.00    +0.000 HD
ATOM     63  H   UNL     1       2.253  15.283 134.518  0.00  0.00    +0.000 HD
ENDBRANCH  55  56
ENDBRANCH  54  55
ENDBRANCH  53  54
ENDBRANCH  42  53
ENDBRANCH  38  42
ENDBRANCH  31  39
ENDBRANCH   1  36
BRANCH  10  64
ATOM     64  C   UNL     1      -4.572   2.729 138.836  0.00  0.00    +0.000 C 
BRANCH  64  65
ATOM     65  C   UNL     1      -4.099   1.488 138.314  0.00  0.00    +0.000 A 
ATOM     66  C   UNL     1      -4.623   1.162 137.103  0.00  0.00    +0.000 A 
ATOM     67  C   UNL     1      -4.190   0.071 136.419  0.00  0.00    +0.000 A 
ATOM     68  C   UNL     1      -3.214  -0.713 136.982  0.00  0.00    +0.000 A 
ATOM     69  C   UNL     1      -2.712  -0.415 138.234  0.00  0.00    +0.000 A 
ATOM     70  C   UNL     1      -3.149   0.695 138.912  0.00  0.00    +0.000 A 
BRANCH  68  71
ATOM     71  O   UNL     1      -2.694  -1.812 136.379  0.00  0.00    +0.000 OA
ATOM     72  H   UNL     1      -3.345  -2.385 135.945  0.00  0.00    +0.000 HD
ENDBRANCH  68  71
ENDBRANCH  64  65
ENDBRANCH  10  64
BRANCH  14  73
ATOM     73  C   UNL     1      -5.614   6.387 137.779  0.00  0.00    +0.000 C 
BRANCH  73  74
ATOM     74  C   UNL     1      -6.768   7.090 138.084  0.00  0.00    +0.000 A 
ATOM     75  C   UNL     1      -7.832   6.589 137.440  0.00  0.00    +0.000 A 
ATOM     76  C   UNL     1      -8.925   7.362 137.420  0.00  0.00    +0.000 A 
ATOM     77  C   UNL     1      -9.083   8.391 138.301  0.00  0.00    +0.000 A 
ATOM     78  C   UNL     1      -8.001   8.809 139.016  0.00  0.00    +0.000 A 
ATOM     79  C   UNL     1      -6.827   8.142 138.933  0.00  0.00    +0.000 A 
ENDBRANCH  73  74
ENDBRANCH  14  73
BRANCH  18  80
ATOM     80  C   UNL     1      -1.601   7.442 136.946  0.00  0.00    +0.000 C 
BRANCH  80  81
ATOM     81  C   UNL     1      -0.244   7.489 137.549  0.00  0.00    +0.000 C 
ATOM     82  C   UNL     1      -0.325   6.371 138.298  0.00  0.00    +0.000 C 
ATOM     83  C   UNL     1       0.819   5.824 139.367  0.00  0.00    +0.000 C 
ATOM     84  C   UNL     1       1.511   5.265 138.343  0.00  0.00    +0.000 C 
ATOM     85  C   UNL     1       1.775   6.324 137.307  0.00  0.00    +0.000 C 
ATOM     86  C   UNL     1       0.574   6.879 136.621  0.00  0.00    +0.000 C 
ENDBRANCH  80  81
ENDBRANCH  18  80
BRANCH  22  87
ATOM     87  C   UNL     1      -1.784   7.730 133.099  0.00  0.00    +0.000 C 
BRANCH  87  88
ATOM     88  C   UNL     1      -1.490   6.597 132.343  0.00  0.00    +0.000 C 
ATOM     89  N   UNL     1      -0.192   6.619 131.999  0.00  0.00    +0.000 N 
ATOM     90  O   UNL     1      -2.292   5.736 132.069  0.00  0.00    +0.000 OA
ATOM     91  H   UNL     1       0.481   7.301 132.356  0.00  0.00    +0.000 HD
ATOM     92  H   UNL     1       0.138   5.930 131.388  0.00  0.00    +0.000 HD
ENDBRANCH  87  88
ENDBRANCH  22  87
TORSDOF 19
ENDMDL
