MODEL 1
REMARK VINA RESULT:     -10.0      0.000      0.000
REMARK  Name = CHEMBL69520
REMARK  9 active torsions:
REMARK  status: ('A' for Active; 'I' for Inactive)
REMARK    1  A    between atoms: C_1  and  O_2
REMARK    2  A    between atoms: O_2  and  C_3
REMARK    3  A    between atoms: C_5  and  O_6
REMARK    4  A    between atoms: O_6  and  C_7
REMARK    5  A    between atoms: N_10  and  C_11
REMARK    6  A    between atoms: C_11  and  C_12
REMARK    7  A    between atoms: C_17  and  C_18
REMARK    8  A    between atoms: C_23  and  C_24
REMARK    9  A    between atoms: C_29  and  N_30
REMARK                            x       y       z     vdW  Elec       q    Type
REMARK                         _______ _______ _______ _____ _____    ______ ____
ROOT
ATOM      1  C   UNL     1      -5.816  -1.548 128.586  0.00  0.00    +0.000 A 
ATOM      2  C   UNL     1      -5.995  -2.481 127.498  0.00  0.00    +0.000 A 
ATOM      3  C   UNL     1      -5.730  -2.111 126.227  0.00  0.00    +0.000 A 
ATOM      4  C   UNL     1      -5.502  -0.778 126.221  0.00  0.00    +0.000 A 
ATOM      5  C   UNL     1      -5.289   0.188 127.187  0.00  0.00    +0.000 A 
ATOM      6  C   UNL     1      -5.424  -0.184 128.465  0.00  0.00    +0.000 A 
ENDROOT
BRANCH   6   7
ATOM      7  C   UNL     1      -5.219   0.982 129.425  0.00  0.00    +0.000 C 
ATOM      8  O   UNL     1      -4.053   1.298 129.708  0.00  0.00    +0.000 OA
ATOM      9  N   UNL     1      -6.329   1.748 129.891  0.00  0.00    +0.000 N 
ATOM     10  C   UNL     1      -6.497   3.133 129.344  0.00  0.00    +0.000 C 
ATOM     11  C   UNL     1      -7.241   4.060 130.312  0.00  0.00    +0.000 C 
ATOM     12  C   UNL     1      -9.045   3.645 130.614  0.00  0.00    +0.000 C 
ATOM     13  C   UNL     1      -8.430   2.013 131.280  0.00  0.00    +0.000 C 
ATOM     14  C   UNL     1      -7.587   1.108 130.332  0.00  0.00    +0.000 C 
BRANCH  12  15
ATOM     15  N   UNL     1     -10.607   4.572 130.197  0.00  0.00    +0.000 N 
ATOM     16  C   UNL     1     -10.135   5.369 131.272  0.00  0.00    +0.000 C 
ATOM     17  O   UNL     1     -10.022   4.987 132.449  0.00  0.00    +0.000 OA
ATOM     18  O   UNL     1      -9.625   6.537 130.896  0.00  0.00    +0.000 OA
ATOM     19  C   UNL     1     -10.811   7.241 130.905  0.00  0.00    +0.000 C 
ATOM     20  C   UNL     1     -11.191   7.057 129.494  0.00  0.00    +0.000 A 
ATOM     21  C   UNL     1     -11.064   7.145 128.072  0.00  0.00    +0.000 A 
ATOM     22  C   UNL     1     -12.085   7.785 127.291  0.00  0.00    +0.000 A 
ATOM     23  C   UNL     1     -13.214   7.936 128.001  0.00  0.00    +0.000 A 
ATOM     24  C   UNL     1     -13.171   6.885 129.199  0.00  0.00    +0.000 A 
ATOM     25  C   UNL     1     -11.816   6.024 129.650  0.00  0.00    +0.000 A 
ENDBRANCH  12  15
ENDBRANCH   6   7
BRANCH   1  27
ATOM     26  C   UNL     1      -5.346  -3.413 129.758  0.00  0.00    +0.000 C 
ATOM     27  O   UNL     1      -6.040  -2.199 129.763  0.00  0.00    +0.000 OA
ENDBRANCH   1  27
BRANCH   3  28
ATOM     28  O   UNL     1      -5.660  -2.939 125.150  0.00  0.00    +0.000 OA
BRANCH  28  29
ATOM     29  C   UNL     1      -6.752  -3.182 124.177  0.00  0.00    +0.000 C 
ATOM     30  C   UNL     1      -7.047  -2.084 123.116  0.00  0.00    +0.000 C 
ATOM     31  C   UNL     1      -7.764  -0.841 123.641  0.00  0.00    +0.000 C 
ATOM     32  N   UNL     1      -8.975  -1.248 124.423  0.00  0.00    +0.000 NA
ATOM     33  C   UNL     1      -8.814  -2.459 125.247  0.00  0.00    +0.000 C 
ATOM     34  C   UNL     1      -8.043  -3.652 124.812  0.00  0.00    +0.000 C 
BRANCH  32  35
ATOM     35  C   UNL     1      -9.513  -0.160 125.282  0.00  0.00    +0.000 C 
BRANCH  35  36
ATOM     36  C   UNL     1      -8.992   1.243 125.046  0.00  0.00    +0.000 A 
ATOM     37  C   UNL     1      -8.411   1.823 126.181  0.00  0.00    +0.000 A 
ATOM     38  C   UNL     1      -7.915   3.104 126.105  0.00  0.00    +0.000 A 
ATOM     39  C   UNL     1      -8.008   3.767 124.898  0.00  0.00    +0.000 A 
ATOM     40  N   UNL     1      -8.605   3.278 123.800  0.00  0.00    +0.000 NA
ATOM     41  C   UNL     1      -9.143   2.047 123.869  0.00  0.00    +0.000 A 
ATOM     42  C   UNL     1      -9.889   1.733 122.587  0.00  0.00    +0.000 C 
ENDBRANCH  35  36
ENDBRANCH  32  35
ENDBRANCH  28  29
ENDBRANCH   3  28
TORSDOF 7
ENDMDL
MODEL 2
REMARK VINA RESULT:      -9.8      2.323      4.273
REMARK  Name = CHEMBL69520
REMARK  9 active torsions:
REMARK  status: ('A' for Active; 'I' for Inactive)
REMARK    1  A    between atoms: C_1  and  O_2
REMARK    2  A    between atoms: O_2  and  C_3
REMARK    3  A    between atoms: C_5  and  O_6
REMARK    4  A    between atoms: O_6  and  C_7
REMARK    5  A    between atoms: N_10  and  C_11
REMARK    6  A    between atoms: C_11  and  C_12
REMARK    7  A    between atoms: C_17  and  C_18
REMARK    8  A    between atoms: C_23  and  C_24
REMARK    9  A    between atoms: C_29  and  N_30
REMARK                            x       y       z     vdW  Elec       q    Type
REMARK                         _______ _______ _______ _____ _____    ______ ____
ROOT
ATOM      1  C   UNL     1      -6.653   1.135 130.545  0.00  0.00    +0.000 A 
ATOM      2  C   UNL     1      -6.846  -0.283 130.344  0.00  0.00    +0.000 A 
ATOM      3  C   UNL     1      -6.536  -1.161 131.321  0.00  0.00    +0.000 A 
ATOM      4  C   UNL     1      -5.891  -0.486 132.299  0.00  0.00    +0.000 A 
ATOM      5  C   UNL     1      -5.677   0.847 132.597  0.00  0.00    +0.000 A 
ATOM      6  C   UNL     1      -6.088   1.748 131.699  0.00  0.00    +0.000 A 
ENDROOT
BRANCH   6   7
ATOM      7  C   UNL     1      -5.744   3.173 132.119  0.00  0.00    +0.000 C 
ATOM      8  O   UNL     1      -4.601   3.386 132.553  0.00  0.00    +0.000 OA
ATOM      9  N   UNL     1      -6.670   4.239 131.916  0.00  0.00    +0.000 N 
ATOM     10  C   UNL     1      -6.367   5.227 130.831  0.00  0.00    +0.000 C 
ATOM     11  C   UNL     1      -6.988   6.602 131.100  0.00  0.00    +0.000 C 
ATOM     12  C   UNL     1      -8.861   6.676 131.045  0.00  0.00    +0.000 C 
ATOM     13  C   UNL     1      -8.827   5.452 132.455  0.00  0.00    +0.000 C 
ATOM     14  C   UNL     1      -8.109   4.089 132.221  0.00  0.00    +0.000 C 
BRANCH  12  15
ATOM     15  N   UNL     1     -10.024   7.554 129.884  0.00  0.00    +0.000 N 
ATOM     16  C   UNL     1     -10.655   6.285 129.941  0.00  0.00    +0.000 C 
ATOM     17  O   UNL     1     -10.163   5.222 129.524  0.00  0.00    +0.000 OA
ATOM     18  O   UNL     1     -11.770   6.267 130.663  0.00  0.00    +0.000 OA
ATOM     19  C   UNL     1     -12.626   6.639 129.647  0.00  0.00    +0.000 C 
ATOM     20  C   UNL     1     -12.616   8.095 129.867  0.00  0.00    +0.000 A 
ATOM     21  C   UNL     1     -12.806   9.323 130.575  0.00  0.00    +0.000 A 
ATOM     22  C   UNL     1     -13.642  10.353 130.029  0.00  0.00    +0.000 A 
ATOM     23  C   UNL     1     -13.886  10.139 128.726  0.00  0.00    +0.000 A 
ATOM     24  C   UNL     1     -12.741   9.174 128.178  0.00  0.00    +0.000 A 
ATOM     25  C   UNL     1     -11.669   8.340 129.143  0.00  0.00    +0.000 A 
ENDBRANCH  12  15
ENDBRANCH   6   7
BRANCH   1  27
ATOM     26  C   UNL     1      -8.022   0.965 128.765  0.00  0.00    +0.000 C 
ATOM     27  O   UNL     1      -7.144   1.801 129.461  0.00  0.00    +0.000 OA
ENDBRANCH   1  27
BRANCH   3  28
ATOM     28  O   UNL     1      -6.855  -2.484 131.340  0.00  0.00    +0.000 OA
BRANCH  28  29
ATOM     29  C   UNL     1      -6.344  -3.509 130.398  0.00  0.00    +0.000 C 
ATOM     30  C   UNL     1      -4.871  -3.389 129.914  0.00  0.00    +0.000 C 
ATOM     31  C   UNL     1      -4.604  -2.285 128.891  0.00  0.00    +0.000 C 
ATOM     32  N   UNL     1      -5.589  -2.389 127.768  0.00  0.00    +0.000 NA
ATOM     33  C   UNL     1      -6.957  -2.768 128.163  0.00  0.00    +0.000 C 
ATOM     34  C   UNL     1      -7.259  -3.767 129.220  0.00  0.00    +0.000 C 
BRANCH  32  35
ATOM     35  C   UNL     1      -5.662  -1.158 126.935  0.00  0.00    +0.000 C 
BRANCH  35  36
ATOM     36  C   UNL     1      -5.974  -1.326 125.462  0.00  0.00    +0.000 A 
ATOM     37  C   UNL     1      -5.395  -2.468 124.893  0.00  0.00    +0.000 A 
ATOM     38  C   UNL     1      -5.586  -2.726 123.555  0.00  0.00    +0.000 A 
ATOM     39  C   UNL     1      -6.353  -1.841 122.825  0.00  0.00    +0.000 A 
ATOM     40  N   UNL     1      -6.882  -0.705 123.308  0.00  0.00    +0.000 NA
ATOM     41  C   UNL     1      -6.662  -0.408 124.602  0.00  0.00    +0.000 A 
ATOM     42  C   UNL     1      -7.212   0.969 124.919  0.00  0.00    +0.000 C 
ENDBRANCH  35  36
ENDBRANCH  32  35
ENDBRANCH  28  29
ENDBRANCH   3  28
TORSDOF 7
ENDMDL
MODEL 3
REMARK VINA RESULT:      -9.8      1.840      2.382
REMARK  Name = CHEMBL69520
REMARK  9 active torsions:
REMARK  status: ('A' for Active; 'I' for Inactive)
REMARK    1  A    between atoms: C_1  and  O_2
REMARK    2  A    between atoms: O_2  and  C_3
REMARK    3  A    between atoms: C_5  and  O_6
REMARK    4  A    between atoms: O_6  and  C_7
REMARK    5  A    between atoms: N_10  and  C_11
REMARK    6  A    between atoms: C_11  and  C_12
REMARK    7  A    between atoms: C_17  and  C_18
REMARK    8  A    between atoms: C_23  and  C_24
REMARK    9  A    between atoms: C_29  and  N_30
REMARK                            x       y       z     vdW  Elec       q    Type
REMARK                         _______ _______ _______ _____ _____    ______ ____
ROOT
ATOM      1  C   UNL     1      -7.292  -2.070 130.855  0.00  0.00    +0.000 A 
ATOM      2  C   UNL     1      -7.540  -2.871 129.677  0.00  0.00    +0.000 A 
ATOM      3  C   UNL     1      -7.283  -2.377 128.448  0.00  0.00    +0.000 A 
ATOM      4  C   UNL     1      -6.988  -1.064 128.579  0.00  0.00    +0.000 A 
ATOM      5  C   UNL     1      -6.707  -0.220 129.637  0.00  0.00    +0.000 A 
ATOM      6  C   UNL     1      -6.834  -0.722 130.870  0.00  0.00    +0.000 A 
ENDROOT
BRANCH   6   7
ATOM      7  C   UNL     1      -6.551   0.322 131.945  0.00  0.00    +0.000 C 
ATOM      8  O   UNL     1      -5.595   0.120 132.708  0.00  0.00    +0.000 OA
ATOM      9  N   UNL     1      -7.296   1.538 131.996  0.00  0.00    +0.000 N 
ATOM     10  C   UNL     1      -6.603   2.797 131.573  0.00  0.00    +0.000 C 
ATOM     11  C   UNL     1      -7.189   4.044 132.245  0.00  0.00    +0.000 C 
ATOM     12  C   UNL     1      -8.939   4.494 131.744  0.00  0.00    +0.000 C 
ATOM     13  C   UNL     1      -9.431   2.829 132.431  0.00  0.00    +0.000 C 
ATOM     14  C   UNL     1      -8.764   1.560 131.820  0.00  0.00    +0.000 C 
BRANCH  12  15
ATOM     15  N   UNL     1      -9.616   5.967 130.826  0.00  0.00    +0.000 N 
ATOM     16  C   UNL     1     -10.135   4.923 130.018  0.00  0.00    +0.000 C 
ATOM     17  O   UNL     1      -9.450   4.129 129.351  0.00  0.00    +0.000 OA
ATOM     18  O   UNL     1     -11.439   4.719 130.169  0.00  0.00    +0.000 OA
ATOM     19  C   UNL     1     -11.856   5.640 129.232  0.00  0.00    +0.000 C 
ATOM     20  C   UNL     1     -12.029   6.801 130.122  0.00  0.00    +0.000 A 
ATOM     21  C   UNL     1     -12.559   7.560 131.212  0.00  0.00    +0.000 A 
ATOM     22  C   UNL     1     -13.185   8.830 130.975  0.00  0.00    +0.000 A 
ATOM     23  C   UNL     1     -12.889   9.295 129.751  0.00  0.00    +0.000 A 
ATOM     24  C   UNL     1     -11.560   8.558 129.268  0.00  0.00    +0.000 A 
ATOM     25  C   UNL     1     -10.893   7.227 130.019  0.00  0.00    +0.000 A 
ENDBRANCH  12  15
ENDBRANCH   6   7
BRANCH   1  27
ATOM     26  C   UNL     1      -6.544  -3.827 132.049  0.00  0.00    +0.000 C 
ATOM     27  O   UNL     1      -7.525  -2.834 131.961  0.00  0.00    +0.000 OA
ENDBRANCH   1  27
BRANCH   3  28
ATOM     28  O   UNL     1      -7.277  -3.086 127.286  0.00  0.00    +0.000 OA
BRANCH  28  29
ATOM     29  C   UNL     1      -8.424  -3.232 126.359  0.00  0.00    +0.000 C 
ATOM     30  C   UNL     1      -8.164  -3.871 124.965  0.00  0.00    +0.000 C 
ATOM     31  C   UNL     1      -7.438  -2.980 123.959  0.00  0.00    +0.000 C 
ATOM     32  N   UNL     1      -8.119  -1.649 123.880  0.00  0.00    +0.000 NA
ATOM     33  C   UNL     1      -8.625  -1.123 125.160  0.00  0.00    +0.000 C 
ATOM     34  C   UNL     1      -9.251  -1.972 126.206  0.00  0.00    +0.000 C 
BRANCH  32  35
ATOM     35  C   UNL     1      -7.284  -0.599 123.235  0.00  0.00    +0.000 C 
BRANCH  35  36
ATOM     36  C   UNL     1      -7.609   0.846 123.551  0.00  0.00    +0.000 A 
ATOM     37  C   UNL     1      -6.664   1.464 124.380  0.00  0.00    +0.000 A 
ATOM     38  C   UNL     1      -6.853   2.774 124.759  0.00  0.00    +0.000 A 
ATOM     39  C   UNL     1      -7.976   3.430 124.295  0.00  0.00    +0.000 A 
ATOM     40  N   UNL     1      -8.938   2.867 123.547  0.00  0.00    +0.000 NA
ATOM     41  C   UNL     1      -8.798   1.572 123.210  0.00  0.00    +0.000 A 
ATOM     42  C   UNL     1     -10.042   1.084 122.493  0.00  0.00    +0.000 C 
ENDBRANCH  35  36
ENDBRANCH  32  35
ENDBRANCH  28  29
ENDBRANCH   3  28
TORSDOF 7
ENDMDL
MODEL 4
REMARK VINA RESULT:      -9.8      4.008      6.440
REMARK  Name = CHEMBL69520
REMARK  9 active torsions:
REMARK  status: ('A' for Active; 'I' for Inactive)
REMARK    1  A    between atoms: C_1  and  O_2
REMARK    2  A    between atoms: O_2  and  C_3
REMARK    3  A    between atoms: C_5  and  O_6
REMARK    4  A    between atoms: O_6  and  C_7
REMARK    5  A    between atoms: N_10  and  C_11
REMARK    6  A    between atoms: C_11  and  C_12
REMARK    7  A    between atoms: C_17  and  C_18
REMARK    8  A    between atoms: C_23  and  C_24
REMARK    9  A    between atoms: C_29  and  N_30
REMARK                            x       y       z     vdW  Elec       q    Type
REMARK                         _______ _______ _______ _____ _____    ______ ____
ROOT
ATOM      1  C   UNL     1      -8.336   1.496 125.348  0.00  0.00    +0.000 A 
ATOM      2  C   UNL     1      -9.150   0.308 125.230  0.00  0.00    +0.000 A 
ATOM      3  C   UNL     1      -8.870  -0.623 124.293  0.00  0.00    +0.000 A 
ATOM      4  C   UNL     1      -7.913  -0.121 123.480  0.00  0.00    +0.000 A 
ATOM      5  C   UNL     1      -7.068   0.973 123.514  0.00  0.00    +0.000 A 
ATOM      6  C   UNL     1      -7.244   1.851 124.507  0.00  0.00    +0.000 A 
ENDROOT
BRANCH   6   7
ATOM      7  C   UNL     1      -6.289   3.036 124.399  0.00  0.00    +0.000 C 
ATOM      8  O   UNL     1      -6.361   3.742 123.382  0.00  0.00    +0.000 OA
ATOM      9  N   UNL     1      -5.423   3.377 125.480  0.00  0.00    +0.000 N 
ATOM     10  C   UNL     1      -5.751   4.605 126.273  0.00  0.00    +0.000 C 
ATOM     11  C   UNL     1      -4.511   5.235 126.919  0.00  0.00    +0.000 C 
ATOM     12  C   UNL     1      -3.695   4.225 128.272  0.00  0.00    +0.000 C 
ATOM     13  C   UNL     1      -3.421   2.922 126.962  0.00  0.00    +0.000 C 
ATOM     14  C   UNL     1      -4.671   2.349 126.230  0.00  0.00    +0.000 C 
BRANCH  12  15
ATOM     15  N   UNL     1      -3.503   4.542 130.098  0.00  0.00    +0.000 N 
ATOM     16  C   UNL     1      -3.056   5.789 129.590  0.00  0.00    +0.000 C 
ATOM     17  O   UNL     1      -2.039   5.954 128.894  0.00  0.00    +0.000 OA
ATOM     18  O   UNL     1      -3.924   6.782 129.751  0.00  0.00    +0.000 OA
ATOM     19  C   UNL     1      -3.508   7.155 131.012  0.00  0.00    +0.000 C 
ATOM     20  C   UNL     1      -4.439   6.335 131.807  0.00  0.00    +0.000 A 
ATOM     21  C   UNL     1      -5.701   5.860 132.283  0.00  0.00    +0.000 A 
ATOM     22  C   UNL     1      -6.004   5.890 133.686  0.00  0.00    +0.000 A 
ATOM     23  C   UNL     1      -4.894   6.072 134.418  0.00  0.00    +0.000 A 
ATOM     24  C   UNL     1      -3.651   5.637 133.518  0.00  0.00    +0.000 A 
ATOM     25  C   UNL     1      -3.730   5.348 131.878  0.00  0.00    +0.000 A 
ENDBRANCH  12  15
ENDBRANCH   6   7
BRANCH   1  27
ATOM     26  C   UNL     1      -8.375   1.540 127.600  0.00  0.00    +0.000 C 
ATOM     27  O   UNL     1      -8.757   2.209 126.432  0.00  0.00    +0.000 OA
ENDBRANCH   1  27
BRANCH   3  28
ATOM     28  O   UNL     1      -9.420  -1.865 124.208  0.00  0.00    +0.000 OA
BRANCH  28  29
ATOM     29  C   UNL     1      -8.922  -3.077 124.901  0.00  0.00    +0.000 C 
ATOM     30  C   UNL     1      -9.088  -3.159 126.445  0.00  0.00    +0.000 C 
ATOM     31  C   UNL     1      -8.136  -2.281 127.255  0.00  0.00    +0.000 C 
ATOM     32  N   UNL     1      -6.728  -2.508 126.800  0.00  0.00    +0.000 NA
ATOM     33  C   UNL     1      -6.559  -2.705 125.349  0.00  0.00    +0.000 C 
ATOM     34  C   UNL     1      -7.514  -3.472 124.508  0.00  0.00    +0.000 C 
BRANCH  32  35
ATOM     35  C   UNL     1      -5.787  -1.445 127.244  0.00  0.00    +0.000 C 
BRANCH  35  36
ATOM     36  C   UNL     1      -4.977  -1.706 128.498  0.00  0.00    +0.000 A 
ATOM     37  C   UNL     1      -4.571  -3.039 128.635  0.00  0.00    +0.000 A 
ATOM     38  C   UNL     1      -3.843  -3.412 129.743  0.00  0.00    +0.000 A 
ATOM     39  C   UNL     1      -3.538  -2.443 130.677  0.00  0.00    +0.000 A 
ATOM     40  N   UNL     1      -3.951  -1.167 130.620  0.00  0.00    +0.000 NA
ATOM     41  C   UNL     1      -4.708  -0.795 129.572  0.00  0.00    +0.000 A 
ATOM     42  C   UNL     1      -5.189   0.631 129.759  0.00  0.00    +0.000 C 
ENDBRANCH  35  36
ENDBRANCH  32  35
ENDBRANCH  28  29
ENDBRANCH   3  28
TORSDOF 7
ENDMDL
MODEL 5
REMARK VINA RESULT:      -9.7      3.849      6.490
REMARK  Name = CHEMBL69520
REMARK  9 active torsions:
REMARK  status: ('A' for Active; 'I' for Inactive)
REMARK    1  A    between atoms: C_1  and  O_2
REMARK    2  A    between atoms: O_2  and  C_3
REMARK    3  A    between atoms: C_5  and  O_6
REMARK    4  A    between atoms: O_6  and  C_7
REMARK    5  A    between atoms: N_10  and  C_11
REMARK    6  A    between atoms: C_11  and  C_12
REMARK    7  A    between atoms: C_17  and  C_18
REMARK    8  A    between atoms: C_23  and  C_24
REMARK    9  A    between atoms: C_29  and  N_30
REMARK                            x       y       z     vdW  Elec       q    Type
REMARK                         _______ _______ _______ _____ _____    ______ ____
ROOT
ATOM      1  C   UNL     1      -5.724   1.294 132.430  0.00  0.00    +0.000 A 
ATOM      2  C   UNL     1      -5.965  -0.105 132.704  0.00  0.00    +0.000 A 
ATOM      3  C   UNL     1      -6.040  -0.550 133.976  0.00  0.00    +0.000 A 
ATOM      4  C   UNL     1      -5.667   0.461 134.794  0.00  0.00    +0.000 A 
ATOM      5  C   UNL     1      -5.442   1.816 134.642  0.00  0.00    +0.000 A 
ATOM      6  C   UNL     1      -5.485   2.308 133.399  0.00  0.00    +0.000 A 
ENDROOT
BRANCH   6   7
ATOM      7  C   UNL     1      -5.166   3.799 133.363  0.00  0.00    +0.000 C 
ATOM      8  O   UNL     1      -4.029   4.154 133.710  0.00  0.00    +0.000 OA
ATOM      9  N   UNL     1      -6.109   4.736 132.845  0.00  0.00    +0.000 N 
ATOM     10  C   UNL     1      -5.818   5.349 131.509  0.00  0.00    +0.000 C 
ATOM     11  C   UNL     1      -6.462   6.730 131.344  0.00  0.00    +0.000 C 
ATOM     12  C   UNL     1      -8.336   6.752 131.271  0.00  0.00    +0.000 C 
ATOM     13  C   UNL     1      -8.288   6.019 132.988  0.00  0.00    +0.000 C 
ATOM     14  C   UNL     1      -7.546   4.662 133.182  0.00  0.00    +0.000 C 
BRANCH  12  15
ATOM     15  N   UNL     1      -9.508   7.212 129.898  0.00  0.00    +0.000 N 
ATOM     16  C   UNL     1     -10.009   5.924 130.219  0.00  0.00    +0.000 C 
ATOM     17  O   UNL     1      -9.386   4.859 130.074  0.00  0.00    +0.000 OA
ATOM     18  O   UNL     1     -11.159   5.941 130.884  0.00  0.00    +0.000 OA
ATOM     19  C   UNL     1     -11.984   5.978 129.779  0.00  0.00    +0.000 C 
ATOM     20  C   UNL     1     -12.136   7.438 129.663  0.00  0.00    +0.000 A 
ATOM     21  C   UNL     1     -12.494   8.763 130.065  0.00  0.00    +0.000 A 
ATOM     22  C   UNL     1     -13.396   9.544 129.268  0.00  0.00    +0.000 A 
ATOM     23  C   UNL     1     -13.535   9.021 128.040  0.00  0.00    +0.000 A 
ATOM     24  C   UNL     1     -12.266   8.094 127.768  0.00  0.00    +0.000 A 
ATOM     25  C   UNL     1     -11.176   7.622 128.938  0.00  0.00    +0.000 A 
ENDBRANCH  12  15
ENDBRANCH   6   7
BRANCH   1  27
ATOM     26  C   UNL     1      -7.057   1.062 130.629  0.00  0.00    +0.000 C 
ATOM     27  O   UNL     1      -5.808   1.497 131.084  0.00  0.00    +0.000 OA
ENDBRANCH   1  27
BRANCH   3  28
ATOM     28  O   UNL     1      -6.459  -1.783 134.370  0.00  0.00    +0.000 OA
BRANCH  28  29
ATOM     29  C   UNL     1      -5.580  -2.898 134.797  0.00  0.00    +0.000 C 
ATOM     30  C   UNL     1      -4.172  -3.011 134.146  0.00  0.00    +0.000 C 
ATOM     31  C   UNL     1      -4.154  -3.521 132.706  0.00  0.00    +0.000 C 
ATOM     32  N   UNL     1      -4.954  -4.783 132.606  0.00  0.00    +0.000 NA
ATOM     33  C   UNL     1      -6.176  -4.820 133.429  0.00  0.00    +0.000 C 
ATOM     34  C   UNL     1      -6.262  -4.249 134.798  0.00  0.00    +0.000 C 
BRANCH  32  35
ATOM     35  C   UNL     1      -5.314  -5.142 131.208  0.00  0.00    +0.000 C 
BRANCH  35  36
ATOM     36  C   UNL     1      -5.551  -4.008 130.232  0.00  0.00    +0.000 A 
ATOM     37  C   UNL     1      -6.892  -3.611 130.148  0.00  0.00    +0.000 A 
ATOM     38  C   UNL     1      -7.244  -2.602 129.282  0.00  0.00    +0.000 A 
ATOM     39  C   UNL     1      -6.248  -2.015 128.528  0.00  0.00    +0.000 A 
ATOM     40  N   UNL     1      -4.961  -2.396 128.529  0.00  0.00    +0.000 NA
ATOM     41  C   UNL     1      -4.605  -3.416 129.331  0.00  0.00    +0.000 A 
ATOM     42  C   UNL     1      -3.156  -3.788 129.088  0.00  0.00    +0.000 C 
ENDBRANCH  35  36
ENDBRANCH  32  35
ENDBRANCH  28  29
ENDBRANCH   3  28
TORSDOF 7
ENDMDL
MODEL 6
REMARK VINA RESULT:      -9.6      2.692      7.924
REMARK  Name = CHEMBL69520
REMARK  9 active torsions:
REMARK  status: ('A' for Active; 'I' for Inactive)
REMARK    1  A    between atoms: C_1  and  O_2
REMARK    2  A    between atoms: O_2  and  C_3
REMARK    3  A    between atoms: C_5  and  O_6
REMARK    4  A    between atoms: O_6  and  C_7
REMARK    5  A    between atoms: N_10  and  C_11
REMARK    6  A    between atoms: C_11  and  C_12
REMARK    7  A    between atoms: C_17  and  C_18
REMARK    8  A    between atoms: C_23  and  C_24
REMARK    9  A    between atoms: C_29  and  N_30
REMARK                            x       y       z     vdW  Elec       q    Type
REMARK                         _______ _______ _______ _____ _____    ______ ____
ROOT
ATOM      1  C   UNL     1      -6.114  -0.852 131.276  0.00  0.00    +0.000 A 
ATOM      2  C   UNL     1      -6.330   0.157 132.288  0.00  0.00    +0.000 A 
ATOM      3  C   UNL     1      -7.500   0.827 132.348  0.00  0.00    +0.000 A 
ATOM      4  C   UNL     1      -8.218   0.511 131.246  0.00  0.00    +0.000 A 
ATOM      5  C   UNL     1      -8.117  -0.439 130.246  0.00  0.00    +0.000 A 
ATOM      6  C   UNL     1      -7.021  -1.204 130.237  0.00  0.00    +0.000 A 
ENDROOT
BRANCH   6   7
ATOM      7  C   UNL     1      -7.006  -2.169 129.056  0.00  0.00    +0.000 C 
ATOM      8  O   UNL     1      -7.188  -3.372 129.293  0.00  0.00    +0.000 OA
ATOM      9  N   UNL     1      -6.895  -1.684 127.719  0.00  0.00    +0.000 N 
ATOM     10  C   UNL     1      -8.118  -1.740 126.856  0.00  0.00    +0.000 C 
ATOM     11  C   UNL     1      -7.779  -1.835 125.363  0.00  0.00    +0.000 C 
ATOM     12  C   UNL     1      -6.964  -0.321 124.615  0.00  0.00    +0.000 C 
ATOM     13  C   UNL     1      -5.582  -0.615 125.836  0.00  0.00    +0.000 C 
ATOM     14  C   UNL     1      -5.937  -0.619 127.353  0.00  0.00    +0.000 C 
BRANCH  12  15
ATOM     15  N   UNL     1      -7.555   0.881 123.320  0.00  0.00    +0.000 N 
ATOM     16  C   UNL     1      -7.656   1.702 124.473  0.00  0.00    +0.000 C 
ATOM     17  O   UNL     1      -8.427   1.501 125.427  0.00  0.00    +0.000 OA
ATOM     18  O   UNL     1      -6.710   2.630 124.561  0.00  0.00    +0.000 OA
ATOM     19  C   UNL     1      -7.364   3.596 123.825  0.00  0.00    +0.000 C 
ATOM     20  C   UNL     1      -6.804   3.284 122.499  0.00  0.00    +0.000 A 
ATOM     21  C   UNL     1      -5.793   3.104 121.503  0.00  0.00    +0.000 A 
ATOM     22  C   UNL     1      -5.850   3.839 120.271  0.00  0.00    +0.000 A 
ATOM     23  C   UNL     1      -7.065   4.378 120.084  0.00  0.00    +0.000 A 
ATOM     24  C   UNL     1      -8.095   3.560 120.985  0.00  0.00    +0.000 A 
ATOM     25  C   UNL     1      -7.655   2.477 122.174  0.00  0.00    +0.000 A 
ENDBRANCH  12  15
ENDBRANCH   6   7
BRANCH   1  27
ATOM     26  C   UNL     1      -5.004  -2.255 132.644  0.00  0.00    +0.000 C 
ATOM     27  O   UNL     1      -4.909  -1.450 131.505  0.00  0.00    +0.000 OA
ENDBRANCH   1  27
BRANCH   3  28
ATOM     28  O   UNL     1      -7.906   1.642 133.359  0.00  0.00    +0.000 OA
BRANCH  28  29
ATOM     29  C   UNL     1      -7.556   3.076 133.504  0.00  0.00    +0.000 C 
ATOM     30  C   UNL     1      -8.618   4.030 134.121  0.00  0.00    +0.000 C 
ATOM     31  C   UNL     1      -9.789   4.388 133.207  0.00  0.00    +0.000 C 
ATOM     32  N   UNL     1      -9.272   4.857 131.883  0.00  0.00    +0.000 NA
ATOM     33  C   UNL     1      -8.085   4.141 131.381  0.00  0.00    +0.000 C 
ATOM     34  C   UNL     1      -6.968   3.692 132.252  0.00  0.00    +0.000 C 
BRANCH  32  35
ATOM     35  C   UNL     1     -10.307   4.860 130.815  0.00  0.00    +0.000 C 
BRANCH  35  36
ATOM     36  C   UNL     1     -11.054   6.154 130.566  0.00  0.00    +0.000 A 
ATOM     37  C   UNL     1     -12.028   6.433 131.533  0.00  0.00    +0.000 A 
ATOM     38  C   UNL     1     -12.792   7.572 131.412  0.00  0.00    +0.000 A 
ATOM     39  C   UNL     1     -12.558   8.400 130.333  0.00  0.00    +0.000 A 
ATOM     40  N   UNL     1     -11.679   8.149 129.351  0.00  0.00    +0.000 NA
ATOM     41  C   UNL     1     -10.959   7.015 129.423  0.00  0.00    +0.000 A 
ATOM     42  C   UNL     1     -10.134   6.842 128.163  0.00  0.00    +0.000 C 
ENDBRANCH  35  36
ENDBRANCH  32  35
ENDBRANCH  28  29
ENDBRANCH   3  28
TORSDOF 7
ENDMDL
MODEL 7
REMARK VINA RESULT:      -9.5      3.059      5.178
REMARK  Name = CHEMBL69520
REMARK  9 active torsions:
REMARK  status: ('A' for Active; 'I' for Inactive)
REMARK    1  A    between atoms: C_1  and  O_2
REMARK    2  A    between atoms: O_2  and  C_3
REMARK    3  A    between atoms: C_5  and  O_6
REMARK    4  A    between atoms: O_6  and  C_7
REMARK    5  A    between atoms: N_10  and  C_11
REMARK    6  A    between atoms: C_11  and  C_12
REMARK    7  A    between atoms: C_17  and  C_18
REMARK    8  A    between atoms: C_23  and  C_24
REMARK    9  A    between atoms: C_29  and  N_30
REMARK                            x       y       z     vdW  Elec       q    Type
REMARK                         _______ _______ _______ _____ _____    ______ ____
ROOT
ATOM      1  C   UNL     1      -4.211   0.915 131.394  0.00  0.00    +0.000 A 
ATOM      2  C   UNL     1      -4.163  -0.500 131.104  0.00  0.00    +0.000 A 
ATOM      3  C   UNL     1      -3.603  -1.360 131.981  0.00  0.00    +0.000 A 
ATOM      4  C   UNL     1      -2.996  -0.634 132.946  0.00  0.00    +0.000 A 
ATOM      5  C   UNL     1      -2.997   0.696 133.325  0.00  0.00    +0.000 A 
ATOM      6  C   UNL     1      -3.653   1.555 132.537  0.00  0.00    +0.000 A 
ENDROOT
BRANCH   6   7
ATOM      7  C   UNL     1      -3.532   2.993 133.032  0.00  0.00    +0.000 C 
ATOM      8  O   UNL     1      -2.425   3.367 133.448  0.00  0.00    +0.000 OA
ATOM      9  N   UNL     1      -4.627   3.900 132.918  0.00  0.00    +0.000 N 
ATOM     10  C   UNL     1      -4.529   4.982 131.886  0.00  0.00    +0.000 C 
ATOM     11  C   UNL     1      -5.356   6.219 132.253  0.00  0.00    +0.000 C 
ATOM     12  C   UNL     1      -7.217   5.984 132.251  0.00  0.00    +0.000 C 
ATOM     13  C   UNL     1      -6.932   4.708 133.584  0.00  0.00    +0.000 C 
ATOM     14  C   UNL     1      -6.010   3.497 133.251  0.00  0.00    +0.000 C 
BRANCH  12  15
ATOM     15  N   UNL     1      -8.549   6.719 131.176  0.00  0.00    +0.000 N 
ATOM     16  C   UNL     1      -8.571   5.382 130.703  0.00  0.00    +0.000 C 
ATOM     17  O   UNL     1      -7.635   4.819 130.110  0.00  0.00    +0.000 OA
ATOM     18  O   UNL     1      -9.621   4.680 131.113  0.00  0.00    +0.000 OA
ATOM     19  C   UNL     1     -10.470   5.047 130.089  0.00  0.00    +0.000 C 
ATOM     20  C   UNL     1     -11.109   6.207 130.734  0.00  0.00    +0.000 A 
ATOM     21  C   UNL     1     -11.868   6.917 131.716  0.00  0.00    +0.000 A 
ATOM     22  C   UNL     1     -13.022   7.678 131.330  0.00  0.00    +0.000 A 
ATOM     23  C   UNL     1     -13.044   7.885 130.004  0.00  0.00    +0.000 A 
ATOM     24  C   UNL     1     -11.555   7.700 129.466  0.00  0.00    +0.000 A 
ATOM     25  C   UNL     1     -10.307   7.039 130.353  0.00  0.00    +0.000 A 
ENDBRANCH  12  15
ENDBRANCH   6   7
BRANCH   1  27
ATOM     26  C   UNL     1      -4.100   1.725 129.295  0.00  0.00    +0.000 C 
ATOM     27  O   UNL     1      -4.922   1.540 130.412  0.00  0.00    +0.000 OA
ENDBRANCH   1  27
BRANCH   3  28
ATOM     28  O   UNL     1      -3.674  -2.718 131.927  0.00  0.00    +0.000 OA
BRANCH  28  29
ATOM     29  C   UNL     1      -4.823  -3.540 132.377  0.00  0.00    +0.000 C 
ATOM     30  C   UNL     1      -5.493  -4.490 131.344  0.00  0.00    +0.000 C 
ATOM     31  C   UNL     1      -6.367  -3.806 130.294  0.00  0.00    +0.000 C 
ATOM     32  N   UNL     1      -7.338  -2.885 130.966  0.00  0.00    +0.000 NA
ATOM     33  C   UNL     1      -6.809  -2.155 132.132  0.00  0.00    +0.000 C 
ATOM     34  C   UNL     1      -5.880  -2.755 133.124  0.00  0.00    +0.000 C 
BRANCH  32  35
ATOM     35  C   UNL     1      -7.957  -1.903 130.036  0.00  0.00    +0.000 C 
BRANCH  35  36
ATOM     36  C   UNL     1      -7.514  -1.933 128.588  0.00  0.00    +0.000 A 
ATOM     37  C   UNL     1      -6.652  -0.885 128.243  0.00  0.00    +0.000 A 
ATOM     38  C   UNL     1      -6.192  -0.787 126.950  0.00  0.00    +0.000 A 
ATOM     39  C   UNL     1      -6.601  -1.741 126.040  0.00  0.00    +0.000 A 
ATOM     40  N   UNL     1      -7.469  -2.730 126.305  0.00  0.00    +0.000 NA
ATOM     41  C   UNL     1      -7.971  -2.812 127.550  0.00  0.00    +0.000 A 
ATOM     42  C   UNL     1      -9.031  -3.895 127.613  0.00  0.00    +0.000 C 
ENDBRANCH  35  36
ENDBRANCH  32  35
ENDBRANCH  28  29
ENDBRANCH   3  28
TORSDOF 7
ENDMDL
MODEL 8
REMARK VINA RESULT:      -9.5      3.499      7.919
REMARK  Name = CHEMBL69520
REMARK  9 active torsions:
REMARK  status: ('A' for Active; 'I' for Inactive)
REMARK    1  A    between atoms: C_1  and  O_2
REMARK    2  A    between atoms: O_2  and  C_3
REMARK    3  A    between atoms: C_5  and  O_6
REMARK    4  A    between atoms: O_6  and  C_7
REMARK    5  A    between atoms: N_10  and  C_11
REMARK    6  A    between atoms: C_11  and  C_12
REMARK    7  A    between atoms: C_17  and  C_18
REMARK    8  A    between atoms: C_23  and  C_24
REMARK    9  A    between atoms: C_29  and  N_30
REMARK                            x       y       z     vdW  Elec       q    Type
REMARK                         _______ _______ _______ _____ _____    ______ ____
ROOT
ATOM      1  C   UNL     1      -6.018  -0.905 131.309  0.00  0.00    +0.000 A 
ATOM      2  C   UNL     1      -6.262   0.095 132.325  0.00  0.00    +0.000 A 
ATOM      3  C   UNL     1      -7.435   0.762 132.361  0.00  0.00    +0.000 A 
ATOM      4  C   UNL     1      -8.123   0.455 131.238  0.00  0.00    +0.000 A 
ATOM      5  C   UNL     1      -7.996  -0.485 130.233  0.00  0.00    +0.000 A 
ATOM      6  C   UNL     1      -6.898  -1.249 130.245  0.00  0.00    +0.000 A 
ENDROOT
BRANCH   6   7
ATOM      7  C   UNL     1      -6.852  -2.202 129.055  0.00  0.00    +0.000 C 
ATOM      8  O   UNL     1      -6.993  -3.413 129.282  0.00  0.00    +0.000 OA
ATOM      9  N   UNL     1      -6.759  -1.703 127.722  0.00  0.00    +0.000 N 
ATOM     10  C   UNL     1      -7.980  -1.793 126.859  0.00  0.00    +0.000 C 
ATOM     11  C   UNL     1      -7.640  -1.864 125.366  0.00  0.00    +0.000 C 
ATOM     12  C   UNL     1      -6.877  -0.317 124.630  0.00  0.00    +0.000 C 
ATOM     13  C   UNL     1      -5.485  -0.574 125.847  0.00  0.00    +0.000 C 
ATOM     14  C   UNL     1      -5.838  -0.603 127.365  0.00  0.00    +0.000 C 
BRANCH  12  15
ATOM     15  N   UNL     1      -7.510   0.875 123.345  0.00  0.00    +0.000 N 
ATOM     16  C   UNL     1      -7.597   1.697 124.498  0.00  0.00    +0.000 C 
ATOM     17  O   UNL     1      -8.345   1.489 125.469  0.00  0.00    +0.000 OA
ATOM     18  O   UNL     1      -6.661   2.637 124.564  0.00  0.00    +0.000 OA
ATOM     19  C   UNL     1      -7.341   3.593 123.841  0.00  0.00    +0.000 C 
ATOM     20  C   UNL     1      -6.806   3.285 122.503  0.00  0.00    +0.000 A 
ATOM     21  C   UNL     1      -5.815   3.115 121.487  0.00  0.00    +0.000 A 
ATOM     22  C   UNL     1      -5.906   3.847 120.255  0.00  0.00    +0.000 A 
ATOM     23  C   UNL     1      -7.132   4.371 120.093  0.00  0.00    +0.000 A 
ATOM     24  C   UNL     1      -8.132   3.542 121.017  0.00  0.00    +0.000 A 
ATOM     25  C   UNL     1      -7.654   2.467 122.198  0.00  0.00    +0.000 A 
ENDBRANCH  12  15
ENDBRANCH   6   7
BRANCH   1  27
ATOM     26  C   UNL     1      -3.875  -1.055 130.633  0.00  0.00    +0.000 C 
ATOM     27  O   UNL     1      -4.819  -1.503 131.563  0.00  0.00    +0.000 OA
ENDBRANCH   1  27
BRANCH   3  28
ATOM     28  O   UNL     1      -7.867   1.568 133.369  0.00  0.00    +0.000 OA
BRANCH  28  29
ATOM     29  C   UNL     1      -7.713   3.041 133.422  0.00  0.00    +0.000 C 
ATOM     30  C   UNL     1      -7.686   3.825 132.079  0.00  0.00    +0.000 C 
ATOM     31  C   UNL     1      -6.395   3.698 131.271  0.00  0.00    +0.000 C 
ATOM     32  N   UNL     1      -5.218   3.991 132.149  0.00  0.00    +0.000 NA
ATOM     33  C   UNL     1      -5.323   3.488 133.531  0.00  0.00    +0.000 C 
ATOM     34  C   UNL     1      -6.583   3.505 134.318  0.00  0.00    +0.000 C 
BRANCH  32  35
ATOM     35  C   UNL     1      -3.926   3.528 131.575  0.00  0.00    +0.000 C 
BRANCH  35  36
ATOM     36  C   UNL     1      -3.340   4.331 130.432  0.00  0.00    +0.000 A 
ATOM     37  C   UNL     1      -2.902   5.607 130.810  0.00  0.00    +0.000 A 
ATOM     38  C   UNL     1      -2.366   6.445 129.859  0.00  0.00    +0.000 A 
ATOM     39  C   UNL     1      -2.278   5.984 128.561  0.00  0.00    +0.000 A 
ATOM     40  N   UNL     1      -2.733   4.795 128.138  0.00  0.00    +0.000 NA
ATOM     41  C   UNL     1      -3.309   3.981 129.042  0.00  0.00    +0.000 A 
ATOM     42  C   UNL     1      -3.882   2.759 128.351  0.00  0.00    +0.000 C 
ENDBRANCH  35  36
ENDBRANCH  32  35
ENDBRANCH  28  29
ENDBRANCH   3  28
TORSDOF 7
ENDMDL
MODEL 9
REMARK VINA RESULT:      -9.5      3.158      5.044
REMARK  Name = CHEMBL69520
REMARK  9 active torsions:
REMARK  status: ('A' for Active; 'I' for Inactive)
REMARK    1  A    between atoms: C_1  and  O_2
REMARK    2  A    between atoms: O_2  and  C_3
REMARK    3  A    between atoms: C_5  and  O_6
REMARK    4  A    between atoms: O_6  and  C_7
REMARK    5  A    between atoms: N_10  and  C_11
REMARK    6  A    between atoms: C_11  and  C_12
REMARK    7  A    between atoms: C_17  and  C_18
REMARK    8  A    between atoms: C_23  and  C_24
REMARK    9  A    between atoms: C_29  and  N_30
REMARK                            x       y       z     vdW  Elec       q    Type
REMARK                         _______ _______ _______ _____ _____    ______ ____
ROOT
ATOM      1  C   UNL     1      -5.656   1.007 134.194  0.00  0.00    +0.000 A 
ATOM      2  C   UNL     1      -6.122  -0.338 133.944  0.00  0.00    +0.000 A 
ATOM      3  C   UNL     1      -6.594  -0.683 132.727  0.00  0.00    +0.000 A 
ATOM      4  C   UNL     1      -6.704   0.444 131.988  0.00  0.00    +0.000 A 
ATOM      5  C   UNL     1      -6.275   1.752 132.119  0.00  0.00    +0.000 A 
ATOM      6  C   UNL     1      -5.689   2.091 133.272  0.00  0.00    +0.000 A 
ENDROOT
BRANCH   6   7
ATOM      7  C   UNL     1      -5.315   3.569 133.310  0.00  0.00    +0.000 C 
ATOM      8  O   UNL     1      -4.168   3.864 133.678  0.00  0.00    +0.000 OA
ATOM      9  N   UNL     1      -6.221   4.564 132.836  0.00  0.00    +0.000 N 
ATOM     10  C   UNL     1      -5.900   5.231 131.533  0.00  0.00    +0.000 C 
ATOM     11  C   UNL     1      -6.493   6.641 131.434  0.00  0.00    +0.000 C 
ATOM     12  C   UNL     1      -8.364   6.735 131.356  0.00  0.00    +0.000 C 
ATOM     13  C   UNL     1      -8.352   5.918 133.035  0.00  0.00    +0.000 C 
ATOM     14  C   UNL     1      -7.662   4.527 133.164  0.00  0.00    +0.000 C 
BRANCH  12  15
ATOM     15  N   UNL     1      -9.512   7.305 130.004  0.00  0.00    +0.000 N 
ATOM     16  C   UNL     1     -10.004   5.989 130.196  0.00  0.00    +0.000 C 
ATOM     17  O   UNL     1      -9.365   4.947 129.970  0.00  0.00    +0.000 OA
ATOM     18  O   UNL     1     -11.168   5.934 130.833  0.00  0.00    +0.000 OA
ATOM     19  C   UNL     1     -11.969   6.062 129.718  0.00  0.00    +0.000 C 
ATOM     20  C   UNL     1     -12.137   7.525 129.730  0.00  0.00    +0.000 A 
ATOM     21  C   UNL     1     -12.519   8.805 130.241  0.00  0.00    +0.000 A 
ATOM     22  C   UNL     1     -13.414   9.645 129.497  0.00  0.00    +0.000 A 
ATOM     23  C   UNL     1     -13.519   9.233 128.224  0.00  0.00    +0.000 A 
ATOM     24  C   UNL     1     -12.234   8.348 127.899  0.00  0.00    +0.000 A 
ATOM     25  C   UNL     1     -11.163   7.783 129.046  0.00  0.00    +0.000 A 
ENDBRANCH  12  15
ENDBRANCH   6   7
BRANCH   1  27
ATOM     26  C   UNL     1      -3.811   0.601 135.421  0.00  0.00    +0.000 C 
ATOM     27  O   UNL     1      -5.131   1.062 135.452  0.00  0.00    +0.000 OA
ENDBRANCH   1  27
BRANCH   3  28
ATOM     28  O   UNL     1      -6.868  -1.947 132.304  0.00  0.00    +0.000 OA
BRANCH  28  29
ATOM     29  C   UNL     1      -5.930  -2.835 131.575  0.00  0.00    +0.000 C 
ATOM     30  C   UNL     1      -4.705  -2.187 130.871  0.00  0.00    +0.000 C 
ATOM     31  C   UNL     1      -5.014  -1.424 129.584  0.00  0.00    +0.000 C 
ATOM     32  N   UNL     1      -5.833  -2.283 128.672  0.00  0.00    +0.000 NA
ATOM     33  C   UNL     1      -6.842  -3.126 129.338  0.00  0.00    +0.000 C 
ATOM     34  C   UNL     1      -6.614  -3.808 130.638  0.00  0.00    +0.000 C 
BRANCH  32  35
ATOM     35  C   UNL     1      -6.500  -1.518 127.585  0.00  0.00    +0.000 C 
BRANCH  35  36
ATOM     36  C   UNL     1      -6.584  -2.169 126.219  0.00  0.00    +0.000 A 
ATOM     37  C   UNL     1      -5.510  -1.849 125.379  0.00  0.00    +0.000 A 
ATOM     38  C   UNL     1      -5.477  -2.361 124.102  0.00  0.00    +0.000 A 
ATOM     39  C   UNL     1      -6.513  -3.181 123.703  0.00  0.00    +0.000 A 
ATOM     40  N   UNL     1      -7.591  -3.471 124.448  0.00  0.00    +0.000 NA
ATOM     41  C   UNL     1      -7.668  -2.938 125.681  0.00  0.00    +0.000 A 
ATOM     42  C   UNL     1      -9.011  -3.263 126.305  0.00  0.00    +0.000 C 
ENDBRANCH  35  36
ENDBRANCH  32  35
ENDBRANCH  28  29
ENDBRANCH   3  28
TORSDOF 7
ENDMDL
