MODEL 1
REMARK VINA RESULT:     -12.2      0.000      0.000
REMARK  Name = CHEMBL285820
REMARK  7 active torsions:
REMARK  status: ('A' for Active; 'I' for Inactive)
REMARK    1  A    between atoms: C_1  and  N_2
REMARK    2  A    between atoms: N_8  and  C_9
REMARK    3  A    between atoms: C_9  and  C_10
REMARK    4  A    between atoms: N_12  and  C_13
REMARK    5  A    between atoms: C_13  and  C_14
REMARK    6  A    between atoms: C_18  and  C_19
REMARK    7  A    between atoms: C_24  and  N_25
REMARK                            x       y       z     vdW  Elec       q    Type
REMARK                         _______ _______ _______ _____ _____    ______ ____
ROOT
ATOM      1  C   UNL     1      -5.406   4.172 124.443  0.00  0.00    +0.000 A 
ATOM      2  C   UNL     1      -5.875   4.707 125.620  0.00  0.00    +0.000 A 
ATOM      3  C   UNL     1      -4.879   4.554 126.590  0.00  0.00    +0.000 A 
ATOM      4  C   UNL     1      -4.800   4.899 127.951  0.00  0.00    +0.000 A 
ATOM      5  C   UNL     1      -3.645   4.571 128.669  0.00  0.00    +0.000 A 
ATOM      6  C   UNL     1      -2.617   3.899 127.992  0.00  0.00    +0.000 A 
ATOM      7  C   UNL     1      -2.652   3.586 126.623  0.00  0.00    +0.000 A 
ATOM      8  C   UNL     1      -3.821   3.918 125.953  0.00  0.00    +0.000 A 
ATOM      9  O   UNL     1      -4.135   3.682 124.635  0.00  0.00    +0.000 OA
ENDROOT
BRANCH   5  10
ATOM     10  C   UNL     1      -3.570   4.892 130.144  0.00  0.00    +0.000 C 
ATOM     11  O   UNL     1      -2.469   4.900 130.695  0.00  0.00    +0.000 OA
ATOM     12  N   UNL     1      -4.771   5.132 130.845  0.00  0.00    +0.000 N 
ATOM     13  C   UNL     1      -5.191   6.506 131.143  0.00  0.00    +0.000 C 
ATOM     14  C   UNL     1      -6.138   6.566 132.336  0.00  0.00    +0.000 C 
ATOM     15  C   UNL     1      -7.673   5.790 131.920  0.00  0.00    +0.000 C 
ATOM     16  C   UNL     1      -6.864   4.267 131.873  0.00  0.00    +0.000 C 
ATOM     17  C   UNL     1      -5.854   4.161 130.753  0.00  0.00    +0.000 C 
BRANCH  15  18
ATOM     18  N   UNL     1      -8.854   6.874 130.990  0.00  0.00    +0.000 N 
ATOM     19  C   UNL     1      -9.788   6.316 131.941  0.00  0.00    +0.000 C 
ATOM     20  O   UNL     1      -9.731   6.263 133.206  0.00  0.00    +0.000 OA
ATOM     21  O   UNL     1     -10.711   5.540 131.419  0.00  0.00    +0.000 OA
ATOM     22  C   UNL     1     -11.686   6.499 131.388  0.00  0.00    +0.000 C 
ATOM     23  C   UNL     1     -11.479   6.754 129.964  0.00  0.00    +0.000 A 
ATOM     24  C   UNL     1     -12.853   6.766 129.312  0.00  0.00    +0.000 A 
ATOM     25  C   UNL     1     -13.290   7.618 128.351  0.00  0.00    +0.000 A 
ATOM     26  C   UNL     1     -12.218   8.383 127.963  0.00  0.00    +0.000 A 
ATOM     27  C   UNL     1     -10.682   8.242 128.617  0.00  0.00    +0.000 A 
ATOM     28  C   UNL     1     -10.155   7.237 129.703  0.00  0.00    +0.000 A 
ENDBRANCH  15  18
ENDBRANCH   5  10
BRANCH   1  29
ATOM     29  C   UNL     1      -6.053   4.071 123.113  0.00  0.00    +0.000 C 
BRANCH  29  32
ATOM     30  C   UNL     1      -7.933   2.528 123.312  0.00  0.00    +0.000 C 
ATOM     31  O   UNL     1      -8.530   3.507 123.749  0.00  0.00    +0.000 OA
ATOM     32  N   UNL     1      -6.631   2.724 122.952  0.00  0.00    +0.000 N 
ATOM     33  H   UNL     1      -6.086   1.961 122.583  0.00  0.00    +0.000 HD
BRANCH  30  34
ATOM     34  C   UNL     1      -8.557   1.112 123.150  0.00  0.00    +0.000 C 
BRANCH  34  42
ATOM     35  C   UNL     1      -7.757  -2.412 128.716  0.00  0.00    +0.000 C 
ATOM     36  N   UNL     1      -8.308  -2.436 127.380  0.00  0.00    +0.000 N 
ATOM     37  N   UNL     1      -8.952  -3.542 126.928  0.00  0.00    +0.000 NA
ATOM     38  C   UNL     1      -9.319  -3.210 125.681  0.00  0.00    +0.000 A 
ATOM     39  C   UNL     1      -8.921  -1.918 125.332  0.00  0.00    +0.000 A 
ATOM     40  C   UNL     1      -9.051  -1.089 124.160  0.00  0.00    +0.000 A 
ATOM     41  O   UNL     1      -9.620  -1.474 123.142  0.00  0.00    +0.000 OA
ATOM     42  N   UNL     1      -8.466   0.179 124.307  0.00  0.00    +0.000 N 
ATOM     43  C   UNL     1      -7.837   0.501 125.508  0.00  0.00    +0.000 A 
ATOM     44  N   UNL     1      -7.709  -0.233 126.577  0.00  0.00    +0.000 NA
ATOM     45  C   UNL     1      -8.273  -1.442 126.440  0.00  0.00    +0.000 A 
ENDBRANCH  34  42
ENDBRANCH  30  34
ENDBRANCH  29  32
ENDBRANCH   1  29
TORSDOF 6
ENDMDL
MODEL 2
REMARK VINA RESULT:     -11.9      4.270      7.718
REMARK  Name = CHEMBL285820
REMARK  7 active torsions:
REMARK  status: ('A' for Active; 'I' for Inactive)
REMARK    1  A    between atoms: C_1  and  N_2
REMARK    2  A    between atoms: N_8  and  C_9
REMARK    3  A    between atoms: C_9  and  C_10
REMARK    4  A    between atoms: N_12  and  C_13
REMARK    5  A    between atoms: C_13  and  C_14
REMARK    6  A    between atoms: C_18  and  C_19
REMARK    7  A    between atoms: C_24  and  N_25
REMARK                            x       y       z     vdW  Elec       q    Type
REMARK                         _______ _______ _______ _____ _____    ______ ____
ROOT
ATOM      1  C   UNL     1      -7.896  -1.883 124.817  0.00  0.00    +0.000 A 
ATOM      2  C   UNL     1      -6.822  -1.706 125.658  0.00  0.00    +0.000 A 
ATOM      3  C   UNL     1      -7.107  -2.355 126.864  0.00  0.00    +0.000 A 
ATOM      4  C   UNL     1      -6.396  -2.504 128.067  0.00  0.00    +0.000 A 
ATOM      5  C   UNL     1      -6.987  -3.205 129.124  0.00  0.00    +0.000 A 
ATOM      6  C   UNL     1      -8.277  -3.721 128.931  0.00  0.00    +0.000 A 
ATOM      7  C   UNL     1      -8.989  -3.627 127.723  0.00  0.00    +0.000 A 
ATOM      8  C   UNL     1      -8.369  -2.913 126.707  0.00  0.00    +0.000 A 
ATOM      9  O   UNL     1      -8.860  -2.630 125.454  0.00  0.00    +0.000 OA
ENDROOT
BRANCH   5  10
ATOM     10  C   UNL     1      -6.254  -3.329 130.438  0.00  0.00    +0.000 C 
ATOM     11  O   UNL     1      -6.125  -4.443 130.946  0.00  0.00    +0.000 OA
ATOM     12  N   UNL     1      -5.778  -2.154 131.059  0.00  0.00    +0.000 N 
ATOM     13  C   UNL     1      -4.363  -1.782 130.950  0.00  0.00    +0.000 C 
ATOM     14  C   UNL     1      -3.924  -0.868 132.089  0.00  0.00    +0.000 C 
ATOM     15  C   UNL     1      -4.733   0.699 131.942  0.00  0.00    +0.000 C 
ATOM     16  C   UNL     1      -6.231  -0.064 132.329  0.00  0.00    +0.000 C 
ATOM     17  C   UNL     1      -6.694  -1.041 131.272  0.00  0.00    +0.000 C 
BRANCH  15  18
ATOM     18  N   UNL     1      -3.925   1.872 130.756  0.00  0.00    +0.000 N 
ATOM     19  C   UNL     1      -3.778   2.657 131.959  0.00  0.00    +0.000 C 
ATOM     20  O   UNL     1      -3.283   2.345 133.083  0.00  0.00    +0.000 OA
ATOM     21  O   UNL     1      -4.467   3.776 131.977  0.00  0.00    +0.000 OA
ATOM     22  C   UNL     1      -3.423   4.580 131.611  0.00  0.00    +0.000 C 
ATOM     23  C   UNL     1      -3.873   4.641 130.222  0.00  0.00    +0.000 A 
ATOM     24  C   UNL     1      -3.830   6.104 129.807  0.00  0.00    +0.000 A 
ATOM     25  C   UNL     1      -3.411   6.599 128.616  0.00  0.00    +0.000 A 
ATOM     26  C   UNL     1      -3.163   5.530 127.790  0.00  0.00    +0.000 A 
ATOM     27  C   UNL     1      -3.354   3.930 128.250  0.00  0.00    +0.000 A 
ATOM     28  C   UNL     1      -3.873   3.345 129.612  0.00  0.00    +0.000 A 
ENDBRANCH  15  18
ENDBRANCH   5  10
BRANCH   1  29
ATOM     29  C   UNL     1      -8.116  -1.405 123.432  0.00  0.00    +0.000 C 
BRANCH  29  32
ATOM     30  C   UNL     1      -9.327   0.682 123.066  0.00  0.00    +0.000 C 
ATOM     31  O   UNL     1     -10.263  -0.056 122.775  0.00  0.00    +0.000 OA
ATOM     32  N   UNL     1      -8.161   0.069 123.424  0.00  0.00    +0.000 N 
ATOM     33  H   UNL     1      -7.356   0.619 123.677  0.00  0.00    +0.000 HD
BRANCH  30  34
ATOM     34  C   UNL     1      -9.391   2.237 123.052  0.00  0.00    +0.000 C 
BRANCH  34  42
ATOM     35  C   UNL     1      -6.029   5.535 118.376  0.00  0.00    +0.000 C 
ATOM     36  N   UNL     1      -5.928   4.914 119.677  0.00  0.00    +0.000 N 
ATOM     37  N   UNL     1      -4.748   4.922 120.347  0.00  0.00    +0.000 NA
ATOM     38  C   UNL     1      -5.023   4.272 121.488  0.00  0.00    +0.000 A 
ATOM     39  C   UNL     1      -6.352   3.851 121.556  0.00  0.00    +0.000 A 
ATOM     40  C   UNL     1      -7.151   3.138 122.520  0.00  0.00    +0.000 A 
ATOM     41  O   UNL     1      -6.693   2.735 123.586  0.00  0.00    +0.000 OA
ATOM     42  N   UNL     1      -8.484   2.956 122.115  0.00  0.00    +0.000 N 
ATOM     43  C   UNL     1      -8.890   3.451 120.877  0.00  0.00    +0.000 A 
ATOM     44  N   UNL     1      -8.184   4.096 119.992  0.00  0.00    +0.000 NA
ATOM     45  C   UNL     1      -6.913   4.276 120.381  0.00  0.00    +0.000 A 
ENDBRANCH  34  42
ENDBRANCH  30  34
ENDBRANCH  29  32
ENDBRANCH   1  29
TORSDOF 6
ENDMDL
MODEL 3
REMARK VINA RESULT:     -11.7      3.478      7.108
REMARK  Name = CHEMBL285820
REMARK  7 active torsions:
REMARK  status: ('A' for Active; 'I' for Inactive)
REMARK    1  A    between atoms: C_1  and  N_2
REMARK    2  A    between atoms: N_8  and  C_9
REMARK    3  A    between atoms: C_9  and  C_10
REMARK    4  A    between atoms: N_12  and  C_13
REMARK    5  A    between atoms: C_13  and  C_14
REMARK    6  A    between atoms: C_18  and  C_19
REMARK    7  A    between atoms: C_24  and  N_25
REMARK                            x       y       z     vdW  Elec       q    Type
REMARK                         _______ _______ _______ _____ _____    ______ ____
ROOT
ATOM      1  C   UNL     1      -8.151  -1.872 124.629  0.00  0.00    +0.000 A 
ATOM      2  C   UNL     1      -7.073  -1.648 125.454  0.00  0.00    +0.000 A 
ATOM      3  C   UNL     1      -7.268  -2.384 126.627  0.00  0.00    +0.000 A 
ATOM      4  C   UNL     1      -6.514  -2.535 127.804  0.00  0.00    +0.000 A 
ATOM      5  C   UNL     1      -7.014  -3.341 128.833  0.00  0.00    +0.000 A 
ATOM      6  C   UNL     1      -8.259  -3.956 128.641  0.00  0.00    +0.000 A 
ATOM      7  C   UNL     1      -9.010  -3.859 127.457  0.00  0.00    +0.000 A 
ATOM      8  C   UNL     1      -8.482  -3.040 126.468  0.00  0.00    +0.000 A 
ATOM      9  O   UNL     1      -9.029  -2.733 125.245  0.00  0.00    +0.000 OA
ENDROOT
BRANCH   5  10
ATOM     10  C   UNL     1      -6.236  -3.471 130.121  0.00  0.00    +0.000 C 
ATOM     11  O   UNL     1      -5.523  -4.460 130.289  0.00  0.00    +0.000 OA
ATOM     12  N   UNL     1      -6.389  -2.471 131.106  0.00  0.00    +0.000 N 
ATOM     13  C   UNL     1      -5.373  -1.422 131.257  0.00  0.00    +0.000 C 
ATOM     14  C   UNL     1      -5.391  -0.810 132.654  0.00  0.00    +0.000 C 
ATOM     15  C   UNL     1      -6.894   0.091 132.892  0.00  0.00    +0.000 C 
ATOM     16  C   UNL     1      -7.763  -1.399 132.880  0.00  0.00    +0.000 C 
ATOM     17  C   UNL     1      -7.729  -2.100 131.541  0.00  0.00    +0.000 C 
BRANCH  15  18
ATOM     18  N   UNL     1      -6.879   1.808 132.193  0.00  0.00    +0.000 N 
ATOM     19  C   UNL     1      -7.102   2.149 133.579  0.00  0.00    +0.000 C 
ATOM     20  O   UNL     1      -6.460   1.808 134.617  0.00  0.00    +0.000 OA
ATOM     21  O   UNL     1      -8.271   2.690 133.834  0.00  0.00    +0.000 OA
ATOM     22  C   UNL     1      -7.821   3.982 133.837  0.00  0.00    +0.000 C 
ATOM     23  C   UNL     1      -8.307   4.223 132.481  0.00  0.00    +0.000 A 
ATOM     24  C   UNL     1      -9.055   5.548 132.508  0.00  0.00    +0.000 A 
ATOM     25  C   UNL     1      -9.017   6.522 131.566  0.00  0.00    +0.000 A 
ATOM     26  C   UNL     1      -8.291   6.040 130.505  0.00  0.00    +0.000 A 
ATOM     27  C   UNL     1      -7.595   4.517 130.463  0.00  0.00    +0.000 A 
ATOM     28  C   UNL     1      -7.662   3.366 131.531  0.00  0.00    +0.000 A 
ENDBRANCH  15  18
ENDBRANCH   5  10
BRANCH   1  29
ATOM     29  C   UNL     1      -8.449  -1.341 123.278  0.00  0.00    +0.000 C 
BRANCH  29  32
ATOM     30  C   UNL     1      -9.467   0.877 123.261  0.00  0.00    +0.000 C 
ATOM     31  O   UNL     1     -10.524   0.256 123.225  0.00  0.00    +0.000 OA
ATOM     32  N   UNL     1      -8.326   0.129 123.292  0.00  0.00    +0.000 N 
ATOM     33  H   UNL     1      -7.424   0.578 123.325  0.00  0.00    +0.000 HD
BRANCH  30  34
ATOM     34  C   UNL     1      -9.353   2.429 123.274  0.00  0.00    +0.000 C 
BRANCH  34  42
ATOM     35  C   UNL     1      -6.112   5.335 118.265  0.00  0.00    +0.000 C 
ATOM     36  N   UNL     1      -5.973   4.802 119.601  0.00  0.00    +0.000 N 
ATOM     37  N   UNL     1      -4.769   4.832 120.226  0.00  0.00    +0.000 NA
ATOM     38  C   UNL     1      -5.013   4.267 121.418  0.00  0.00    +0.000 A 
ATOM     39  C   UNL     1      -6.345   3.878 121.562  0.00  0.00    +0.000 A 
ATOM     40  C   UNL     1      -7.120   3.247 122.602  0.00  0.00    +0.000 A 
ATOM     41  O   UNL     1      -6.629   2.909 123.675  0.00  0.00    +0.000 OA
ATOM     42  N   UNL     1      -8.470   3.065 122.258  0.00  0.00    +0.000 N 
ATOM     43  C   UNL     1      -8.913   3.482 121.004  0.00  0.00    +0.000 A 
ATOM     44  N   UNL     1      -8.229   4.052 120.052  0.00  0.00    +0.000 NA
ATOM     45  C   UNL     1      -6.942   4.232 120.382  0.00  0.00    +0.000 A 
ENDBRANCH  34  42
ENDBRANCH  30  34
ENDBRANCH  29  32
ENDBRANCH   1  29
TORSDOF 6
ENDMDL
MODEL 4
REMARK VINA RESULT:     -11.2      2.807      5.126
REMARK  Name = CHEMBL285820
REMARK  7 active torsions:
REMARK  status: ('A' for Active; 'I' for Inactive)
REMARK    1  A    between atoms: C_1  and  N_2
REMARK    2  A    between atoms: N_8  and  C_9
REMARK    3  A    between atoms: C_9  and  C_10
REMARK    4  A    between atoms: N_12  and  C_13
REMARK    5  A    between atoms: C_13  and  C_14
REMARK    6  A    between atoms: C_18  and  C_19
REMARK    7  A    between atoms: C_24  and  N_25
REMARK                            x       y       z     vdW  Elec       q    Type
REMARK                         _______ _______ _______ _____ _____    ______ ____
ROOT
ATOM      1  C   UNL     1      -7.490  -0.471 126.750  0.00  0.00    +0.000 A 
ATOM      2  C   UNL     1      -7.000   0.689 127.303  0.00  0.00    +0.000 A 
ATOM      3  C   UNL     1      -6.976   0.528 128.693  0.00  0.00    +0.000 A 
ATOM      4  C   UNL     1      -6.587   1.366 129.752  0.00  0.00    +0.000 A 
ATOM      5  C   UNL     1      -6.718   0.906 131.067  0.00  0.00    +0.000 A 
ATOM      6  C   UNL     1      -7.246  -0.378 131.265  0.00  0.00    +0.000 A 
ATOM      7  C   UNL     1      -7.598  -1.253 130.223  0.00  0.00    +0.000 A 
ATOM      8  C   UNL     1      -7.463  -0.750 128.936  0.00  0.00    +0.000 A 
ATOM      9  O   UNL     1      -7.778  -1.370 127.750  0.00  0.00    +0.000 OA
ENDROOT
BRANCH   5  10
ATOM     10  C   UNL     1      -6.350   1.816 132.214  0.00  0.00    +0.000 C 
ATOM     11  O   UNL     1      -5.375   1.532 132.910  0.00  0.00    +0.000 OA
ATOM     12  N   UNL     1      -7.164   2.940 132.473  0.00  0.00    +0.000 N 
ATOM     13  C   UNL     1      -6.749   4.273 132.021  0.00  0.00    +0.000 C 
ATOM     14  C   UNL     1      -7.403   5.381 132.839  0.00  0.00    +0.000 C 
ATOM     15  C   UNL     1      -9.144   5.407 132.523  0.00  0.00    +0.000 C 
ATOM     16  C   UNL     1      -9.292   3.894 133.338  0.00  0.00    +0.000 C 
ATOM     17  C   UNL     1      -8.603   2.758 132.617  0.00  0.00    +0.000 C 
BRANCH  15  18
ATOM     18  N   UNL     1      -9.631   6.321 130.986  0.00  0.00    +0.000 N 
ATOM     19  C   UNL     1     -10.861   6.486 131.725  0.00  0.00    +0.000 C 
ATOM     20  O   UNL     1     -11.057   6.929 132.896  0.00  0.00    +0.000 OA
ATOM     21  O   UNL     1     -11.901   5.870 131.211  0.00  0.00    +0.000 OA
ATOM     22  C   UNL     1     -12.411   6.973 130.584  0.00  0.00    +0.000 C 
ATOM     23  C   UNL     1     -11.871   6.567 129.289  0.00  0.00    +0.000 A 
ATOM     24  C   UNL     1     -12.994   6.715 128.274  0.00  0.00    +0.000 A 
ATOM     25  C   UNL     1     -12.890   7.198 127.011  0.00  0.00    +0.000 A 
ATOM     26  C   UNL     1     -11.556   7.399 126.756  0.00  0.00    +0.000 A 
ATOM     27  C   UNL     1     -10.336   7.093 127.863  0.00  0.00    +0.000 A 
ATOM     28  C   UNL     1     -10.440   6.499 129.314  0.00  0.00    +0.000 A 
ENDBRANCH  15  18
ENDBRANCH   5  10
BRANCH   1  29
ATOM     29  C   UNL     1      -7.722  -0.831 125.331  0.00  0.00    +0.000 C 
BRANCH  29  32
ATOM     30  C   UNL     1      -9.237   0.839 124.398  0.00  0.00    +0.000 C 
ATOM     31  O   UNL     1     -10.111   0.170 124.940  0.00  0.00    +0.000 OA
ATOM     32  N   UNL     1      -7.955   0.396 124.547  0.00  0.00    +0.000 N 
ATOM     33  H   UNL     1      -7.191   0.903 124.129  0.00  0.00    +0.000 HD
BRANCH  30  34
ATOM     34  C   UNL     1      -9.499   2.132 123.572  0.00  0.00    +0.000 C 
BRANCH  34  42
ATOM     35  C   UNL     1      -3.891   5.088 121.606  0.00  0.00    +0.000 C 
ATOM     36  N   UNL     1      -5.192   4.630 121.173  0.00  0.00    +0.000 N 
ATOM     37  N   UNL     1      -5.574   4.788 119.880  0.00  0.00    +0.000 NA
ATOM     38  C   UNL     1      -6.807   4.259 119.845  0.00  0.00    +0.000 A 
ATOM     39  C   UNL     1      -7.214   3.770 121.087  0.00  0.00    +0.000 A 
ATOM     40  C   UNL     1      -8.400   3.125 121.593  0.00  0.00    +0.000 A 
ATOM     41  O   UNL     1      -9.372   2.883 120.882  0.00  0.00    +0.000 OA
ATOM     42  N   UNL     1      -8.323   2.811 122.960  0.00  0.00    +0.000 N 
ATOM     43  C   UNL     1      -7.169   3.143 123.668  0.00  0.00    +0.000 A 
ATOM     44  N   UNL     1      -6.090   3.725 123.230  0.00  0.00    +0.000 NA
ATOM     45  C   UNL     1      -6.160   4.019 121.923  0.00  0.00    +0.000 A 
ENDBRANCH  34  42
ENDBRANCH  30  34
ENDBRANCH  29  32
ENDBRANCH   1  29
TORSDOF 6
ENDMDL
MODEL 5
REMARK VINA RESULT:     -11.2      3.021      6.391
REMARK  Name = CHEMBL285820
REMARK  7 active torsions:
REMARK  status: ('A' for Active; 'I' for Inactive)
REMARK    1  A    between atoms: C_1  and  N_2
REMARK    2  A    between atoms: N_8  and  C_9
REMARK    3  A    between atoms: C_9  and  C_10
REMARK    4  A    between atoms: N_12  and  C_13
REMARK    5  A    between atoms: C_13  and  C_14
REMARK    6  A    between atoms: C_18  and  C_19
REMARK    7  A    between atoms: C_24  and  N_25
REMARK                            x       y       z     vdW  Elec       q    Type
REMARK                         _______ _______ _______ _____ _____    ______ ____
ROOT
ATOM      1  C   UNL     1      -8.863  -2.009 124.720  0.00  0.00    +0.000 A 
ATOM      2  C   UNL     1      -7.718  -1.684 125.408  0.00  0.00    +0.000 A 
ATOM      3  C   UNL     1      -7.732  -2.381 126.621  0.00  0.00    +0.000 A 
ATOM      4  C   UNL     1      -6.844  -2.436 127.709  0.00  0.00    +0.000 A 
ATOM      5  C   UNL     1      -7.171  -3.227 128.815  0.00  0.00    +0.000 A 
ATOM      6  C   UNL     1      -8.387  -3.925 128.788  0.00  0.00    +0.000 A 
ATOM      7  C   UNL     1      -9.269  -3.925 127.694  0.00  0.00    +0.000 A 
ATOM      8  C   UNL     1      -8.910  -3.117 126.624  0.00  0.00    +0.000 A 
ATOM      9  O   UNL     1      -9.609  -2.896 125.461  0.00  0.00    +0.000 OA
ENDROOT
BRANCH   5  10
ATOM     10  C   UNL     1      -6.249  -3.255 130.011  0.00  0.00    +0.000 C 
ATOM     11  O   UNL     1      -5.421  -4.161 130.103  0.00  0.00    +0.000 OA
ATOM     12  N   UNL     1      -6.398  -2.260 131.002  0.00  0.00    +0.000 N 
ATOM     13  C   UNL     1      -5.488  -1.109 131.036  0.00  0.00    +0.000 C 
ATOM     14  C   UNL     1      -5.418  -0.481 132.423  0.00  0.00    +0.000 C 
ATOM     15  C   UNL     1      -6.973   0.262 132.822  0.00  0.00    +0.000 C 
ATOM     16  C   UNL     1      -7.675  -1.311 132.912  0.00  0.00    +0.000 C 
ATOM     17  C   UNL     1      -7.714  -2.025 131.581  0.00  0.00    +0.000 C 
BRANCH  15  18
ATOM     18  N   UNL     1      -7.216   1.960 132.119  0.00  0.00    +0.000 N 
ATOM     19  C   UNL     1      -7.367   2.290 133.517  0.00  0.00    +0.000 C 
ATOM     20  O   UNL     1      -6.609   2.040 134.501  0.00  0.00    +0.000 OA
ATOM     21  O   UNL     1      -8.568   2.694 133.863  0.00  0.00    +0.000 OA
ATOM     22  C   UNL     1      -8.274   4.029 133.826  0.00  0.00    +0.000 C 
ATOM     23  C   UNL     1      -8.891   4.195 132.513  0.00  0.00    +0.000 A 
ATOM     24  C   UNL     1      -9.786   5.422 132.595  0.00  0.00    +0.000 A 
ATOM     25  C   UNL     1      -9.938   6.383 131.650  0.00  0.00    +0.000 A 
ATOM     26  C   UNL     1      -9.246   5.976 130.535  0.00  0.00    +0.000 A 
ATOM     27  C   UNL     1      -8.381   4.544 130.443  0.00  0.00    +0.000 A 
ATOM     28  C   UNL     1      -8.227   3.407 131.516  0.00  0.00    +0.000 A 
ENDBRANCH  15  18
ENDBRANCH   5  10
BRANCH   1  29
ATOM     29  C   UNL     1      -9.344  -1.554 123.393  0.00  0.00    +0.000 C 
BRANCH  29  32
ATOM     30  C   UNL     1      -9.710   0.744 122.658  0.00  0.00    +0.000 C 
ATOM     31  O   UNL     1     -10.868   0.375 122.490  0.00  0.00    +0.000 OA
ATOM     32  N   UNL     1      -8.838  -0.195 123.129  0.00  0.00    +0.000 N 
ATOM     33  H   UNL     1      -7.873   0.045 123.292  0.00  0.00    +0.000 HD
BRANCH  30  34
ATOM     34  C   UNL     1      -9.191   2.183 122.373  0.00  0.00    +0.000 C 
BRANCH  34  42
ATOM     35  C   UNL     1      -4.644   5.120 126.213  0.00  0.00    +0.000 C 
ATOM     36  N   UNL     1      -5.940   4.479 126.208  0.00  0.00    +0.000 N 
ATOM     37  N   UNL     1      -6.639   4.346 127.363  0.00  0.00    +0.000 NA
ATOM     38  C   UNL     1      -7.765   3.721 126.984  0.00  0.00    +0.000 A 
ATOM     39  C   UNL     1      -7.793   3.454 125.615  0.00  0.00    +0.000 A 
ATOM     40  C   UNL     1      -8.728   2.827 124.714  0.00  0.00    +0.000 A 
ATOM     41  O   UNL     1      -9.800   2.365 125.095  0.00  0.00    +0.000 OA
ATOM     42  N   UNL     1      -8.287   2.803 123.380  0.00  0.00    +0.000 N 
ATOM     43  C   UNL     1      -7.044   3.352 123.067  0.00  0.00    +0.000 A 
ATOM     44  N   UNL     1      -6.186   3.921 123.866  0.00  0.00    +0.000 NA
ATOM     45  C   UNL     1      -6.610   3.951 125.138  0.00  0.00    +0.000 A 
ENDBRANCH  34  42
ENDBRANCH  30  34
ENDBRANCH  29  32
ENDBRANCH   1  29
TORSDOF 6
ENDMDL
MODEL 6
REMARK VINA RESULT:     -11.0      2.145      9.395
REMARK  Name = CHEMBL285820
REMARK  7 active torsions:
REMARK  status: ('A' for Active; 'I' for Inactive)
REMARK    1  A    between atoms: C_1  and  N_2
REMARK    2  A    between atoms: N_8  and  C_9
REMARK    3  A    between atoms: C_9  and  C_10
REMARK    4  A    between atoms: N_12  and  C_13
REMARK    5  A    between atoms: C_13  and  C_14
REMARK    6  A    between atoms: C_18  and  C_19
REMARK    7  A    between atoms: C_24  and  N_25
REMARK                            x       y       z     vdW  Elec       q    Type
REMARK                         _______ _______ _______ _____ _____    ______ ____
ROOT
ATOM      1  C   UNL     1      -3.685   4.787 127.903  0.00  0.00    +0.000 A 
ATOM      2  C   UNL     1      -3.808   3.541 127.335  0.00  0.00    +0.000 A 
ATOM      3  C   UNL     1      -4.751   3.628 126.306  0.00  0.00    +0.000 A 
ATOM      4  C   UNL     1      -5.277   2.689 125.401  0.00  0.00    +0.000 A 
ATOM      5  C   UNL     1      -6.257   3.098 124.490  0.00  0.00    +0.000 A 
ATOM      6  C   UNL     1      -6.679   4.434 124.532  0.00  0.00    +0.000 A 
ATOM      7  C   UNL     1      -6.136   5.403 125.394  0.00  0.00    +0.000 A 
ATOM      8  C   UNL     1      -5.176   4.950 126.288  0.00  0.00    +0.000 A 
ATOM      9  O   UNL     1      -4.525   5.669 127.263  0.00  0.00    +0.000 OA
ENDROOT
BRANCH   5  10
ATOM     10  C   UNL     1      -6.865   2.086 123.547  0.00  0.00    +0.000 C 
ATOM     11  O   UNL     1      -6.977   2.376 122.356  0.00  0.00    +0.000 OA
ATOM     12  N   UNL     1      -7.322   0.859 124.075  0.00  0.00    +0.000 N 
ATOM     13  C   UNL     1      -6.503  -0.351 123.946  0.00  0.00    +0.000 C 
ATOM     14  C   UNL     1      -7.343  -1.620 124.038  0.00  0.00    +0.000 C 
ATOM     15  C   UNL     1      -7.995  -1.786 125.675  0.00  0.00    +0.000 C 
ATOM     16  C   UNL     1      -9.006  -0.418 125.386  0.00  0.00    +0.000 C 
ATOM     17  C   UNL     1      -8.233   0.870 125.213  0.00  0.00    +0.000 C 
BRANCH  15  18
ATOM     18  N   UNL     1      -6.821  -2.533 126.898  0.00  0.00    +0.000 N 
ATOM     19  C   UNL     1      -8.054  -3.021 127.469  0.00  0.00    +0.000 C 
ATOM     20  O   UNL     1      -9.007  -3.660 126.930  0.00  0.00    +0.000 OA
ATOM     21  O   UNL     1      -8.348  -2.530 128.651  0.00  0.00    +0.000 OA
ATOM     22  C   UNL     1      -7.876  -3.601 129.360  0.00  0.00    +0.000 C 
ATOM     23  C   UNL     1      -6.627  -2.918 129.685  0.00  0.00    +0.000 A 
ATOM     24  C   UNL     1      -6.392  -3.110 131.176  0.00  0.00    +0.000 A 
ATOM     25  C   UNL     1      -5.210  -3.375 131.785  0.00  0.00    +0.000 A 
ATOM     26  C   UNL     1      -4.228  -3.296 130.829  0.00  0.00    +0.000 A 
ATOM     27  C   UNL     1      -4.519  -2.946 129.217  0.00  0.00    +0.000 A 
ATOM     28  C   UNL     1      -5.877  -2.602 128.506  0.00  0.00    +0.000 A 
ENDBRANCH  15  18
ENDBRANCH   5  10
BRANCH   1  29
ATOM     29  C   UNL     1      -2.831   5.248 129.023  0.00  0.00    +0.000 C 
BRANCH  29  32
ATOM     30  C   UNL     1      -4.132   5.394 131.083  0.00  0.00    +0.000 C 
ATOM     31  O   UNL     1      -3.842   4.208 131.204  0.00  0.00    +0.000 OA
ATOM     32  N   UNL     1      -3.648   6.025 129.974  0.00  0.00    +0.000 N 
ATOM     33  H   UNL     1      -3.848   7.000 129.817  0.00  0.00    +0.000 HD
BRANCH  30  34
ATOM     34  C   UNL     1      -4.998   6.200 132.094  0.00  0.00    +0.000 C 
BRANCH  34  42
ATOM     35  C   UNL     1     -11.135   7.585 129.982  0.00  0.00    +0.000 C 
ATOM     36  N   UNL     1     -10.368   6.848 130.961  0.00  0.00    +0.000 N 
ATOM     37  N   UNL     1     -11.001   6.085 131.888  0.00  0.00    +0.000 NA
ATOM     38  C   UNL     1      -9.997   5.563 132.610  0.00  0.00    +0.000 A 
ATOM     39  C   UNL     1      -8.743   5.980 132.162  0.00  0.00    +0.000 A 
ATOM     40  C   UNL     1      -7.380   5.732 132.560  0.00  0.00    +0.000 A 
ATOM     41  O   UNL     1      -7.093   5.003 133.506  0.00  0.00    +0.000 OA
ATOM     42  N   UNL     1      -6.436   6.403 131.765  0.00  0.00    +0.000 N 
ATOM     43  C   UNL     1      -6.881   7.213 130.722  0.00  0.00    +0.000 A 
ATOM     44  N   UNL     1      -8.106   7.450 130.347  0.00  0.00    +0.000 NA
ATOM     45  C   UNL     1      -9.008   6.805 131.102  0.00  0.00    +0.000 A 
ENDBRANCH  34  42
ENDBRANCH  30  34
ENDBRANCH  29  32
ENDBRANCH   1  29
TORSDOF 6
ENDMDL
MODEL 7
REMARK VINA RESULT:     -10.9      3.379      9.582
REMARK  Name = CHEMBL285820
REMARK  7 active torsions:
REMARK  status: ('A' for Active; 'I' for Inactive)
REMARK    1  A    between atoms: C_1  and  N_2
REMARK    2  A    between atoms: N_8  and  C_9
REMARK    3  A    between atoms: C_9  and  C_10
REMARK    4  A    between atoms: N_12  and  C_13
REMARK    5  A    between atoms: C_13  and  C_14
REMARK    6  A    between atoms: C_18  and  C_19
REMARK    7  A    between atoms: C_24  and  N_25
REMARK                            x       y       z     vdW  Elec       q    Type
REMARK                         _______ _______ _______ _____ _____    ______ ____
ROOT
ATOM      1  C   UNL     1      -7.025   3.013 133.899  0.00  0.00    +0.000 A 
ATOM      2  C   UNL     1      -7.788   2.122 133.182  0.00  0.00    +0.000 A 
ATOM      3  C   UNL     1      -7.118   0.895 133.167  0.00  0.00    +0.000 A 
ATOM      4  C   UNL     1      -7.411  -0.355 132.594  0.00  0.00    +0.000 A 
ATOM      5  C   UNL     1      -6.495  -1.402 132.740  0.00  0.00    +0.000 A 
ATOM      6  C   UNL     1      -5.313  -1.148 133.450  0.00  0.00    +0.000 A 
ATOM      7  C   UNL     1      -5.018   0.077 134.072  0.00  0.00    +0.000 A 
ATOM      8  C   UNL     1      -5.949   1.090 133.891  0.00  0.00    +0.000 A 
ATOM      9  O   UNL     1      -5.885   2.386 134.346  0.00  0.00    +0.000 OA
ENDROOT
BRANCH   5  10
ATOM     10  C   UNL     1      -6.776  -2.734 132.085  0.00  0.00    +0.000 C 
ATOM     11  O   UNL     1      -6.964  -3.719 132.798  0.00  0.00    +0.000 OA
ATOM     12  N   UNL     1      -6.772  -2.808 130.675  0.00  0.00    +0.000 N 
ATOM     13  C   UNL     1      -8.038  -2.813 129.932  0.00  0.00    +0.000 C 
ATOM     14  C   UNL     1      -7.887  -3.449 128.555  0.00  0.00    +0.000 C 
ATOM     15  C   UNL     1      -6.861  -2.429 127.536  0.00  0.00    +0.000 C 
ATOM     16  C   UNL     1      -5.511  -2.831 128.532  0.00  0.00    +0.000 C 
ATOM     17  C   UNL     1      -5.626  -2.291 129.939  0.00  0.00    +0.000 C 
BRANCH  15  18
ATOM     18  N   UNL     1      -7.744  -1.013 126.730  0.00  0.00    +0.000 N 
ATOM     19  C   UNL     1      -7.378  -1.737 125.535  0.00  0.00    +0.000 C 
ATOM     20  O   UNL     1      -7.570  -2.950 125.225  0.00  0.00    +0.000 OA
ATOM     21  O   UNL     1      -6.515  -1.122 124.759  0.00  0.00    +0.000 OA
ATOM     22  C   UNL     1      -7.448  -0.631 123.887  0.00  0.00    +0.000 C 
ATOM     23  C   UNL     1      -7.424   0.692 124.506  0.00  0.00    +0.000 A 
ATOM     24  C   UNL     1      -7.308   1.707 123.379  0.00  0.00    +0.000 A 
ATOM     25  C   UNL     1      -7.958   2.893 123.283  0.00  0.00    +0.000 A 
ATOM     26  C   UNL     1      -8.637   3.087 124.461  0.00  0.00    +0.000 A 
ATOM     27  C   UNL     1      -8.627   1.999 125.735  0.00  0.00    +0.000 A 
ATOM     28  C   UNL     1      -7.850   0.641 125.874  0.00  0.00    +0.000 A 
ENDBRANCH  15  18
ENDBRANCH   5  10
BRANCH   1  29
ATOM     29  C   UNL     1      -7.266   4.441 134.218  0.00  0.00    +0.000 C 
BRANCH  29  32
ATOM     30  C   UNL     1      -8.906   5.718 132.939  0.00  0.00    +0.000 C 
ATOM     31  O   UNL     1      -7.920   6.209 132.399  0.00  0.00    +0.000 OA
ATOM     32  N   UNL     1      -8.666   4.782 133.903  0.00  0.00    +0.000 N 
ATOM     33  H   UNL     1      -9.433   4.339 134.383  0.00  0.00    +0.000 HD
BRANCH  30  34
ATOM     34  C   UNL     1     -10.378   6.090 132.597  0.00  0.00    +0.000 C 
BRANCH  34  42
ATOM     35  C   UNL     1     -10.937   7.587 126.156  0.00  0.00    +0.000 C 
ATOM     36  N   UNL     1     -11.660   7.477 127.403  0.00  0.00    +0.000 N 
ATOM     37  N   UNL     1     -12.988   7.752 127.448  0.00  0.00    +0.000 NA
ATOM     38  C   UNL     1     -13.313   7.549 128.734  0.00  0.00    +0.000 A 
ATOM     39  C   UNL     1     -12.219   7.152 129.505  0.00  0.00    +0.000 A 
ATOM     40  C   UNL     1     -12.014   6.815 130.891  0.00  0.00    +0.000 A 
ATOM     41  O   UNL     1     -12.924   6.837 131.716  0.00  0.00    +0.000 OA
ATOM     42  N   UNL     1     -10.686   6.465 131.189  0.00  0.00    +0.000 N 
ATOM     43  C   UNL     1      -9.735   6.484 130.170  0.00  0.00    +0.000 A 
ATOM     44  N   UNL     1      -9.901   6.786 128.914  0.00  0.00    +0.000 NA
ATOM     45  C   UNL     1     -11.169   7.114 128.627  0.00  0.00    +0.000 A 
ENDBRANCH  34  42
ENDBRANCH  30  34
ENDBRANCH  29  32
ENDBRANCH   1  29
TORSDOF 6
ENDMDL
MODEL 8
REMARK VINA RESULT:     -10.6      3.579      7.272
REMARK  Name = CHEMBL285820
REMARK  7 active torsions:
REMARK  status: ('A' for Active; 'I' for Inactive)
REMARK    1  A    between atoms: C_1  and  N_2
REMARK    2  A    between atoms: N_8  and  C_9
REMARK    3  A    between atoms: C_9  and  C_10
REMARK    4  A    between atoms: N_12  and  C_13
REMARK    5  A    between atoms: C_13  and  C_14
REMARK    6  A    between atoms: C_18  and  C_19
REMARK    7  A    between atoms: C_24  and  N_25
REMARK                            x       y       z     vdW  Elec       q    Type
REMARK                         _______ _______ _______ _____ _____    ______ ____
ROOT
ATOM      1  C   UNL     1      -7.582  -2.542 125.056  0.00  0.00    +0.000 A 
ATOM      2  C   UNL     1      -6.516  -2.367 125.906  0.00  0.00    +0.000 A 
ATOM      3  C   UNL     1      -6.899  -2.807 127.177  0.00  0.00    +0.000 A 
ATOM      4  C   UNL     1      -6.239  -2.862 128.416  0.00  0.00    +0.000 A 
ATOM      5  C   UNL     1      -6.930  -3.341 129.535  0.00  0.00    +0.000 A 
ATOM      6  C   UNL     1      -8.264  -3.736 129.364  0.00  0.00    +0.000 A 
ATOM      7  C   UNL     1      -8.932  -3.735 128.128  0.00  0.00    +0.000 A 
ATOM      8  C   UNL     1      -8.213  -3.241 127.049  0.00  0.00    +0.000 A 
ATOM      9  O   UNL     1      -8.639  -3.084 125.751  0.00  0.00    +0.000 OA
ENDROOT
BRANCH   5  10
ATOM     10  C   UNL     1      -6.246  -3.358 130.881  0.00  0.00    +0.000 C 
ATOM     11  O   UNL     1      -6.148  -4.426 131.485  0.00  0.00    +0.000 OA
ATOM     12  N   UNL     1      -5.779  -2.138 131.418  0.00  0.00    +0.000 N 
ATOM     13  C   UNL     1      -4.357  -1.788 131.330  0.00  0.00    +0.000 C 
ATOM     14  C   UNL     1      -3.950  -0.784 132.403  0.00  0.00    +0.000 C 
ATOM     15  C   UNL     1      -4.735   0.771 132.094  0.00  0.00    +0.000 C 
ATOM     16  C   UNL     1      -6.255   0.056 132.488  0.00  0.00    +0.000 C 
ATOM     17  C   UNL     1      -6.691  -1.003 131.501  0.00  0.00    +0.000 C 
BRANCH  15  18
ATOM     18  N   UNL     1      -3.872   1.832 130.844  0.00  0.00    +0.000 N 
ATOM     19  C   UNL     1      -3.657   2.662 132.006  0.00  0.00    +0.000 C 
ATOM     20  O   UNL     1      -3.166   2.371 133.138  0.00  0.00    +0.000 OA
ATOM     21  O   UNL     1      -4.272   3.822 131.979  0.00  0.00    +0.000 OA
ATOM     22  C   UNL     1      -3.185   4.539 131.562  0.00  0.00    +0.000 C 
ATOM     23  C   UNL     1      -3.651   4.564 130.178  0.00  0.00    +0.000 A 
ATOM     24  C   UNL     1      -3.521   6.000 129.693  0.00  0.00    +0.000 A 
ATOM     25  C   UNL     1      -3.089   6.411 128.474  0.00  0.00    +0.000 A 
ATOM     26  C   UNL     1      -2.923   5.290 127.698  0.00  0.00    +0.000 A 
ATOM     27  C   UNL     1      -3.208   3.730 128.236  0.00  0.00    +0.000 A 
ATOM     28  C   UNL     1      -3.744   3.243 129.630  0.00  0.00    +0.000 A 
ENDBRANCH  15  18
ENDBRANCH   5  10
BRANCH   1  29
ATOM     29  C   UNL     1      -7.715  -2.241 123.611  0.00  0.00    +0.000 C 
BRANCH  29  32
ATOM     30  C   UNL     1      -8.978  -0.203 123.159  0.00  0.00    +0.000 C 
ATOM     31  O   UNL     1      -9.942  -0.959 123.108  0.00  0.00    +0.000 OA
ATOM     32  N   UNL     1      -7.768  -0.780 123.418  0.00  0.00    +0.000 N 
ATOM     33  H   UNL     1      -6.937  -0.214 123.476  0.00  0.00    +0.000 HD
BRANCH  30  34
ATOM     34  C   UNL     1      -9.050   1.338 122.952  0.00  0.00    +0.000 C 
BRANCH  34  42
ATOM     35  C   UNL     1      -6.874   4.742 128.217  0.00  0.00    +0.000 C 
ATOM     36  N   UNL     1      -6.774   4.609 126.782  0.00  0.00    +0.000 N 
ATOM     37  N   UNL     1      -5.952   5.427 126.077  0.00  0.00    +0.000 NA
ATOM     38  C   UNL     1      -6.113   5.025 124.807  0.00  0.00    +0.000 A 
ATOM     39  C   UNL     1      -7.021   3.971 124.691  0.00  0.00    +0.000 A 
ATOM     40  C   UNL     1      -7.544   3.187 123.600  0.00  0.00    +0.000 A 
ATOM     41  O   UNL     1      -7.208   3.375 122.434  0.00  0.00    +0.000 OA
ATOM     42  N   UNL     1      -8.462   2.206 124.009  0.00  0.00    +0.000 N 
ATOM     43  C   UNL     1      -8.774   2.091 125.363  0.00  0.00    +0.000 A 
ATOM     44  N   UNL     1      -8.314   2.790 126.362  0.00  0.00    +0.000 NA
ATOM     45  C   UNL     1      -7.432   3.722 125.973  0.00  0.00    +0.000 A 
ENDBRANCH  34  42
ENDBRANCH  30  34
ENDBRANCH  29  32
ENDBRANCH   1  29
TORSDOF 6
ENDMDL
MODEL 9
REMARK VINA RESULT:     -10.6      1.851      3.435
REMARK  Name = CHEMBL285820
REMARK  7 active torsions:
REMARK  status: ('A' for Active; 'I' for Inactive)
REMARK    1  A    between atoms: C_1  and  N_2
REMARK    2  A    between atoms: N_8  and  C_9
REMARK    3  A    between atoms: C_9  and  C_10
REMARK    4  A    between atoms: N_12  and  C_13
REMARK    5  A    between atoms: C_13  and  C_14
REMARK    6  A    between atoms: C_18  and  C_19
REMARK    7  A    between atoms: C_24  and  N_25
REMARK                            x       y       z     vdW  Elec       q    Type
REMARK                         _______ _______ _______ _____ _____    ______ ____
ROOT
ATOM      1  C   UNL     1      -7.443   0.967 123.962  0.00  0.00    +0.000 A 
ATOM      2  C   UNL     1      -6.837   0.931 125.196  0.00  0.00    +0.000 A 
ATOM      3  C   UNL     1      -6.072   2.093 125.336  0.00  0.00    +0.000 A 
ATOM      4  C   UNL     1      -5.248   2.585 126.363  0.00  0.00    +0.000 A 
ATOM      5  C   UNL     1      -4.579   3.800 126.176  0.00  0.00    +0.000 A 
ATOM      6  C   UNL     1      -4.758   4.468 124.956  0.00  0.00    +0.000 A 
ATOM      7  C   UNL     1      -5.612   4.022 123.933  0.00  0.00    +0.000 A 
ATOM      8  C   UNL     1      -6.245   2.807 124.157  0.00  0.00    +0.000 A 
ATOM      9  O   UNL     1      -7.086   2.125 123.310  0.00  0.00    +0.000 OA
ENDROOT
BRANCH   5  10
ATOM     10  C   UNL     1      -3.653   4.314 127.252  0.00  0.00    +0.000 C 
ATOM     11  O   UNL     1      -2.442   4.346 127.030  0.00  0.00    +0.000 OA
ATOM     12  N   UNL     1      -4.206   4.700 128.492  0.00  0.00    +0.000 N 
ATOM     13  C   UNL     1      -4.426   6.119 128.793  0.00  0.00    +0.000 C 
ATOM     14  C   UNL     1      -4.475   6.382 130.294  0.00  0.00    +0.000 C 
ATOM     15  C   UNL     1      -5.917   5.627 130.986  0.00  0.00    +0.000 C 
ATOM     16  C   UNL     1      -5.228   4.076 130.672  0.00  0.00    +0.000 C 
ATOM     17  C   UNL     1      -5.085   3.775 129.197  0.00  0.00    +0.000 C 
BRANCH  15  18
ATOM     18  N   UNL     1      -7.467   6.627 130.811  0.00  0.00    +0.000 N 
ATOM     19  C   UNL     1      -7.744   6.039 132.101  0.00  0.00    +0.000 C 
ATOM     20  O   UNL     1      -7.041   6.014 133.155  0.00  0.00    +0.000 OA
ATOM     21  O   UNL     1      -8.758   5.205 132.121  0.00  0.00    +0.000 OA
ATOM     22  C   UNL     1      -9.663   6.109 132.607  0.00  0.00    +0.000 C 
ATOM     23  C   UNL     1     -10.234   6.346 131.284  0.00  0.00    +0.000 A 
ATOM     24  C   UNL     1     -11.746   6.272 131.434  0.00  0.00    +0.000 A 
ATOM     25  C   UNL     1     -12.662   7.080 130.845  0.00  0.00    +0.000 A 
ATOM     26  C   UNL     1     -11.988   7.894 129.968  0.00  0.00    +0.000 A 
ATOM     27  C   UNL     1     -10.330   7.848 129.735  0.00  0.00    +0.000 A 
ATOM     28  C   UNL     1      -9.263   6.894 130.383  0.00  0.00    +0.000 A 
ENDBRANCH  15  18
ENDBRANCH   5  10
BRANCH   1  29
ATOM     29  C   UNL     1      -8.352  -0.007 123.313  0.00  0.00    +0.000 C 
BRANCH  29  32
ATOM     30  C   UNL     1      -8.177  -2.333 124.028  0.00  0.00    +0.000 C 
ATOM     31  O   UNL     1      -7.487  -2.462 123.022  0.00  0.00    +0.000 OA
ATOM     32  N   UNL     1      -8.675  -1.085 124.266  0.00  0.00    +0.000 N 
ATOM     33  H   UNL     1      -9.247  -0.912 125.077  0.00  0.00    +0.000 HD
BRANCH  30  34
ATOM     34  C   UNL     1      -8.511  -3.482 125.024  0.00  0.00    +0.000 C 
BRANCH  34  42
ATOM     35  C   UNL     1      -7.514  -3.019 131.569  0.00  0.00    +0.000 C 
ATOM     36  N   UNL     1      -6.934  -2.758 130.271  0.00  0.00    +0.000 N 
ATOM     37  N   UNL     1      -5.699  -2.202 130.176  0.00  0.00    +0.000 NA
ATOM     38  C   UNL     1      -5.492  -2.109 128.854  0.00  0.00    +0.000 A 
ATOM     39  C   UNL     1      -6.569  -2.593 128.109  0.00  0.00    +0.000 A 
ATOM     40  C   UNL     1      -6.863  -2.725 126.704  0.00  0.00    +0.000 A 
ATOM     41  O   UNL     1      -6.077  -2.368 125.830  0.00  0.00    +0.000 OA
ATOM     42  N   UNL     1      -8.121  -3.295 126.449  0.00  0.00    +0.000 N 
ATOM     43  C   UNL     1      -8.933  -3.654 127.524  0.00  0.00    +0.000 A 
ATOM     44  N   UNL     1      -8.686  -3.542 128.798  0.00  0.00    +0.000 NA
ATOM     45  C   UNL     1      -7.482  -3.004 129.042  0.00  0.00    +0.000 A 
ENDBRANCH  34  42
ENDBRANCH  30  34
ENDBRANCH  29  32
ENDBRANCH   1  29
TORSDOF 6
ENDMDL
