MODEL 1
REMARK VINA RESULT:      -8.1      0.000      0.000
REMARK  Name = CHEMBL1077300
REMARK  8 active torsions:
REMARK  status: ('A' for Active; 'I' for Inactive)
REMARK    1  A    between atoms: C_1  and  C_2
REMARK    2  A    between atoms: C_2  and  N_3
REMARK    3  A    between atoms: N_3  and  C_19
REMARK    4  A    between atoms: C_8  and  O_9
REMARK    5  A    between atoms: O_9  and  C_10
REMARK    6  A    between atoms: C_16  and  C_17
REMARK    7  A    between atoms: C_22  and  O_23
REMARK    8  A    between atoms: O_23  and  C_24
REMARK                            x       y       z     vdW  Elec       q    Type
REMARK                         _______ _______ _______ _____ _____    ______ ____
ROOT
ATOM      1  N   UNL     1      -6.349   3.711 126.225  0.00  0.00    +0.000 N 
ATOM      2  C   UNL     1      -7.552   4.174 126.879  0.00  0.00    +0.000 C 
ATOM      3  O   UNL     1      -8.542   4.547 126.226  0.00  0.00    +0.000 OA
ATOM      4  N   UNL     1      -7.645   4.036 128.278  0.00  0.00    +0.000 N 
ATOM      5  C   UNL     1      -8.803   4.046 129.190  0.00  0.00    +0.000 C 
ATOM      6  C   UNL     1      -8.118   5.162 130.038  0.00  0.00    +0.000 C 
ATOM      7  C   UNL     1      -6.879   4.749 129.298  0.00  0.00    +0.000 C 
ENDROOT
BRANCH   1   8
ATOM      8  C   UNL     1      -6.294   3.627 124.756  0.00  0.00    +0.000 A 
ATOM      9  C   UNL     1      -6.844   2.529 124.068  0.00  0.00    +0.000 A 
ATOM     10  C   UNL     1      -6.787   2.420 122.673  0.00  0.00    +0.000 A 
ATOM     11  C   UNL     1      -6.141   3.403 121.952  0.00  0.00    +0.000 A 
ATOM     12  N   UNL     1      -5.552   4.453 122.569  0.00  0.00    +0.000 NA
ATOM     13  C   UNL     1      -5.654   4.552 123.937  0.00  0.00    +0.000 A 
BRANCH  11  14
ATOM     14  O   UNL     1      -6.039   3.419 120.583  0.00  0.00    +0.000 OA
ATOM     15  C   UNL     1      -7.057   4.110 119.865  0.00  0.00    +0.000 C 
ENDBRANCH  11  14
ENDBRANCH   1   8
BRANCH   1  17
ATOM     16  C   UNL     1      -3.992   4.043 127.129  0.00  0.00    +0.000 C 
ATOM     17  C   UNL     1      -5.114   3.119 126.830  0.00  0.00    +0.000 C 
ENDBRANCH   1  17
BRANCH   6  18
ATOM     18  O   UNL     1      -8.507   6.552 129.904  0.00  0.00    +0.000 OA
BRANCH  18  19
ATOM     19  C   UNL     1      -9.780   6.926 130.322  0.00  0.00    +0.000 A 
ATOM     20  C   UNL     1     -10.198   6.353 131.531  0.00  0.00    +0.000 A 
ATOM     21  C   UNL     1     -11.526   6.479 131.964  0.00  0.00    +0.000 A 
ATOM     22  C   UNL     1     -12.446   7.191 131.203  0.00  0.00    +0.000 A 
ATOM     23  C   UNL     1     -12.031   7.781 130.027  0.00  0.00    +0.000 A 
ATOM     24  F   UNL     1     -12.928   8.470 129.303  0.00  0.00    +0.000 F 
ATOM     25  C   UNL     1     -10.717   7.660 129.563  0.00  0.00    +0.000 A 
ATOM     26  C   UNL     1     -10.462   8.344 128.268  0.00  0.00    +0.000 C 
ENDBRANCH  18  19
ENDBRANCH   6  18
TORSDOF 5
ENDMDL
MODEL 2
REMARK VINA RESULT:      -7.7      2.617      3.107
REMARK  Name = CHEMBL1077300
REMARK  8 active torsions:
REMARK  status: ('A' for Active; 'I' for Inactive)
REMARK    1  A    between atoms: C_1  and  C_2
REMARK    2  A    between atoms: C_2  and  N_3
REMARK    3  A    between atoms: N_3  and  C_19
REMARK    4  A    between atoms: C_8  and  O_9
REMARK    5  A    between atoms: O_9  and  C_10
REMARK    6  A    between atoms: C_16  and  C_17
REMARK    7  A    between atoms: C_22  and  O_23
REMARK    8  A    between atoms: O_23  and  C_24
REMARK                            x       y       z     vdW  Elec       q    Type
REMARK                         _______ _______ _______ _____ _____    ______ ____
ROOT
ATOM      1  N   UNL     1      -6.675   1.948 127.234  0.00  0.00    +0.000 N 
ATOM      2  C   UNL     1      -7.957   2.245 127.832  0.00  0.00    +0.000 C 
ATOM      3  O   UNL     1      -8.993   1.662 127.466  0.00  0.00    +0.000 OA
ATOM      4  N   UNL     1      -7.987   3.089 128.960  0.00  0.00    +0.000 N 
ATOM      5  C   UNL     1      -9.007   3.297 130.002  0.00  0.00    +0.000 C 
ATOM      6  C   UNL     1      -8.980   4.831 129.714  0.00  0.00    +0.000 C 
ATOM      7  C   UNL     1      -7.691   4.519 129.011  0.00  0.00    +0.000 C 
ENDROOT
BRANCH   1   8
ATOM      8  C   UNL     1      -6.567   0.903 126.202  0.00  0.00    +0.000 A 
ATOM      9  C   UNL     1      -5.933  -0.324 126.472  0.00  0.00    +0.000 A 
ATOM     10  C   UNL     1      -5.802  -1.324 125.500  0.00  0.00    +0.000 A 
ATOM     11  C   UNL     1      -6.281  -1.086 124.228  0.00  0.00    +0.000 A 
ATOM     12  N   UNL     1      -6.853   0.095 123.904  0.00  0.00    +0.000 NA
ATOM     13  C   UNL     1      -7.000   1.046 124.887  0.00  0.00    +0.000 A 
BRANCH  11  14
ATOM     14  O   UNL     1      -6.233  -1.994 123.200  0.00  0.00    +0.000 OA
ATOM     15  C   UNL     1      -5.184  -2.959 123.235  0.00  0.00    +0.000 C 
ENDBRANCH  11  14
ENDBRANCH   1   8
BRANCH   1  17
ATOM     16  C   UNL     1      -4.643   3.374 126.667  0.00  0.00    +0.000 C 
ATOM     17  C   UNL     1      -5.317   2.451 127.614  0.00  0.00    +0.000 C 
ENDBRANCH   1  17
BRANCH   6  18
ATOM     18  O   UNL     1     -10.008   5.462 128.910  0.00  0.00    +0.000 OA
BRANCH  18  19
ATOM     19  C   UNL     1     -10.810   6.431 129.505  0.00  0.00    +0.000 A 
ATOM     20  C   UNL     1     -11.365   6.064 130.739  0.00  0.00    +0.000 A 
ATOM     21  C   UNL     1     -12.349   6.857 131.346  0.00  0.00    +0.000 A 
ATOM     22  C   UNL     1     -12.779   8.030 130.739  0.00  0.00    +0.000 A 
ATOM     23  C   UNL     1     -12.213   8.410 129.539  0.00  0.00    +0.000 A 
ATOM     24  F   UNL     1     -12.633   9.548 128.962  0.00  0.00    +0.000 F 
ATOM     25  C   UNL     1     -11.240   7.633 128.901  0.00  0.00    +0.000 A 
ATOM     26  C   UNL     1     -10.764   8.190 127.608  0.00  0.00    +0.000 C 
ENDBRANCH  18  19
ENDBRANCH   6  18
TORSDOF 5
ENDMDL
MODEL 3
REMARK VINA RESULT:      -7.4      4.740      9.232
REMARK  Name = CHEMBL1077300
REMARK  8 active torsions:
REMARK  status: ('A' for Active; 'I' for Inactive)
REMARK    1  A    between atoms: C_1  and  C_2
REMARK    2  A    between atoms: C_2  and  N_3
REMARK    3  A    between atoms: N_3  and  C_19
REMARK    4  A    between atoms: C_8  and  O_9
REMARK    5  A    between atoms: O_9  and  C_10
REMARK    6  A    between atoms: C_16  and  C_17
REMARK    7  A    between atoms: C_22  and  O_23
REMARK    8  A    between atoms: O_23  and  C_24
REMARK                            x       y       z     vdW  Elec       q    Type
REMARK                         _______ _______ _______ _____ _____    ______ ____
ROOT
ATOM      1  N   UNL     1      -8.993   3.447 130.169  0.00  0.00    +0.000 N 
ATOM      2  C   UNL     1      -8.329   3.016 128.959  0.00  0.00    +0.000 C 
ATOM      3  O   UNL     1      -8.436   3.654 127.899  0.00  0.00    +0.000 OA
ATOM      4  N   UNL     1      -7.416   1.945 129.046  0.00  0.00    +0.000 N 
ATOM      5  C   UNL     1      -6.332   1.506 128.150  0.00  0.00    +0.000 C 
ATOM      6  C   UNL     1      -6.948   0.073 128.119  0.00  0.00    +0.000 C 
ATOM      7  C   UNL     1      -7.711   0.541 129.323  0.00  0.00    +0.000 C 
ENDROOT
BRANCH   1   8
ATOM      8  C   UNL     1      -9.778   4.693 130.174  0.00  0.00    +0.000 A 
ATOM      9  C   UNL     1      -9.148   5.950 130.209  0.00  0.00    +0.000 A 
ATOM     10  C   UNL     1      -9.876   7.147 130.233  0.00  0.00    +0.000 A 
ATOM     11  C   UNL     1     -11.255   7.090 130.259  0.00  0.00    +0.000 A 
ATOM     12  N   UNL     1     -11.907   5.906 130.278  0.00  0.00    +0.000 NA
ATOM     13  C   UNL     1     -11.168   4.747 130.218  0.00  0.00    +0.000 A 
BRANCH  11  14
ATOM     14  O   UNL     1     -12.075   8.190 130.261  0.00  0.00    +0.000 OA
ATOM     15  C   UNL     1     -12.334   8.809 129.003  0.00  0.00    +0.000 C 
ENDBRANCH  11  14
ENDBRANCH   1   8
BRANCH   1  17
ATOM     16  C   UNL     1      -9.887   1.858 131.946  0.00  0.00    +0.000 C 
ATOM     17  C   UNL     1      -8.891   2.886 131.554  0.00  0.00    +0.000 C 
ENDBRANCH   1  17
BRANCH   6  18
ATOM     18  O   UNL     1      -7.745  -0.378 126.995  0.00  0.00    +0.000 OA
BRANCH  18  19
ATOM     19  C   UNL     1      -7.234  -1.387 126.184  0.00  0.00    +0.000 A 
ATOM     20  C   UNL     1      -5.976  -1.118 125.627  0.00  0.00    +0.000 A 
ATOM     21  C   UNL     1      -5.438  -1.951 124.635  0.00  0.00    +0.000 A 
ATOM     22  C   UNL     1      -6.141  -3.069 124.201  0.00  0.00    +0.000 A 
ATOM     23  C   UNL     1      -7.366  -3.353 124.769  0.00  0.00    +0.000 A 
ATOM     24  F   UNL     1      -8.035  -4.438 124.344  0.00  0.00    +0.000 F 
ATOM     25  C   UNL     1      -7.935  -2.533 125.749  0.00  0.00    +0.000 A 
ATOM     26  C   UNL     1      -9.268  -2.986 126.226  0.00  0.00    +0.000 C 
ENDBRANCH  18  19
ENDBRANCH   6  18
TORSDOF 5
ENDMDL
MODEL 4
REMARK VINA RESULT:      -7.4      5.476      8.825
REMARK  Name = CHEMBL1077300
REMARK  8 active torsions:
REMARK  status: ('A' for Active; 'I' for Inactive)
REMARK    1  A    between atoms: C_1  and  C_2
REMARK    2  A    between atoms: C_2  and  N_3
REMARK    3  A    between atoms: N_3  and  C_19
REMARK    4  A    between atoms: C_8  and  O_9
REMARK    5  A    between atoms: O_9  and  C_10
REMARK    6  A    between atoms: C_16  and  C_17
REMARK    7  A    between atoms: C_22  and  O_23
REMARK    8  A    between atoms: O_23  and  C_24
REMARK                            x       y       z     vdW  Elec       q    Type
REMARK                         _______ _______ _______ _____ _____    ______ ____
ROOT
ATOM      1  N   UNL     1      -9.221   5.470 131.040  0.00  0.00    +0.000 N 
ATOM      2  C   UNL     1      -9.041   4.254 130.280  0.00  0.00    +0.000 C 
ATOM      3  O   UNL     1      -9.766   3.984 129.307  0.00  0.00    +0.000 OA
ATOM      4  N   UNL     1      -7.915   3.454 130.561  0.00  0.00    +0.000 N 
ATOM      5  C   UNL     1      -7.239   2.404 129.779  0.00  0.00    +0.000 C 
ATOM      6  C   UNL     1      -7.373   1.427 130.988  0.00  0.00    +0.000 C 
ATOM      7  C   UNL     1      -7.651   2.677 131.770  0.00  0.00    +0.000 C 
ENDROOT
BRANCH   1   8
ATOM      8  C   UNL     1     -10.249   6.445 130.637  0.00  0.00    +0.000 A 
ATOM      9  C   UNL     1     -11.530   6.436 131.219  0.00  0.00    +0.000 A 
ATOM     10  C   UNL     1     -12.528   7.341 130.838  0.00  0.00    +0.000 A 
ATOM     11  C   UNL     1     -12.257   8.251 129.835  0.00  0.00    +0.000 A 
ATOM     12  N   UNL     1     -11.059   8.268 129.209  0.00  0.00    +0.000 NA
ATOM     13  C   UNL     1     -10.086   7.390 129.628  0.00  0.00    +0.000 A 
BRANCH  11  14
ATOM     14  O   UNL     1     -13.143   9.201 129.392  0.00  0.00    +0.000 OA
ATOM     15  C   UNL     1     -13.182  10.434 130.104  0.00  0.00    +0.000 C 
ENDBRANCH  11  14
ENDBRANCH   1   8
BRANCH   1  17
ATOM     16  C   UNL     1      -7.032   6.518 131.808  0.00  0.00    +0.000 C 
ATOM     17  C   UNL     1      -8.386   6.020 132.154  0.00  0.00    +0.000 C 
ENDBRANCH   1  17
BRANCH   6  18
ATOM     18  O   UNL     1      -8.406   0.411 131.021  0.00  0.00    +0.000 OA
BRANCH  18  19
ATOM     19  C   UNL     1      -8.039  -0.898 131.320  0.00  0.00    +0.000 A 
ATOM     20  C   UNL     1      -7.855  -1.163 132.684  0.00  0.00    +0.000 A 
ATOM     21  C   UNL     1      -7.289  -2.374 133.109  0.00  0.00    +0.000 A 
ATOM     22  C   UNL     1      -6.916  -3.338 132.180  0.00  0.00    +0.000 A 
ATOM     23  C   UNL     1      -7.124  -3.092 130.837  0.00  0.00    +0.000 A 
ATOM     24  F   UNL     1      -6.763  -4.032 129.949  0.00  0.00    +0.000 F 
ATOM     25  C   UNL     1      -7.672  -1.888 130.383  0.00  0.00    +0.000 A 
ATOM     26  C   UNL     1      -7.799  -1.794 128.905  0.00  0.00    +0.000 C 
ENDBRANCH  18  19
ENDBRANCH   6  18
TORSDOF 5
ENDMDL
MODEL 5
REMARK VINA RESULT:      -7.1      5.375      8.375
REMARK  Name = CHEMBL1077300
REMARK  8 active torsions:
REMARK  status: ('A' for Active; 'I' for Inactive)
REMARK    1  A    between atoms: C_1  and  C_2
REMARK    2  A    between atoms: C_2  and  N_3
REMARK    3  A    between atoms: N_3  and  C_19
REMARK    4  A    between atoms: C_8  and  O_9
REMARK    5  A    between atoms: O_9  and  C_10
REMARK    6  A    between atoms: C_16  and  C_17
REMARK    7  A    between atoms: C_22  and  O_23
REMARK    8  A    between atoms: O_23  and  C_24
REMARK                            x       y       z     vdW  Elec       q    Type
REMARK                         _______ _______ _______ _____ _____    ______ ____
ROOT
ATOM      1  N   UNL     1      -4.106   3.863 127.694  0.00  0.00    +0.000 N 
ATOM      2  C   UNL     1      -5.310   3.673 126.916  0.00  0.00    +0.000 C 
ATOM      3  O   UNL     1      -6.258   4.474 126.984  0.00  0.00    +0.000 OA
ATOM      4  N   UNL     1      -5.322   2.650 125.947  0.00  0.00    +0.000 N 
ATOM      5  C   UNL     1      -6.185   2.420 124.775  0.00  0.00    +0.000 C 
ATOM      6  C   UNL     1      -6.500   0.983 125.296  0.00  0.00    +0.000 C 
ATOM      7  C   UNL     1      -5.304   1.206 126.174  0.00  0.00    +0.000 C 
ENDROOT
BRANCH   1   8
ATOM      8  C   UNL     1      -3.963   5.050 128.553  0.00  0.00    +0.000 A 
ATOM      9  C   UNL     1      -3.548   6.286 128.024  0.00  0.00    +0.000 A 
ATOM     10  C   UNL     1      -3.388   7.424 128.826  0.00  0.00    +0.000 A 
ATOM     11  C   UNL     1      -3.611   7.320 130.184  0.00  0.00    +0.000 A 
ATOM     12  N   UNL     1      -3.963   6.143 130.749  0.00  0.00    +0.000 NA
ATOM     13  C   UNL     1      -4.147   5.051 129.932  0.00  0.00    +0.000 A 
BRANCH  11  14
ATOM     14  O   UNL     1      -3.510   8.365 131.068  0.00  0.00    +0.000 OA
ATOM     15  C   UNL     1      -2.655   8.182 132.194  0.00  0.00    +0.000 C 
ENDBRANCH  11  14
ENDBRANCH   1   8
BRANCH   1  17
ATOM     16  C   UNL     1      -1.928   3.302 126.500  0.00  0.00    +0.000 C 
ATOM     17  C   UNL     1      -2.828   3.084 127.660  0.00  0.00    +0.000 C 
ENDBRANCH   1  17
BRANCH   6  18
ATOM     18  O   UNL     1      -7.745   0.689 125.978  0.00  0.00    +0.000 OA
BRANCH  18  19
ATOM     19  C   UNL     1      -8.248  -0.607 125.906  0.00  0.00    +0.000 A 
ATOM     20  C   UNL     1      -8.000  -1.401 127.034  0.00  0.00    +0.000 A 
ATOM     21  C   UNL     1      -8.268  -2.778 127.015  0.00  0.00    +0.000 A 
ATOM     22  C   UNL     1      -8.801  -3.372 125.877  0.00  0.00    +0.000 A 
ATOM     23  C   UNL     1      -9.074  -2.588 124.775  0.00  0.00    +0.000 A 
ATOM     24  F   UNL     1      -9.592  -3.173 123.683  0.00  0.00    +0.000 F 
ATOM     25  C   UNL     1      -8.804  -1.215 124.760  0.00  0.00    +0.000 A 
ATOM     26  C   UNL     1      -9.143  -0.541 123.479  0.00  0.00    +0.000 C 
ENDBRANCH  18  19
ENDBRANCH   6  18
TORSDOF 5
ENDMDL
MODEL 6
REMARK VINA RESULT:      -7.1      5.814      9.300
REMARK  Name = CHEMBL1077300
REMARK  8 active torsions:
REMARK  status: ('A' for Active; 'I' for Inactive)
REMARK    1  A    between atoms: C_1  and  C_2
REMARK    2  A    between atoms: C_2  and  N_3
REMARK    3  A    between atoms: N_3  and  C_19
REMARK    4  A    between atoms: C_8  and  O_9
REMARK    5  A    between atoms: O_9  and  C_10
REMARK    6  A    between atoms: C_16  and  C_17
REMARK    7  A    between atoms: C_22  and  O_23
REMARK    8  A    between atoms: O_23  and  C_24
REMARK                            x       y       z     vdW  Elec       q    Type
REMARK                         _______ _______ _______ _____ _____    ______ ____
ROOT
ATOM      1  N   UNL     1      -8.454   4.159 131.263  0.00  0.00    +0.000 N 
ATOM      2  C   UNL     1      -7.583   3.394 130.400  0.00  0.00    +0.000 C 
ATOM      3  O   UNL     1      -7.705   3.425 129.164  0.00  0.00    +0.000 OA
ATOM      4  N   UNL     1      -6.479   2.738 130.981  0.00  0.00    +0.000 N 
ATOM      5  C   UNL     1      -5.234   2.210 130.397  0.00  0.00    +0.000 C 
ATOM      6  C   UNL     1      -5.523   0.823 131.051  0.00  0.00    +0.000 C 
ATOM      7  C   UNL     1      -6.498   1.595 131.891  0.00  0.00    +0.000 C 
ENDROOT
BRANCH   1   8
ATOM      8  C   UNL     1      -9.483   5.038 130.680  0.00  0.00    +0.000 A 
ATOM      9  C   UNL     1      -9.260   6.419 130.530  0.00  0.00    +0.000 A 
ATOM     10  C   UNL     1     -10.230   7.276 129.995  0.00  0.00    +0.000 A 
ATOM     11  C   UNL     1     -11.456   6.755 129.635  0.00  0.00    +0.000 A 
ATOM     12  N   UNL     1     -11.738   5.443 129.806  0.00  0.00    +0.000 NA
ATOM     13  C   UNL     1     -10.754   4.619 130.301  0.00  0.00    +0.000 A 
BRANCH  11  14
ATOM     14  O   UNL     1     -12.476   7.486 129.080  0.00  0.00    +0.000 OA
ATOM     15  C   UNL     1     -12.275   8.892 128.959  0.00  0.00    +0.000 C 
ENDBRANCH  11  14
ENDBRANCH   1   8
BRANCH   1  17
ATOM     16  C   UNL     1      -9.257   3.469 133.578  0.00  0.00    +0.000 C 
ATOM     17  C   UNL     1      -8.391   4.342 132.748  0.00  0.00    +0.000 C 
ENDBRANCH   1  17
BRANCH   6  18
ATOM     18  O   UNL     1      -6.075  -0.271 130.276  0.00  0.00    +0.000 OA
BRANCH  18  19
ATOM     19  C   UNL     1      -5.419  -1.498 130.303  0.00  0.00    +0.000 A 
ATOM     20  C   UNL     1      -4.045  -1.440 130.035  0.00  0.00    +0.000 A 
ATOM     21  C   UNL     1      -3.304  -2.613 129.829  0.00  0.00    +0.000 A 
ATOM     22  C   UNL     1      -3.923  -3.855 129.905  0.00  0.00    +0.000 A 
ATOM     23  C   UNL     1      -5.270  -3.917 130.199  0.00  0.00    +0.000 A 
ATOM     24  F   UNL     1      -5.856  -5.123 130.273  0.00  0.00    +0.000 F 
ATOM     25  C   UNL     1      -6.038  -2.764 130.394  0.00  0.00    +0.000 A 
ATOM     26  C   UNL     1      -7.473  -3.027 130.678  0.00  0.00    +0.000 C 
ENDBRANCH  18  19
ENDBRANCH   6  18
TORSDOF 5
ENDMDL
MODEL 7
REMARK VINA RESULT:      -7.1      4.440      5.967
REMARK  Name = CHEMBL1077300
REMARK  8 active torsions:
REMARK  status: ('A' for Active; 'I' for Inactive)
REMARK    1  A    between atoms: C_1  and  C_2
REMARK    2  A    between atoms: C_2  and  N_3
REMARK    3  A    between atoms: N_3  and  C_19
REMARK    4  A    between atoms: C_8  and  O_9
REMARK    5  A    between atoms: O_9  and  C_10
REMARK    6  A    between atoms: C_16  and  C_17
REMARK    7  A    between atoms: C_22  and  O_23
REMARK    8  A    between atoms: O_23  and  C_24
REMARK                            x       y       z     vdW  Elec       q    Type
REMARK                         _______ _______ _______ _____ _____    ______ ____
ROOT
ATOM      1  N   UNL     1      -7.138   1.692 129.720  0.00  0.00    +0.000 N 
ATOM      2  C   UNL     1      -8.233   2.419 130.320  0.00  0.00    +0.000 C 
ATOM      3  O   UNL     1      -9.163   1.830 130.897  0.00  0.00    +0.000 OA
ATOM      4  N   UNL     1      -8.142   3.824 130.389  0.00  0.00    +0.000 N 
ATOM      5  C   UNL     1      -8.848   4.813 131.221  0.00  0.00    +0.000 C 
ATOM      6  C   UNL     1      -9.261   5.593 129.935  0.00  0.00    +0.000 C 
ATOM      7  C   UNL     1      -8.186   4.776 129.281  0.00  0.00    +0.000 C 
ENDROOT
BRANCH   1   8
ATOM      8  C   UNL     1      -7.082   0.224 129.825  0.00  0.00    +0.000 A 
ATOM      9  C   UNL     1      -7.558  -0.598 128.788  0.00  0.00    +0.000 A 
ATOM     10  C   UNL     1      -7.532  -1.996 128.875  0.00  0.00    +0.000 A 
ATOM     11  C   UNL     1      -7.054  -2.585 130.028  0.00  0.00    +0.000 A 
ATOM     12  N   UNL     1      -6.632  -1.838 131.073  0.00  0.00    +0.000 NA
ATOM     13  C   UNL     1      -6.636  -0.468 130.947  0.00  0.00    +0.000 A 
BRANCH  11  14
ATOM     14  O   UNL     1      -6.957  -3.940 130.222  0.00  0.00    +0.000 OA
ATOM     15  C   UNL     1      -5.652  -4.475 130.425  0.00  0.00    +0.000 C 
ENDBRANCH  11  14
ENDBRANCH   1   8
BRANCH   1  17
ATOM     16  C   UNL     1      -4.727   2.467 129.990  0.00  0.00    +0.000 C 
ATOM     17  C   UNL     1      -5.884   2.221 129.094  0.00  0.00    +0.000 C 
ENDBRANCH   1  17
BRANCH   6  18
ATOM     18  O   UNL     1     -10.592   5.462 129.373  0.00  0.00    +0.000 OA
BRANCH  18  19
ATOM     19  C   UNL     1     -11.390   6.599 129.293  0.00  0.00    +0.000 A 
ATOM     20  C   UNL     1     -11.395   7.232 128.042  0.00  0.00    +0.000 A 
ATOM     21  C   UNL     1     -11.988   8.492 127.879  0.00  0.00    +0.000 A 
ATOM     22  C   UNL     1     -12.597   9.126 128.955  0.00  0.00    +0.000 A 
ATOM     23  C   UNL     1     -12.620   8.492 130.181  0.00  0.00    +0.000 A 
ATOM     24  F   UNL     1     -13.214   9.113 131.213  0.00  0.00    +0.000 F 
ATOM     25  C   UNL     1     -12.024   7.242 130.378  0.00  0.00    +0.000 A 
ATOM     26  C   UNL     1     -12.130   6.728 131.769  0.00  0.00    +0.000 C 
ENDBRANCH  18  19
ENDBRANCH   6  18
TORSDOF 5
ENDMDL
MODEL 8
REMARK VINA RESULT:      -7.0      8.864     11.918
REMARK  Name = CHEMBL1077300
REMARK  8 active torsions:
REMARK  status: ('A' for Active; 'I' for Inactive)
REMARK    1  A    between atoms: C_1  and  C_2
REMARK    2  A    between atoms: C_2  and  N_3
REMARK    3  A    between atoms: N_3  and  C_19
REMARK    4  A    between atoms: C_8  and  O_9
REMARK    5  A    between atoms: O_9  and  C_10
REMARK    6  A    between atoms: C_16  and  C_17
REMARK    7  A    between atoms: C_22  and  O_23
REMARK    8  A    between atoms: O_23  and  C_24
REMARK                            x       y       z     vdW  Elec       q    Type
REMARK                         _______ _______ _______ _____ _____    ______ ____
ROOT
ATOM      1  N   UNL     1      -5.821  -3.202 131.785  0.00  0.00    +0.000 N 
ATOM      2  C   UNL     1      -6.394  -3.818 130.610  0.00  0.00    +0.000 C 
ATOM      3  O   UNL     1      -6.109  -4.982 130.283  0.00  0.00    +0.000 OA
ATOM      4  N   UNL     1      -7.418  -3.128 129.929  0.00  0.00    +0.000 N 
ATOM      5  C   UNL     1      -8.440  -3.586 128.972  0.00  0.00    +0.000 C 
ATOM      6  C   UNL     1      -7.978  -2.489 127.963  0.00  0.00    +0.000 C 
ATOM      7  C   UNL     1      -7.303  -1.890 129.162  0.00  0.00    +0.000 C 
ENDROOT
BRANCH   1   8
ATOM      8  C   UNL     1      -4.915  -3.974 132.653  0.00  0.00    +0.000 A 
ATOM      9  C   UNL     1      -5.413  -4.769 133.702  0.00  0.00    +0.000 A 
ATOM     10  C   UNL     1      -4.568  -5.496 134.551  0.00  0.00    +0.000 A 
ATOM     11  C   UNL     1      -3.203  -5.402 134.374  0.00  0.00    +0.000 A 
ATOM     12  N   UNL     1      -2.673  -4.613 133.413  0.00  0.00    +0.000 NA
ATOM     13  C   UNL     1      -3.526  -3.938 132.572  0.00  0.00    +0.000 A 
BRANCH  11  14
ATOM     14  O   UNL     1      -2.277  -6.082 135.125  0.00  0.00    +0.000 OA
ATOM     15  C   UNL     1      -1.192  -5.327 135.658  0.00  0.00    +0.000 C 
ENDBRANCH  11  14
ENDBRANCH   1   8
BRANCH   1  17
ATOM     16  C   UNL     1      -5.254  -0.732 132.025  0.00  0.00    +0.000 C 
ATOM     17  C   UNL     1      -6.128  -1.871 132.400  0.00  0.00    +0.000 C 
ENDBRANCH   1  17
BRANCH   6  18
ATOM     18  O   UNL     1      -7.118  -2.814 126.843  0.00  0.00    +0.000 OA
BRANCH  18  19
ATOM     19  C   UNL     1      -7.609  -2.624 125.554  0.00  0.00    +0.000 A 
ATOM     20  C   UNL     1      -8.914  -3.091 125.344  0.00  0.00    +0.000 A 
ATOM     21  C   UNL     1      -9.455  -3.150 124.052  0.00  0.00    +0.000 A 
ATOM     22  C   UNL     1      -8.706  -2.729 122.959  0.00  0.00    +0.000 A 
ATOM     23  C   UNL     1      -7.432  -2.241 123.166  0.00  0.00    +0.000 A 
ATOM     24  F   UNL     1      -6.720  -1.834 122.102  0.00  0.00    +0.000 F 
ATOM     25  C   UNL     1      -6.861  -2.184 124.441  0.00  0.00    +0.000 A 
ATOM     26  C   UNL     1      -5.473  -1.651 124.465  0.00  0.00    +0.000 C 
ENDBRANCH  18  19
ENDBRANCH   6  18
TORSDOF 5
ENDMDL
MODEL 9
REMARK VINA RESULT:      -7.0      5.119      8.540
REMARK  Name = CHEMBL1077300
REMARK  8 active torsions:
REMARK  status: ('A' for Active; 'I' for Inactive)
REMARK    1  A    between atoms: C_1  and  C_2
REMARK    2  A    between atoms: C_2  and  N_3
REMARK    3  A    between atoms: N_3  and  C_19
REMARK    4  A    between atoms: C_8  and  O_9
REMARK    5  A    between atoms: O_9  and  C_10
REMARK    6  A    between atoms: C_16  and  C_17
REMARK    7  A    between atoms: C_22  and  O_23
REMARK    8  A    between atoms: O_23  and  C_24
REMARK                            x       y       z     vdW  Elec       q    Type
REMARK                         _______ _______ _______ _____ _____    ______ ____
ROOT
ATOM      1  N   UNL     1      -3.783   4.448 127.718  0.00  0.00    +0.000 N 
ATOM      2  C   UNL     1      -5.180   4.513 127.352  0.00  0.00    +0.000 C 
ATOM      3  O   UNL     1      -6.060   4.755 128.196  0.00  0.00    +0.000 OA
ATOM      4  N   UNL     1      -5.513   4.464 125.983  0.00  0.00    +0.000 N 
ATOM      5  C   UNL     1      -6.730   4.861 125.256  0.00  0.00    +0.000 C 
ATOM      6  C   UNL     1      -6.806   3.440 124.617  0.00  0.00    +0.000 C 
ATOM      7  C   UNL     1      -5.381   3.328 125.074  0.00  0.00    +0.000 C 
ENDROOT
BRANCH   1   8
ATOM      8  C   UNL     1      -3.371   4.719 129.106  0.00  0.00    +0.000 A 
ATOM      9  C   UNL     1      -2.616   5.861 129.431  0.00  0.00    +0.000 A 
ATOM     10  C   UNL     1      -2.197   6.129 130.741  0.00  0.00    +0.000 A 
ATOM     11  C   UNL     1      -2.507   5.227 131.738  0.00  0.00    +0.000 A 
ATOM     12  N   UNL     1      -3.187   4.089 131.469  0.00  0.00    +0.000 NA
ATOM     13  C   UNL     1      -3.615   3.869 130.180  0.00  0.00    +0.000 A 
BRANCH  11  14
ATOM     14  O   UNL     1      -2.173   5.389 133.060  0.00  0.00    +0.000 OA
ATOM     15  C   UNL     1      -1.106   6.286 133.354  0.00  0.00    +0.000 C 
ENDBRANCH  11  14
ENDBRANCH   1   8
BRANCH   1  17
ATOM     16  C   UNL     1      -1.847   3.002 126.916  0.00  0.00    +0.000 C 
ATOM     17  C   UNL     1      -2.582   4.288 126.837  0.00  0.00    +0.000 C 
ENDBRANCH   1  17
BRANCH   6  18
ATOM     18  O   UNL     1      -7.720   2.436 125.127  0.00  0.00    +0.000 OA
BRANCH  18  19
ATOM     19  C   UNL     1      -8.229   1.494 124.238  0.00  0.00    +0.000 A 
ATOM     20  C   UNL     1      -9.419   1.867 123.598  0.00  0.00    +0.000 A 
ATOM     21  C   UNL     1     -10.146   0.939 122.838  0.00  0.00    +0.000 A 
ATOM     22  C   UNL     1      -9.687  -0.364 122.697  0.00  0.00    +0.000 A 
ATOM     23  C   UNL     1      -8.501  -0.727 123.301  0.00  0.00    +0.000 A 
ATOM     24  F   UNL     1      -8.065  -1.989 123.155  0.00  0.00    +0.000 F 
ATOM     25  C   UNL     1      -7.761   0.172 124.077  0.00  0.00    +0.000 A 
ATOM     26  C   UNL     1      -6.524  -0.405 124.667  0.00  0.00    +0.000 C 
ENDBRANCH  18  19
ENDBRANCH   6  18
TORSDOF 5
ENDMDL
