MODEL 1
REMARK VINA RESULT:      -7.9      0.000      0.000
REMARK  Name = CHEMBL466762
REMARK  6 active torsions:
REMARK  status: ('A' for Active; 'I' for Inactive)
REMARK    1  A    between atoms: C_1  and  O_2
REMARK    2  A    between atoms: O_2  and  C_3
REMARK    3  A    between atoms: C_6  and  N_7
REMARK    4  A    between atoms: C_8  and  C_9
REMARK    5  A    between atoms: C_12  and  C_13
REMARK    6  A    between atoms: C_16  and  C_17
REMARK                            x       y       z     vdW  Elec       q    Type
REMARK                         _______ _______ _______ _____ _____    ______ ____
ROOT
ATOM      1  N   UNL     1      -6.673   3.237 123.127  0.00  0.00    +0.000 N 
ATOM      2  C   UNL     1      -5.869   3.713 122.094  0.00  0.00    +0.000 A 
ATOM      3  C   UNL     1      -5.836   3.283 120.671  0.00  0.00    +0.000 C 
ATOM      4  N   UNL     1      -5.173   4.744 122.535  0.00  0.00    +0.000 NA
ATOM      5  N   UNL     1      -5.517   4.979 123.831  0.00  0.00    +0.000 NA
ATOM      6  C   UNL     1      -6.416   4.081 124.206  0.00  0.00    +0.000 A 
ENDROOT
BRANCH   1  10
ATOM      7  C   UNL     1      -9.167  -0.111 123.179  0.00  0.00    +0.000 A 
ATOM      8  C   UNL     1      -9.732   1.124 122.891  0.00  0.00    +0.000 A 
ATOM      9  C   UNL     1      -8.911   2.256 122.860  0.00  0.00    +0.000 A 
ATOM     10  C   UNL     1      -7.545   2.117 123.120  0.00  0.00    +0.000 A 
ATOM     11  C   UNL     1      -7.077   0.856 123.459  0.00  0.00    +0.000 A 
ATOM     12  N   UNL     1      -7.861  -0.252 123.498  0.00  0.00    +0.000 NA
BRANCH   7  14
ATOM     13  C   UNL     1      -9.116  -2.453 123.229  0.00  0.00    +0.000 C 
ATOM     14  O   UNL     1      -9.906  -1.264 123.235  0.00  0.00    +0.000 OA
ENDBRANCH   7  14
ENDBRANCH   1  10
BRANCH   6  15
ATOM     15  C   UNL     1      -6.925   3.949 125.566  0.00  0.00    +0.000 A 
ATOM     16  C   UNL     1      -7.965   4.727 126.070  0.00  0.00    +0.000 A 
ATOM     17  N   UNL     1      -8.433   4.614 127.346  0.00  0.00    +0.000 NA
ATOM     18  C   UNL     1      -7.826   3.681 128.123  0.00  0.00    +0.000 A 
ATOM     19  C   UNL     1      -6.817   2.874 127.594  0.00  0.00    +0.000 A 
ATOM     20  N   UNL     1      -6.341   2.994 126.327  0.00  0.00    +0.000 NA
BRANCH  18  21
ATOM     21  C   UNL     1      -8.253   3.598 129.529  0.00  0.00    +0.000 A 
ATOM     22  C   UNL     1      -9.352   2.788 129.890  0.00  0.00    +0.000 A 
ATOM     23  C   UNL     1      -9.762   2.659 131.224  0.00  0.00    +0.000 A 
ATOM     24  C   UNL     1      -9.086   3.345 132.228  0.00  0.00    +0.000 A 
ATOM     25  C   UNL     1      -8.012   4.160 131.891  0.00  0.00    +0.000 A 
ATOM     26  F   UNL     1      -7.379   4.816 132.876  0.00  0.00    +0.000 F 
ATOM     27  C   UNL     1      -7.594   4.297 130.563  0.00  0.00    +0.000 A 
ATOM     28 CL   UNL     1      -6.266   5.366 130.245  0.00  0.00    +0.000 Cl
ENDBRANCH  18  21
ENDBRANCH   6  15
TORSDOF 4
ENDMDL
MODEL 2
REMARK VINA RESULT:      -7.8      1.722      2.269
REMARK  Name = CHEMBL466762
REMARK  6 active torsions:
REMARK  status: ('A' for Active; 'I' for Inactive)
REMARK    1  A    between atoms: C_1  and  O_2
REMARK    2  A    between atoms: O_2  and  C_3
REMARK    3  A    between atoms: C_6  and  N_7
REMARK    4  A    between atoms: C_8  and  C_9
REMARK    5  A    between atoms: C_12  and  C_13
REMARK    6  A    between atoms: C_16  and  C_17
REMARK                            x       y       z     vdW  Elec       q    Type
REMARK                         _______ _______ _______ _____ _____    ______ ____
ROOT
ATOM      1  N   UNL     1      -7.033   3.119 124.785  0.00  0.00    +0.000 N 
ATOM      2  C   UNL     1      -6.417   3.549 123.612  0.00  0.00    +0.000 A 
ATOM      3  C   UNL     1      -6.454   2.926 122.263  0.00  0.00    +0.000 C 
ATOM      4  N   UNL     1      -5.854   4.723 123.832  0.00  0.00    +0.000 NA
ATOM      5  N   UNL     1      -6.104   5.092 125.118  0.00  0.00    +0.000 NA
ATOM      6  C   UNL     1      -6.810   4.139 125.708  0.00  0.00    +0.000 A 
ENDROOT
BRANCH   1  10
ATOM      7  C   UNL     1      -9.124  -0.438 125.425  0.00  0.00    +0.000 A 
ATOM      8  C   UNL     1      -7.741  -0.459 125.547  0.00  0.00    +0.000 A 
ATOM      9  C   UNL     1      -7.024   0.726 125.345  0.00  0.00    +0.000 A 
ATOM     10  C   UNL     1      -7.715   1.897 125.025  0.00  0.00    +0.000 A 
ATOM     11  C   UNL     1      -9.089   1.812 124.863  0.00  0.00    +0.000 A 
ATOM     12  N   UNL     1      -9.801   0.671 125.051  0.00  0.00    +0.000 NA
BRANCH   7  14
ATOM     13  C   UNL     1      -9.154  -2.707 126.006  0.00  0.00    +0.000 C 
ATOM     14  O   UNL     1      -9.895  -1.557 125.600  0.00  0.00    +0.000 OA
ENDBRANCH   7  14
ENDBRANCH   1  10
BRANCH   6  15
ATOM     15  C   UNL     1      -7.159   4.136 127.124  0.00  0.00    +0.000 A 
ATOM     16  C   UNL     1      -6.352   3.569 128.107  0.00  0.00    +0.000 A 
ATOM     17  N   UNL     1      -6.684   3.554 129.430  0.00  0.00    +0.000 NA
ATOM     18  C   UNL     1      -7.867   4.135 129.755  0.00  0.00    +0.000 A 
ATOM     19  C   UNL     1      -8.647   4.741 128.767  0.00  0.00    +0.000 A 
ATOM     20  N   UNL     1      -8.323   4.746 127.448  0.00  0.00    +0.000 NA
BRANCH  18  21
ATOM     21  C   UNL     1      -8.291   4.055 131.162  0.00  0.00    +0.000 A 
ATOM     22  C   UNL     1      -8.844   2.859 131.669  0.00  0.00    +0.000 A 
ATOM     23  C   UNL     1      -9.225   2.737 133.012  0.00  0.00    +0.000 A 
ATOM     24  C   UNL     1      -9.068   3.815 133.878  0.00  0.00    +0.000 A 
ATOM     25  C   UNL     1      -8.541   5.006 133.395  0.00  0.00    +0.000 A 
ATOM     26  F   UNL     1      -8.405   6.033 134.248  0.00  0.00    +0.000 F 
ATOM     27  C   UNL     1      -8.158   5.138 132.056  0.00  0.00    +0.000 A 
ATOM     28 CL   UNL     1      -7.545   6.678 131.544  0.00  0.00    +0.000 Cl
ENDBRANCH  18  21
ENDBRANCH   6  15
TORSDOF 4
ENDMDL
MODEL 3
REMARK VINA RESULT:      -7.7      4.650      7.770
REMARK  Name = CHEMBL466762
REMARK  6 active torsions:
REMARK  status: ('A' for Active; 'I' for Inactive)
REMARK    1  A    between atoms: C_1  and  O_2
REMARK    2  A    between atoms: O_2  and  C_3
REMARK    3  A    between atoms: C_6  and  N_7
REMARK    4  A    between atoms: C_8  and  C_9
REMARK    5  A    between atoms: C_12  and  C_13
REMARK    6  A    between atoms: C_16  and  C_17
REMARK                            x       y       z     vdW  Elec       q    Type
REMARK                         _______ _______ _______ _____ _____    ______ ____
ROOT
ATOM      1  N   UNL     1      -7.489   4.122 129.516  0.00  0.00    +0.000 N 
ATOM      2  C   UNL     1      -8.095   5.050 130.360  0.00  0.00    +0.000 A 
ATOM      3  C   UNL     1      -7.530   6.312 130.908  0.00  0.00    +0.000 C 
ATOM      4  N   UNL     1      -9.359   4.710 130.532  0.00  0.00    +0.000 NA
ATOM      5  N   UNL     1      -9.612   3.591 129.800  0.00  0.00    +0.000 NA
ATOM      6  C   UNL     1      -8.499   3.220 129.185  0.00  0.00    +0.000 A 
ENDROOT
BRANCH   1  10
ATOM      7  C   UNL     1      -3.524   4.032 128.213  0.00  0.00    +0.000 A 
ATOM      8  C   UNL     1      -3.802   3.594 129.501  0.00  0.00    +0.000 A 
ATOM      9  C   UNL     1      -5.126   3.608 129.952  0.00  0.00    +0.000 A 
ATOM     10  C   UNL     1      -6.134   4.063 129.099  0.00  0.00    +0.000 A 
ATOM     11  C   UNL     1      -5.758   4.540 127.852  0.00  0.00    +0.000 A 
ATOM     12  N   UNL     1      -4.478   4.537 127.400  0.00  0.00    +0.000 NA
BRANCH   7  14
ATOM     13  C   UNL     1      -2.015   3.060 126.708  0.00  0.00    +0.000 C 
ATOM     14  O   UNL     1      -2.253   4.057 127.702  0.00  0.00    +0.000 OA
ENDBRANCH   7  14
ENDBRANCH   1  10
BRANCH   6  15
ATOM     15  C   UNL     1      -8.362   1.993 128.407  0.00  0.00    +0.000 A 
ATOM     16  C   UNL     1      -7.855   0.809 128.935  0.00  0.00    +0.000 A 
ATOM     17  N   UNL     1      -7.714  -0.335 128.205  0.00  0.00    +0.000 NA
ATOM     18  C   UNL     1      -8.105  -0.266 126.907  0.00  0.00    +0.000 A 
ATOM     19  C   UNL     1      -8.655   0.914 126.401  0.00  0.00    +0.000 A 
ATOM     20  N   UNL     1      -8.785   2.057 127.123  0.00  0.00    +0.000 NA
BRANCH  18  21
ATOM     21  C   UNL     1      -7.882  -1.459 126.074  0.00  0.00    +0.000 A 
ATOM     22  C   UNL     1      -8.927  -2.387 125.873  0.00  0.00    +0.000 A 
ATOM     23  C   UNL     1      -8.760  -3.515 125.057  0.00  0.00    +0.000 A 
ATOM     24  C   UNL     1      -7.539  -3.745 124.432  0.00  0.00    +0.000 A 
ATOM     25  C   UNL     1      -6.493  -2.852 124.631  0.00  0.00    +0.000 A 
ATOM     26  F   UNL     1      -5.323  -3.097 124.021  0.00  0.00    +0.000 F 
ATOM     27  C   UNL     1      -6.649  -1.723 125.443  0.00  0.00    +0.000 A 
ATOM     28 CL   UNL     1      -5.271  -0.690 125.655  0.00  0.00    +0.000 Cl
ENDBRANCH  18  21
ENDBRANCH   6  15
TORSDOF 4
ENDMDL
MODEL 4
REMARK VINA RESULT:      -7.6      4.256      7.859
REMARK  Name = CHEMBL466762
REMARK  6 active torsions:
REMARK  status: ('A' for Active; 'I' for Inactive)
REMARK    1  A    between atoms: C_1  and  O_2
REMARK    2  A    between atoms: O_2  and  C_3
REMARK    3  A    between atoms: C_6  and  N_7
REMARK    4  A    between atoms: C_8  and  C_9
REMARK    5  A    between atoms: C_12  and  C_13
REMARK    6  A    between atoms: C_16  and  C_17
REMARK                            x       y       z     vdW  Elec       q    Type
REMARK                         _______ _______ _______ _____ _____    ______ ____
ROOT
ATOM      1  N   UNL     1      -8.503   3.878 129.646  0.00  0.00    +0.000 N 
ATOM      2  C   UNL     1      -9.035   5.138 129.915  0.00  0.00    +0.000 A 
ATOM      3  C   UNL     1      -9.343   5.752 131.234  0.00  0.00    +0.000 C 
ATOM      4  N   UNL     1      -9.127   5.813 128.784  0.00  0.00    +0.000 NA
ATOM      5  N   UNL     1      -8.645   5.038 127.774  0.00  0.00    +0.000 NA
ATOM      6  C   UNL     1      -8.268   3.870 128.272  0.00  0.00    +0.000 A 
ENDROOT
BRANCH   1  10
ATOM      7  C   UNL     1      -7.742   0.784 132.343  0.00  0.00    +0.000 A 
ATOM      8  C   UNL     1      -9.041   0.945 131.878  0.00  0.00    +0.000 A 
ATOM      9  C   UNL     1      -9.313   1.971 130.967  0.00  0.00    +0.000 A 
ATOM     10  C   UNL     1      -8.275   2.807 130.549  0.00  0.00    +0.000 A 
ATOM     11  C   UNL     1      -7.023   2.613 131.112  0.00  0.00    +0.000 A 
ATOM     12  N   UNL     1      -6.742   1.626 132.001  0.00  0.00    +0.000 NA
BRANCH   7  14
ATOM     13  C   UNL     1      -7.460  -1.513 132.708  0.00  0.00    +0.000 C 
ATOM     14  O   UNL     1      -7.397  -0.191 133.242  0.00  0.00    +0.000 OA
ENDBRANCH   7  14
ENDBRANCH   1  10
BRANCH   6  15
ATOM     15  C   UNL     1      -7.813   2.743 127.466  0.00  0.00    +0.000 A 
ATOM     16  C   UNL     1      -6.488   2.573 127.072  0.00  0.00    +0.000 A 
ATOM     17  N   UNL     1      -6.064   1.526 126.307  0.00  0.00    +0.000 NA
ATOM     18  C   UNL     1      -7.017   0.632 125.939  0.00  0.00    +0.000 A 
ATOM     19  C   UNL     1      -8.333   0.788 126.378  0.00  0.00    +0.000 A 
ATOM     20  N   UNL     1      -8.759   1.836 127.130  0.00  0.00    +0.000 NA
BRANCH  18  21
ATOM     21  C   UNL     1      -6.603  -0.458 125.041  0.00  0.00    +0.000 A 
ATOM     22  C   UNL     1      -6.901  -0.392 123.663  0.00  0.00    +0.000 A 
ATOM     23  C   UNL     1      -6.491  -1.396 122.774  0.00  0.00    +0.000 A 
ATOM     24  C   UNL     1      -5.781  -2.494 123.247  0.00  0.00    +0.000 A 
ATOM     25  C   UNL     1      -5.492  -2.586 124.603  0.00  0.00    +0.000 A 
ATOM     26  F   UNL     1      -4.810  -3.657 125.037  0.00  0.00    +0.000 F 
ATOM     27  C   UNL     1      -5.896  -1.590 125.499  0.00  0.00    +0.000 A 
ATOM     28 CL   UNL     1      -5.517  -1.817 127.176  0.00  0.00    +0.000 Cl
ENDBRANCH  18  21
ENDBRANCH   6  15
TORSDOF 4
ENDMDL
MODEL 5
REMARK VINA RESULT:      -7.5      5.052      6.735
REMARK  Name = CHEMBL466762
REMARK  6 active torsions:
REMARK  status: ('A' for Active; 'I' for Inactive)
REMARK    1  A    between atoms: C_1  and  O_2
REMARK    2  A    between atoms: O_2  and  C_3
REMARK    3  A    between atoms: C_6  and  N_7
REMARK    4  A    between atoms: C_8  and  C_9
REMARK    5  A    between atoms: C_12  and  C_13
REMARK    6  A    between atoms: C_16  and  C_17
REMARK                            x       y       z     vdW  Elec       q    Type
REMARK                         _______ _______ _______ _____ _____    ______ ____
ROOT
ATOM      1  N   UNL     1      -8.790  -1.056 124.615  0.00  0.00    +0.000 N 
ATOM      2  C   UNL     1      -9.433  -1.303 123.405  0.00  0.00    +0.000 A 
ATOM      3  C   UNL     1      -9.724  -0.352 122.299  0.00  0.00    +0.000 C 
ATOM      4  N   UNL     1      -9.664  -2.599 123.300  0.00  0.00    +0.000 NA
ATOM      5  N   UNL     1      -9.165  -3.220 124.404  0.00  0.00    +0.000 NA
ATOM      6  C   UNL     1      -8.638  -2.309 125.208  0.00  0.00    +0.000 A 
ENDROOT
BRANCH   1  10
ATOM      7  C   UNL     1      -7.697   2.590 126.328  0.00  0.00    +0.000 A 
ATOM      8  C   UNL     1      -6.836   2.016 125.402  0.00  0.00    +0.000 A 
ATOM      9  C   UNL     1      -7.190   0.798 124.812  0.00  0.00    +0.000 A 
ATOM     10  C   UNL     1      -8.396   0.191 125.166  0.00  0.00    +0.000 A 
ATOM     11  C   UNL     1      -9.165   0.804 126.144  0.00  0.00    +0.000 A 
ATOM     12  N   UNL     1      -8.835   1.983 126.732  0.00  0.00    +0.000 NA
BRANCH   7  14
ATOM     13  C   UNL     1      -8.000   3.888 128.255  0.00  0.00    +0.000 C 
ATOM     14  O   UNL     1      -7.419   3.776 126.956  0.00  0.00    +0.000 OA
ENDBRANCH   7  14
ENDBRANCH   1  10
BRANCH   6  15
ATOM     15  C   UNL     1      -8.117  -2.595 126.539  0.00  0.00    +0.000 A 
ATOM     16  C   UNL     1      -6.861  -2.177 126.973  0.00  0.00    +0.000 A 
ATOM     17  N   UNL     1      -6.368  -2.455 128.214  0.00  0.00    +0.000 NA
ATOM     18  C   UNL     1      -7.180  -3.173 129.031  0.00  0.00    +0.000 A 
ATOM     19  C   UNL     1      -8.455  -3.547 128.603  0.00  0.00    +0.000 A 
ATOM     20  N   UNL     1      -8.943  -3.281 127.363  0.00  0.00    +0.000 NA
BRANCH  18  21
ATOM     21  C   UNL     1      -6.637  -3.561 130.343  0.00  0.00    +0.000 A 
ATOM     22  C   UNL     1      -5.860  -4.733 130.470  0.00  0.00    +0.000 A 
ATOM     23  C   UNL     1      -5.299  -5.112 131.697  0.00  0.00    +0.000 A 
ATOM     24  C   UNL     1      -5.512  -4.332 132.829  0.00  0.00    +0.000 A 
ATOM     25  C   UNL     1      -6.288  -3.184 132.728  0.00  0.00    +0.000 A 
ATOM     26  F   UNL     1      -6.484  -2.450 133.834  0.00  0.00    +0.000 F 
ATOM     27  C   UNL     1      -6.853  -2.796 131.509  0.00  0.00    +0.000 A 
ATOM     28 CL   UNL     1      -7.836  -1.367 131.497  0.00  0.00    +0.000 Cl
ENDBRANCH  18  21
ENDBRANCH   6  15
TORSDOF 4
ENDMDL
MODEL 6
REMARK VINA RESULT:      -7.1      4.030      8.209
REMARK  Name = CHEMBL466762
REMARK  6 active torsions:
REMARK  status: ('A' for Active; 'I' for Inactive)
REMARK    1  A    between atoms: C_1  and  O_2
REMARK    2  A    between atoms: O_2  and  C_3
REMARK    3  A    between atoms: C_6  and  N_7
REMARK    4  A    between atoms: C_8  and  C_9
REMARK    5  A    between atoms: C_12  and  C_13
REMARK    6  A    between atoms: C_16  and  C_17
REMARK                            x       y       z     vdW  Elec       q    Type
REMARK                         _______ _______ _______ _____ _____    ______ ____
ROOT
ATOM      1  N   UNL     1      -7.735   3.247 131.080  0.00  0.00    +0.000 N 
ATOM      2  C   UNL     1      -7.283   2.882 132.347  0.00  0.00    +0.000 A 
ATOM      3  C   UNL     1      -7.959   3.061 133.659  0.00  0.00    +0.000 C 
ATOM      4  N   UNL     1      -6.158   2.204 132.220  0.00  0.00    +0.000 NA
ATOM      5  N   UNL     1      -5.865   2.089 130.895  0.00  0.00    +0.000 NA
ATOM      6  C   UNL     1      -6.800   2.712 130.194  0.00  0.00    +0.000 A 
ENDROOT
BRANCH   1  10
ATOM      7  C   UNL     1     -11.149   5.440 130.104  0.00  0.00    +0.000 A 
ATOM      8  C   UNL     1     -10.024   6.133 130.530  0.00  0.00    +0.000 A 
ATOM      9  C   UNL     1      -8.868   5.415 130.854  0.00  0.00    +0.000 A 
ATOM     10  C   UNL     1      -8.873   4.024 130.741  0.00  0.00    +0.000 A 
ATOM     11  C   UNL     1     -10.059   3.410 130.366  0.00  0.00    +0.000 A 
ATOM     12  N   UNL     1     -11.192   4.090 130.053  0.00  0.00    +0.000 NA
BRANCH   7  14
ATOM     13  C   UNL     1     -12.603   7.214 130.583  0.00  0.00    +0.000 C 
ATOM     14  O   UNL     1     -12.322   6.070 129.777  0.00  0.00    +0.000 OA
ENDBRANCH   7  14
ENDBRANCH   1  10
BRANCH   6  15
ATOM     15  C   UNL     1      -6.753   2.900 128.749  0.00  0.00    +0.000 A 
ATOM     16  C   UNL     1      -6.532   4.136 128.147  0.00  0.00    +0.000 A 
ATOM     17  N   UNL     1      -6.500   4.315 126.795  0.00  0.00    +0.000 NA
ATOM     18  C   UNL     1      -6.694   3.203 126.042  0.00  0.00    +0.000 A 
ATOM     19  C   UNL     1      -6.868   1.960 126.656  0.00  0.00    +0.000 A 
ATOM     20  N   UNL     1      -6.912   1.783 128.002  0.00  0.00    +0.000 NA
BRANCH  18  21
ATOM     21  C   UNL     1      -6.752   3.382 124.582  0.00  0.00    +0.000 A 
ATOM     22  C   UNL     1      -5.654   3.940 123.893  0.00  0.00    +0.000 A 
ATOM     23  C   UNL     1      -5.662   4.092 122.499  0.00  0.00    +0.000 A 
ATOM     24  C   UNL     1      -6.775   3.696 121.764  0.00  0.00    +0.000 A 
ATOM     25  C   UNL     1      -7.872   3.159 122.426  0.00  0.00    +0.000 A 
ATOM     26  F   UNL     1      -8.936   2.789 121.696  0.00  0.00    +0.000 F 
ATOM     27  C   UNL     1      -7.875   3.003 123.816  0.00  0.00    +0.000 A 
ATOM     28 CL   UNL     1      -9.309   2.357 124.549  0.00  0.00    +0.000 Cl
ENDBRANCH  18  21
ENDBRANCH   6  15
TORSDOF 4
ENDMDL
MODEL 7
REMARK VINA RESULT:      -7.1      4.099      8.339
REMARK  Name = CHEMBL466762
REMARK  6 active torsions:
REMARK  status: ('A' for Active; 'I' for Inactive)
REMARK    1  A    between atoms: C_1  and  O_2
REMARK    2  A    between atoms: O_2  and  C_3
REMARK    3  A    between atoms: C_6  and  N_7
REMARK    4  A    between atoms: C_8  and  C_9
REMARK    5  A    between atoms: C_12  and  C_13
REMARK    6  A    between atoms: C_16  and  C_17
REMARK                            x       y       z     vdW  Elec       q    Type
REMARK                         _______ _______ _______ _____ _____    ______ ____
ROOT
ATOM      1  N   UNL     1      -8.600   3.862 131.545  0.00  0.00    +0.000 N 
ATOM      2  C   UNL     1      -8.420   3.522 132.883  0.00  0.00    +0.000 A 
ATOM      3  C   UNL     1      -9.034   4.141 134.088  0.00  0.00    +0.000 C 
ATOM      4  N   UNL     1      -7.679   2.431 132.951  0.00  0.00    +0.000 NA
ATOM      5  N   UNL     1      -7.384   2.026 131.685  0.00  0.00    +0.000 NA
ATOM      6  C   UNL     1      -7.927   2.875 130.826  0.00  0.00    +0.000 A 
ENDROOT
BRANCH   1  10
ATOM      7  C   UNL     1     -10.509   7.199 129.918  0.00  0.00    +0.000 A 
ATOM      8  C   UNL     1     -11.251   6.037 130.089  0.00  0.00    +0.000 A 
ATOM      9  C   UNL     1     -10.630   4.912 130.641  0.00  0.00    +0.000 A 
ATOM     10  C   UNL     1      -9.283   4.983 131.005  0.00  0.00    +0.000 A 
ATOM     11  C   UNL     1      -8.604   6.163 130.741  0.00  0.00    +0.000 A 
ATOM     12  N   UNL     1      -9.189   7.264 130.202  0.00  0.00    +0.000 NA
BRANCH   7  14
ATOM     13  C   UNL     1     -11.187   8.289 127.958  0.00  0.00    +0.000 C 
ATOM     14  O   UNL     1     -11.042   8.340 129.377  0.00  0.00    +0.000 OA
ENDBRANCH   7  14
ENDBRANCH   1  10
BRANCH   6  15
ATOM     15  C   UNL     1      -7.719   2.826 129.383  0.00  0.00    +0.000 A 
ATOM     16  C   UNL     1      -8.673   2.343 128.491  0.00  0.00    +0.000 A 
ATOM     17  N   UNL     1      -8.475   2.285 127.143  0.00  0.00    +0.000 NA
ATOM     18  C   UNL     1      -7.275   2.735 126.697  0.00  0.00    +0.000 A 
ATOM     19  C   UNL     1      -6.343   3.261 127.595  0.00  0.00    +0.000 A 
ATOM     20  N   UNL     1      -6.535   3.308 128.939  0.00  0.00    +0.000 NA
BRANCH  18  21
ATOM     21  C   UNL     1      -7.001   2.602 125.257  0.00  0.00    +0.000 A 
ATOM     22  C   UNL     1      -7.248   1.378 124.599  0.00  0.00    +0.000 A 
ATOM     23  C   UNL     1      -7.032   1.228 123.222  0.00  0.00    +0.000 A 
ATOM     24  C   UNL     1      -6.554   2.299 122.473  0.00  0.00    +0.000 A 
ATOM     25  C   UNL     1      -6.288   3.507 123.106  0.00  0.00    +0.000 A 
ATOM     26  F   UNL     1      -5.823   4.524 122.365  0.00  0.00    +0.000 F 
ATOM     27  C   UNL     1      -6.500   3.668 124.480  0.00  0.00    +0.000 A 
ATOM     28 CL   UNL     1      -6.103   5.205 125.179  0.00  0.00    +0.000 Cl
ENDBRANCH  18  21
ENDBRANCH   6  15
TORSDOF 4
ENDMDL
MODEL 8
REMARK VINA RESULT:      -7.0      6.805      9.324
REMARK  Name = CHEMBL466762
REMARK  6 active torsions:
REMARK  status: ('A' for Active; 'I' for Inactive)
REMARK    1  A    between atoms: C_1  and  O_2
REMARK    2  A    between atoms: O_2  and  C_3
REMARK    3  A    between atoms: C_6  and  N_7
REMARK    4  A    between atoms: C_8  and  C_9
REMARK    5  A    between atoms: C_12  and  C_13
REMARK    6  A    between atoms: C_16  and  C_17
REMARK                            x       y       z     vdW  Elec       q    Type
REMARK                         _______ _______ _______ _____ _____    ______ ____
ROOT
ATOM      1  N   UNL     1      -9.690   4.414 131.490  0.00  0.00    +0.000 N 
ATOM      2  C   UNL     1     -10.706   5.259 131.051  0.00  0.00    +0.000 A 
ATOM      3  C   UNL     1     -10.933   6.690 131.389  0.00  0.00    +0.000 C 
ATOM      4  N   UNL     1     -11.427   4.627 130.144  0.00  0.00    +0.000 NA
ATOM      5  N   UNL     1     -10.895   3.389 129.952  0.00  0.00    +0.000 NA
ATOM      6  C   UNL     1      -9.852   3.241 130.754  0.00  0.00    +0.000 A 
ENDROOT
BRANCH   1  10
ATOM      7  C   UNL     1      -6.780   5.215 134.374  0.00  0.00    +0.000 A 
ATOM      8  C   UNL     1      -7.914   4.514 134.763  0.00  0.00    +0.000 A 
ATOM      9  C   UNL     1      -8.895   4.229 133.808  0.00  0.00    +0.000 A 
ATOM     10  C   UNL     1      -8.713   4.655 132.490  0.00  0.00    +0.000 A 
ATOM     11  C   UNL     1      -7.580   5.403 132.205  0.00  0.00    +0.000 A 
ATOM     12  N   UNL     1      -6.620   5.693 133.120  0.00  0.00    +0.000 NA
BRANCH   7  14
ATOM     13  C   UNL     1      -5.930   4.949 136.541  0.00  0.00    +0.000 C 
ATOM     14  O   UNL     1      -5.779   5.541 135.251  0.00  0.00    +0.000 OA
ENDBRANCH   7  14
ENDBRANCH   1  10
BRANCH   6  15
ATOM     15  C   UNL     1      -9.107   1.997 130.909  0.00  0.00    +0.000 A 
ATOM     16  C   UNL     1      -9.456   1.007 131.824  0.00  0.00    +0.000 A 
ATOM     17  N   UNL     1      -8.752  -0.151 131.978  0.00  0.00    +0.000 NA
ATOM     18  C   UNL     1      -7.668  -0.301 131.175  0.00  0.00    +0.000 A 
ATOM     19  C   UNL     1      -7.353   0.676 130.229  0.00  0.00    +0.000 A 
ATOM     20  N   UNL     1      -8.047   1.836 130.083  0.00  0.00    +0.000 NA
BRANCH  18  21
ATOM     21  C   UNL     1      -6.841  -1.501 131.382  0.00  0.00    +0.000 A 
ATOM     22  C   UNL     1      -5.856  -1.517 132.393  0.00  0.00    +0.000 A 
ATOM     23  C   UNL     1      -5.075  -2.655 132.640  0.00  0.00    +0.000 A 
ATOM     24  C   UNL     1      -5.257  -3.801 131.873  0.00  0.00    +0.000 A 
ATOM     25  C   UNL     1      -6.209  -3.800 130.862  0.00  0.00    +0.000 A 
ATOM     26  F   UNL     1      -6.363  -4.915 130.132  0.00  0.00    +0.000 F 
ATOM     27  C   UNL     1      -6.994  -2.670 130.607  0.00  0.00    +0.000 A 
ATOM     28 CL   UNL     1      -8.130  -2.759 129.299  0.00  0.00    +0.000 Cl
ENDBRANCH  18  21
ENDBRANCH   6  15
TORSDOF 4
ENDMDL
MODEL 9
REMARK VINA RESULT:      -7.0      4.345      6.030
REMARK  Name = CHEMBL466762
REMARK  6 active torsions:
REMARK  status: ('A' for Active; 'I' for Inactive)
REMARK    1  A    between atoms: C_1  and  O_2
REMARK    2  A    between atoms: O_2  and  C_3
REMARK    3  A    between atoms: C_6  and  N_7
REMARK    4  A    between atoms: C_8  and  C_9
REMARK    5  A    between atoms: C_12  and  C_13
REMARK    6  A    between atoms: C_16  and  C_17
REMARK                            x       y       z     vdW  Elec       q    Type
REMARK                         _______ _______ _______ _____ _____    ______ ____
ROOT
ATOM      1  N   UNL     1      -8.020  -0.947 126.574  0.00  0.00    +0.000 N 
ATOM      2  C   UNL     1      -9.029  -1.494 125.784  0.00  0.00    +0.000 A 
ATOM      3  C   UNL     1      -9.582  -2.875 125.812  0.00  0.00    +0.000 C 
ATOM      4  N   UNL     1      -9.552  -0.540 125.037  0.00  0.00    +0.000 NA
ATOM      5  N   UNL     1      -8.929   0.634 125.332  0.00  0.00    +0.000 NA
ATOM      6  C   UNL     1      -8.003   0.409 126.252  0.00  0.00    +0.000 A 
ENDROOT
BRANCH   1  10
ATOM      7  C   UNL     1      -5.397  -2.862 129.196  0.00  0.00    +0.000 A 
ATOM      8  C   UNL     1      -6.625  -2.443 129.688  0.00  0.00    +0.000 A 
ATOM      9  C   UNL     1      -7.521  -1.807 128.821  0.00  0.00    +0.000 A 
ATOM     10  C   UNL     1      -7.159  -1.609 127.487  0.00  0.00    +0.000 A 
ATOM     11  C   UNL     1      -5.888  -2.005 127.098  0.00  0.00    +0.000 A 
ATOM     12  N   UNL     1      -5.004  -2.619 127.926  0.00  0.00    +0.000 NA
BRANCH   7  14
ATOM     13  C   UNL     1      -3.161  -3.535 129.398  0.00  0.00    +0.000 C 
ATOM     14  O   UNL     1      -4.462  -3.484 129.983  0.00  0.00    +0.000 OA
ENDBRANCH   7  14
ENDBRANCH   1  10
BRANCH   6  15
ATOM     15  C   UNL     1      -7.055   1.412 126.724  0.00  0.00    +0.000 A 
ATOM     16  C   UNL     1      -5.768   1.548 126.209  0.00  0.00    +0.000 A 
ATOM     17  N   UNL     1      -4.877   2.477 126.659  0.00  0.00    +0.000 NA
ATOM     18  C   UNL     1      -5.315   3.289 127.655  0.00  0.00    +0.000 A 
ATOM     19  C   UNL     1      -6.623   3.176 128.131  0.00  0.00    +0.000 A 
ATOM     20  N   UNL     1      -7.507   2.243 127.692  0.00  0.00    +0.000 NA
BRANCH  18  21
ATOM     21  C   UNL     1      -4.345   4.243 128.219  0.00  0.00    +0.000 A 
ATOM     22  C   UNL     1      -4.017   5.420 127.513  0.00  0.00    +0.000 A 
ATOM     23  C   UNL     1      -3.125   6.366 128.037  0.00  0.00    +0.000 A 
ATOM     24  C   UNL     1      -2.533   6.150 129.277  0.00  0.00    +0.000 A 
ATOM     25  C   UNL     1      -2.830   4.989 129.980  0.00  0.00    +0.000 A 
ATOM     26  F   UNL     1      -2.244   4.800 131.172  0.00  0.00    +0.000 F 
ATOM     27  C   UNL     1      -3.719   4.038 129.467  0.00  0.00    +0.000 A 
ATOM     28 CL   UNL     1      -3.995   2.606 130.406  0.00  0.00    +0.000 Cl
ENDBRANCH  18  21
ENDBRANCH   6  15
TORSDOF 4
ENDMDL
