MODEL 1
REMARK VINA RESULT:      -9.6      0.000      0.000
REMARK  Name = CHEMBL265070
REMARK  7 active torsions:
REMARK  status: ('A' for Active; 'I' for Inactive)
REMARK    1  A    between atoms: C_1  and  O_2
REMARK    2  A    between atoms: O_2  and  C_3
REMARK    3  A    between atoms: C_5  and  O_6
REMARK    4  A    between atoms: O_6  and  C_7
REMARK    5  A    between atoms: N_10  and  C_11
REMARK    6  A    between atoms: C_27  and  C_28
REMARK    7  A    between atoms: C_33  and  N_34
REMARK                            x       y       z     vdW  Elec       q    Type
REMARK                         _______ _______ _______ _____ _____    ______ ____
ROOT
ATOM      1  C   UNL     1      -7.027  -1.174 133.064  0.00  0.00    +0.000 A 
ATOM      2  C   UNL     1      -6.014  -2.248 132.977  0.00  0.00    +0.000 A 
ATOM      3  C   UNL     1      -4.722  -1.978 132.645  0.00  0.00    +0.000 A 
ATOM      4  C   UNL     1      -4.594  -0.645 132.663  0.00  0.00    +0.000 A 
ATOM      5  F   UNL     1      -3.834  -0.320 131.689  0.00  0.00    +0.000 F 
ATOM      6  C   UNL     1      -5.445   0.402 133.017  0.00  0.00    +0.000 A 
ATOM      7  C   UNL     1      -6.745   0.174 132.933  0.00  0.00    +0.000 A 
ENDROOT
BRANCH   7   8
ATOM      8  C   UNL     1      -7.495   1.477 132.674  0.00  0.00    +0.000 C 
ATOM      9  O   UNL     1      -8.265   2.061 133.435  0.00  0.00    +0.000 OA
ATOM     10  N   UNL     1      -7.379   1.914 131.426  0.00  0.00    +0.000 N 
ATOM     11  C   UNL     1      -6.886   3.245 131.198  0.00  0.00    +0.000 C 
ATOM     12  C   UNL     1      -7.766   3.890 130.166  0.00  0.00    +0.000 C 
ATOM     13  C   UNL     1      -7.929   2.950 128.946  0.00  0.00    +0.000 C 
ATOM     14  C   UNL     1      -8.519   1.592 129.347  0.00  0.00    +0.000 C 
ATOM     15  C   UNL     1      -7.672   0.968 130.395  0.00  0.00    +0.000 C 
BRANCH  13  16
ATOM     16  N   UNL     1      -6.665   2.884 128.143  0.00  0.00    +0.000 N 
ATOM     17  C   UNL     1      -5.410   2.526 128.658  0.00  0.00    +0.000 C 
ATOM     18  O   UNL     1      -5.099   1.548 129.268  0.00  0.00    +0.000 OA
ATOM     19  O   UNL     1      -4.445   3.435 128.354  0.00  0.00    +0.000 OA
ATOM     20  C   UNL     1      -4.128   3.274 126.996  0.00  0.00    +0.000 C 
ATOM     21  C   UNL     1      -5.376   3.413 126.177  0.00  0.00    +0.000 A 
ATOM     22  C   UNL     1      -5.260   3.690 124.822  0.00  0.00    +0.000 A 
ATOM     23  C   UNL     1      -6.406   3.807 124.051  0.00  0.00    +0.000 A 
ATOM     24  C   UNL     1      -7.662   3.630 124.630  0.00  0.00    +0.000 A 
ATOM     25  C   UNL     1      -7.786   3.344 125.988  0.00  0.00    +0.000 A 
ATOM     26  C   UNL     1      -6.642   3.241 126.774  0.00  0.00    +0.000 A 
ENDBRANCH  13  16
ENDBRANCH   7   8
BRANCH   1  28
ATOM     27  C   UNL     1      -8.171  -2.850 133.916  0.00  0.00    +0.000 C 
ATOM     28  O   UNL     1      -8.290  -1.525 133.402  0.00  0.00    +0.000 OA
ENDBRANCH   1  28
BRANCH   3  29
ATOM     29  O   UNL     1      -3.748  -2.831 132.192  0.00  0.00    +0.000 OA
BRANCH  29  30
ATOM     30  C   UNL     1      -3.657  -3.549 130.856  0.00  0.00    +0.000 C 
ATOM     31  C   UNL     1      -3.377  -2.767 129.542  0.00  0.00    +0.000 C 
ATOM     32  C   UNL     1      -4.610  -2.098 128.919  0.00  0.00    +0.000 C 
ATOM     33  N   UNL     1      -5.850  -3.013 128.882  0.00  0.00    +0.000 NA
ATOM     34  C   UNL     1      -5.987  -4.002 130.018  0.00  0.00    +0.000 C 
ATOM     35  C   UNL     1      -4.728  -4.630 130.567  0.00  0.00    +0.000 C 
BRANCH  33  36
ATOM     36  C   UNL     1      -7.136  -2.214 128.684  0.00  0.00    +0.000 C 
ATOM     37  C   UNL     1      -8.470  -2.843 128.996  0.00  0.00    +0.000 C 
ATOM     38  C   UNL     1      -8.889  -3.985 127.937  0.00  0.00    +0.000 C 
ATOM     39  C   UNL     1      -9.339  -3.364 126.691  0.00  0.00    +0.000 C 
ATOM     40  C   UNL     1      -8.366  -2.295 126.390  0.00  0.00    +0.000 A 
ATOM     41  C   UNL     1      -7.392  -1.728 127.285  0.00  0.00    +0.000 A 
ATOM     42  C   UNL     1      -6.617  -0.670 126.886  0.00  0.00    +0.000 A 
ATOM     43  C   UNL     1      -6.759  -0.222 125.595  0.00  0.00    +0.000 A 
ATOM     44  C   UNL     1      -7.666  -0.825 124.721  0.00  0.00    +0.000 A 
ATOM     45  N   UNL     1      -8.478  -1.853 125.103  0.00  0.00    +0.000 N 
ATOM     46  O   UNL     1      -9.289  -2.378 124.276  0.00  0.00    +0.000 OA
ENDBRANCH  33  36
ENDBRANCH  29  30
ENDBRANCH   3  29
TORSDOF 6
ENDMDL
MODEL 2
REMARK VINA RESULT:      -9.6      3.024      4.658
REMARK  Name = CHEMBL265070
REMARK  7 active torsions:
REMARK  status: ('A' for Active; 'I' for Inactive)
REMARK    1  A    between atoms: C_1  and  O_2
REMARK    2  A    between atoms: O_2  and  C_3
REMARK    3  A    between atoms: C_5  and  O_6
REMARK    4  A    between atoms: O_6  and  C_7
REMARK    5  A    between atoms: N_10  and  C_11
REMARK    6  A    between atoms: C_27  and  C_28
REMARK    7  A    between atoms: C_33  and  N_34
REMARK                            x       y       z     vdW  Elec       q    Type
REMARK                         _______ _______ _______ _____ _____    ______ ____
ROOT
ATOM      1  C   UNL     1      -6.840  -0.175 133.131  0.00  0.00    +0.000 A 
ATOM      2  C   UNL     1      -7.150  -1.213 132.124  0.00  0.00    +0.000 A 
ATOM      3  C   UNL     1      -7.251  -0.909 130.801  0.00  0.00    +0.000 A 
ATOM      4  C   UNL     1      -6.811   0.349 130.663  0.00  0.00    +0.000 A 
ATOM      5  F   UNL     1      -7.555   0.923 129.799  0.00  0.00    +0.000 F 
ATOM      6  C   UNL     1      -6.240   1.272 131.539  0.00  0.00    +0.000 A 
ATOM      7  C   UNL     1      -6.521   1.136 132.824  0.00  0.00    +0.000 A 
ENDROOT
BRANCH   7   8
ATOM      8  C   UNL     1      -6.440   2.487 133.529  0.00  0.00    +0.000 C 
ATOM      9  O   UNL     1      -5.767   2.776 134.516  0.00  0.00    +0.000 OA
ATOM     10  N   UNL     1      -7.317   3.372 133.074  0.00  0.00    +0.000 N 
ATOM     11  C   UNL     1      -6.841   4.645 132.603  0.00  0.00    +0.000 C 
ATOM     12  C   UNL     1      -7.734   5.709 133.173  0.00  0.00    +0.000 C 
ATOM     13  C   UNL     1      -9.218   5.345 132.923  0.00  0.00    +0.000 C 
ATOM     14  C   UNL     1      -9.584   3.987 133.536  0.00  0.00    +0.000 C 
ATOM     15  C   UNL     1      -8.678   2.938 133.004  0.00  0.00    +0.000 C 
BRANCH  13  16
ATOM     16  N   UNL     1      -9.579   5.510 131.479  0.00  0.00    +0.000 N 
ATOM     17  C   UNL     1      -8.849   4.972 130.407  0.00  0.00    +0.000 C 
ATOM     18  O   UNL     1      -8.516   3.841 130.218  0.00  0.00    +0.000 OA
ATOM     19  O   UNL     1      -8.543   5.905 129.466  0.00  0.00    +0.000 OA
ATOM     20  C   UNL     1      -9.719   6.184 128.752  0.00  0.00    +0.000 C 
ATOM     21  C   UNL     1     -10.789   6.613 129.710  0.00  0.00    +0.000 A 
ATOM     22  C   UNL     1     -11.885   7.312 129.221  0.00  0.00    +0.000 A 
ATOM     23  C   UNL     1     -12.887   7.702 130.096  0.00  0.00    +0.000 A 
ATOM     24  C   UNL     1     -12.803   7.379 131.450  0.00  0.00    +0.000 A 
ATOM     25  C   UNL     1     -11.710   6.673 131.946  0.00  0.00    +0.000 A 
ATOM     26  C   UNL     1     -10.690   6.291 131.080  0.00  0.00    +0.000 A 
ENDBRANCH  13  16
ENDBRANCH   7   8
BRANCH   1  28
ATOM     27  C   UNL     1      -5.422  -1.042 134.573  0.00  0.00    +0.000 C 
ATOM     28  O   UNL     1      -6.756  -0.558 134.426  0.00  0.00    +0.000 OA
ENDBRANCH   1  28
BRANCH   3  29
ATOM     29  O   UNL     1      -7.844  -1.623 129.791  0.00  0.00    +0.000 OA
BRANCH  29  30
ATOM     30  C   UNL     1      -7.307  -2.824 129.032  0.00  0.00    +0.000 C 
ATOM     31  C   UNL     1      -6.187  -2.666 127.966  0.00  0.00    +0.000 C 
ATOM     32  C   UNL     1      -6.677  -2.211 126.585  0.00  0.00    +0.000 C 
ATOM     33  N   UNL     1      -7.933  -2.962 126.103  0.00  0.00    +0.000 NA
ATOM     34  C   UNL     1      -8.908  -3.394 127.175  0.00  0.00    +0.000 C 
ATOM     35  C   UNL     1      -8.349  -3.842 128.504  0.00  0.00    +0.000 C 
BRANCH  33  36
ATOM     36  C   UNL     1      -8.643  -2.214 124.977  0.00  0.00    +0.000 C 
ATOM     37  C   UNL     1      -8.310  -2.521 123.540  0.00  0.00    +0.000 C 
ATOM     38  C   UNL     1      -6.846  -2.002 123.108  0.00  0.00    +0.000 C 
ATOM     39  C   UNL     1      -6.872  -0.552 122.915  0.00  0.00    +0.000 C 
ATOM     40  C   UNL     1      -7.626   0.001 124.058  0.00  0.00    +0.000 A 
ATOM     41  C   UNL     1      -8.467  -0.720 124.977  0.00  0.00    +0.000 A 
ATOM     42  C   UNL     1      -9.181  -0.051 125.936  0.00  0.00    +0.000 A 
ATOM     43  C   UNL     1      -9.012   1.309 126.027  0.00  0.00    +0.000 A 
ATOM     44  C   UNL     1      -8.143   1.985 125.168  0.00  0.00    +0.000 A 
ATOM     45  N   UNL     1      -7.451   1.350 124.178  0.00  0.00    +0.000 N 
ATOM     46  O   UNL     1      -6.667   2.001 123.418  0.00  0.00    +0.000 OA
ENDBRANCH  33  36
ENDBRANCH  29  30
ENDBRANCH   3  29
TORSDOF 6
ENDMDL
MODEL 3
REMARK VINA RESULT:      -9.5      2.899      4.483
REMARK  Name = CHEMBL265070
REMARK  7 active torsions:
REMARK  status: ('A' for Active; 'I' for Inactive)
REMARK    1  A    between atoms: C_1  and  O_2
REMARK    2  A    between atoms: O_2  and  C_3
REMARK    3  A    between atoms: C_5  and  O_6
REMARK    4  A    between atoms: O_6  and  C_7
REMARK    5  A    between atoms: N_10  and  C_11
REMARK    6  A    between atoms: C_27  and  C_28
REMARK    7  A    between atoms: C_33  and  N_34
REMARK                            x       y       z     vdW  Elec       q    Type
REMARK                         _______ _______ _______ _____ _____    ______ ____
ROOT
ATOM      1  C   UNL     1      -6.700  -0.200 133.449  0.00  0.00    +0.000 A 
ATOM      2  C   UNL     1      -7.087  -1.298 132.536  0.00  0.00    +0.000 A 
ATOM      3  C   UNL     1      -7.357  -1.065 131.223  0.00  0.00    +0.000 A 
ATOM      4  C   UNL     1      -6.985   0.198 130.974  0.00  0.00    +0.000 A 
ATOM      5  F   UNL     1      -7.849   0.702 130.181  0.00  0.00    +0.000 F 
ATOM      6  C   UNL     1      -6.350   1.183 131.730  0.00  0.00    +0.000 A 
ATOM      7  C   UNL     1      -6.471   1.104 133.045  0.00  0.00    +0.000 A 
ENDROOT
BRANCH   7   8
ATOM      8  C   UNL     1      -6.359   2.490 133.671  0.00  0.00    +0.000 C 
ATOM      9  O   UNL     1      -5.666   2.824 134.630  0.00  0.00    +0.000 OA
ATOM     10  N   UNL     1      -7.230   3.362 133.180  0.00  0.00    +0.000 N 
ATOM     11  C   UNL     1      -6.742   4.599 132.630  0.00  0.00    +0.000 C 
ATOM     12  C   UNL     1      -7.611   5.707 133.152  0.00  0.00    +0.000 C 
ATOM     13  C   UNL     1      -9.104   5.353 132.946  0.00  0.00    +0.000 C 
ATOM     14  C   UNL     1      -9.480   4.037 133.640  0.00  0.00    +0.000 C 
ATOM     15  C   UNL     1      -8.598   2.946 133.154  0.00  0.00    +0.000 C 
BRANCH  13  16
ATOM     16  N   UNL     1      -9.484   5.442 131.500  0.00  0.00    +0.000 N 
ATOM     17  C   UNL     1      -8.763   4.858 130.447  0.00  0.00    +0.000 C 
ATOM     18  O   UNL     1      -8.420   3.723 130.309  0.00  0.00    +0.000 OA
ATOM     19  O   UNL     1      -8.479   5.746 129.457  0.00  0.00    +0.000 OA
ATOM     20  C   UNL     1      -9.667   5.977 128.745  0.00  0.00    +0.000 C 
ATOM     21  C   UNL     1     -10.730   6.443 129.695  0.00  0.00    +0.000 A 
ATOM     22  C   UNL     1     -11.839   7.104 129.186  0.00  0.00    +0.000 A 
ATOM     23  C   UNL     1     -12.835   7.527 130.054  0.00  0.00    +0.000 A 
ATOM     24  C   UNL     1     -12.730   7.273 131.421  0.00  0.00    +0.000 A 
ATOM     25  C   UNL     1     -11.623   6.604 131.937  0.00  0.00    +0.000 A 
ATOM     26  C   UNL     1     -10.610   6.190 131.078  0.00  0.00    +0.000 A 
ENDBRANCH  13  16
ENDBRANCH   7   8
BRANCH   1  28
ATOM     27  C   UNL     1      -5.061  -0.845 134.767  0.00  0.00    +0.000 C 
ATOM     28  O   UNL     1      -6.447  -0.514 134.741  0.00  0.00    +0.000 OA
ENDBRANCH   1  28
BRANCH   3  29
ATOM     29  O   UNL     1      -8.038  -1.849 130.327  0.00  0.00    +0.000 OA
BRANCH  29  30
ATOM     30  C   UNL     1      -7.523  -3.012 129.496  0.00  0.00    +0.000 C 
ATOM     31  C   UNL     1      -6.018  -3.131 129.125  0.00  0.00    +0.000 C 
ATOM     32  C   UNL     1      -5.586  -2.284 127.920  0.00  0.00    +0.000 C 
ATOM     33  N   UNL     1      -6.560  -2.374 126.728  0.00  0.00    +0.000 NA
ATOM     34  C   UNL     1      -8.021  -2.561 127.070  0.00  0.00    +0.000 C 
ATOM     35  C   UNL     1      -8.368  -3.420 128.262  0.00  0.00    +0.000 C 
BRANCH  33  36
ATOM     36  C   UNL     1      -6.362  -1.221 125.748  0.00  0.00    +0.000 C 
ATOM     37  C   UNL     1      -6.322   0.199 126.252  0.00  0.00    +0.000 C 
ATOM     38  C   UNL     1      -7.761   0.728 126.753  0.00  0.00    +0.000 C 
ATOM     39  C   UNL     1      -8.604   1.037 125.597  0.00  0.00    +0.000 C 
ATOM     40  C   UNL     1      -8.435  -0.086 124.654  0.00  0.00    +0.000 A 
ATOM     41  C   UNL     1      -7.407  -1.092 124.674  0.00  0.00    +0.000 A 
ATOM     42  C   UNL     1      -7.326  -2.022 123.670  0.00  0.00    +0.000 A 
ATOM     43  C   UNL     1      -8.292  -1.996 122.694  0.00  0.00    +0.000 A 
ATOM     44  C   UNL     1      -9.319  -1.051 122.724  0.00  0.00    +0.000 A 
ATOM     45  N   UNL     1      -9.401  -0.089 123.689  0.00  0.00    +0.000 N 
ATOM     46  O   UNL     1     -10.355   0.752 123.683  0.00  0.00    +0.000 OA
ENDBRANCH  33  36
ENDBRANCH  29  30
ENDBRANCH   3  29
TORSDOF 6
ENDMDL
MODEL 4
REMARK VINA RESULT:      -9.5      2.562      3.927
REMARK  Name = CHEMBL265070
REMARK  7 active torsions:
REMARK  status: ('A' for Active; 'I' for Inactive)
REMARK    1  A    between atoms: C_1  and  O_2
REMARK    2  A    between atoms: O_2  and  C_3
REMARK    3  A    between atoms: C_5  and  O_6
REMARK    4  A    between atoms: O_6  and  C_7
REMARK    5  A    between atoms: N_10  and  C_11
REMARK    6  A    between atoms: C_27  and  C_28
REMARK    7  A    between atoms: C_33  and  N_34
REMARK                            x       y       z     vdW  Elec       q    Type
REMARK                         _______ _______ _______ _____ _____    ______ ____
ROOT
ATOM      1  C   UNL     1      -5.274   1.060 131.759  0.00  0.00    +0.000 A 
ATOM      2  C   UNL     1      -4.738  -0.272 131.403  0.00  0.00    +0.000 A 
ATOM      3  C   UNL     1      -4.561  -1.239 132.345  0.00  0.00    +0.000 A 
ATOM      4  C   UNL     1      -5.152  -0.796 133.462  0.00  0.00    +0.000 A 
ATOM      5  F   UNL     1      -4.417  -1.143 134.448  0.00  0.00    +0.000 F 
ATOM      6  C   UNL     1      -5.919   0.328 133.768  0.00  0.00    +0.000 A 
ATOM      7  C   UNL     1      -5.738   1.401 133.017  0.00  0.00    +0.000 A 
ENDROOT
BRANCH   7   8
ATOM      8  C   UNL     1      -6.062   2.663 133.810  0.00  0.00    +0.000 C 
ATOM      9  O   UNL     1      -5.599   3.003 134.898  0.00  0.00    +0.000 OA
ATOM     10  N   UNL     1      -7.062   3.368 133.295  0.00  0.00    +0.000 N 
ATOM     11  C   UNL     1      -6.845   4.753 132.976  0.00  0.00    +0.000 C 
ATOM     12  C   UNL     1      -8.025   5.531 133.483  0.00  0.00    +0.000 C 
ATOM     13  C   UNL     1      -9.341   4.868 133.008  0.00  0.00    +0.000 C 
ATOM     14  C   UNL     1      -9.448   3.412 133.478  0.00  0.00    +0.000 C 
ATOM     15  C   UNL     1      -8.264   2.647 133.010  0.00  0.00    +0.000 C 
BRANCH  13  16
ATOM     16  N   UNL     1      -9.554   5.082 131.541  0.00  0.00    +0.000 N 
ATOM     17  C   UNL     1      -8.790   4.483 130.528  0.00  0.00    +0.000 C 
ATOM     18  O   UNL     1      -8.557   3.326 130.347  0.00  0.00    +0.000 OA
ATOM     19  O   UNL     1      -8.310   5.389 129.634  0.00  0.00    +0.000 OA
ATOM     20  C   UNL     1      -9.385   5.793 128.825  0.00  0.00    +0.000 C 
ATOM     21  C   UNL     1     -10.487   6.319 129.694  0.00  0.00    +0.000 A 
ATOM     22  C   UNL     1     -11.460   7.130 129.125  0.00  0.00    +0.000 A 
ATOM     23  C   UNL     1     -12.491   7.611 129.916  0.00  0.00    +0.000 A 
ATOM     24  C   UNL     1     -12.560   7.269 131.266  0.00  0.00    +0.000 A 
ATOM     25  C   UNL     1     -11.591   6.451 131.843  0.00  0.00    +0.000 A 
ATOM     26  C   UNL     1     -10.542   5.976 131.062  0.00  0.00    +0.000 A 
ENDBRANCH  13  16
ENDBRANCH   7   8
BRANCH   1  28
ATOM     27  C   UNL     1      -5.855   1.201 129.641  0.00  0.00    +0.000 C 
ATOM     28  O   UNL     1      -5.421   1.966 130.764  0.00  0.00    +0.000 OA
ENDBRANCH   1  28
BRANCH   3  29
ATOM     29  O   UNL     1      -3.788  -2.371 132.289  0.00  0.00    +0.000 OA
BRANCH  29  30
ATOM     30  C   UNL     1      -3.875  -3.535 131.316  0.00  0.00    +0.000 C 
ATOM     31  C   UNL     1      -3.342  -3.407 129.862  0.00  0.00    +0.000 C 
ATOM     32  C   UNL     1      -4.306  -2.724 128.883  0.00  0.00    +0.000 C 
ATOM     33  N   UNL     1      -5.758  -3.226 129.003  0.00  0.00    +0.000 NA
ATOM     34  C   UNL     1      -6.211  -3.643 130.384  0.00  0.00    +0.000 C 
ATOM     35  C   UNL     1      -5.208  -4.324 131.284  0.00  0.00    +0.000 C 
BRANCH  33  36
ATOM     36  C   UNL     1      -6.748  -2.254 128.365  0.00  0.00    +0.000 C 
ATOM     37  C   UNL     1      -8.225  -2.405 128.621  0.00  0.00    +0.000 C 
ATOM     38  C   UNL     1      -8.860  -3.696 127.895  0.00  0.00    +0.000 C 
ATOM     39  C   UNL     1      -9.015  -3.433 126.464  0.00  0.00    +0.000 C 
ATOM     40  C   UNL     1      -7.760  -2.791 126.026  0.00  0.00    +0.000 A 
ATOM     41  C   UNL     1      -6.741  -2.211 126.862  0.00  0.00    +0.000 A 
ATOM     42  C   UNL     1      -5.671  -1.564 126.303  0.00  0.00    +0.000 A 
ATOM     43  C   UNL     1      -5.576  -1.548 124.933  0.00  0.00    +0.000 A 
ATOM     44  C   UNL     1      -6.541  -2.169 124.138  0.00  0.00    +0.000 A 
ATOM     45  N   UNL     1      -7.638  -2.787 124.667  0.00  0.00    +0.000 N 
ATOM     46  O   UNL     1      -8.493  -3.344 123.909  0.00  0.00    +0.000 OA
ENDBRANCH  33  36
ENDBRANCH  29  30
ENDBRANCH   3  29
TORSDOF 6
ENDMDL
MODEL 5
REMARK VINA RESULT:      -9.3      2.810      7.271
REMARK  Name = CHEMBL265070
REMARK  7 active torsions:
REMARK  status: ('A' for Active; 'I' for Inactive)
REMARK    1  A    between atoms: C_1  and  O_2
REMARK    2  A    between atoms: O_2  and  C_3
REMARK    3  A    between atoms: C_5  and  O_6
REMARK    4  A    between atoms: O_6  and  C_7
REMARK    5  A    between atoms: N_10  and  C_11
REMARK    6  A    between atoms: C_27  and  C_28
REMARK    7  A    between atoms: C_33  and  N_34
REMARK                            x       y       z     vdW  Elec       q    Type
REMARK                         _______ _______ _______ _____ _____    ______ ____
ROOT
ATOM      1  C   UNL     1      -7.507   1.744 133.083  0.00  0.00    +0.000 A 
ATOM      2  C   UNL     1      -8.335   2.969 133.111  0.00  0.00    +0.000 A 
ATOM      3  C   UNL     1      -9.442   3.094 132.330  0.00  0.00    +0.000 A 
ATOM      4  C   UNL     1      -9.674   1.885 131.801  0.00  0.00    +0.000 A 
ATOM      5  F   UNL     1     -10.063   2.063 130.597  0.00  0.00    +0.000 F 
ATOM      6  C   UNL     1      -9.090   0.630 131.968  0.00  0.00    +0.000 A 
ATOM      7  C   UNL     1      -7.830   0.602 132.371  0.00  0.00    +0.000 A 
ENDROOT
BRANCH   7   8
ATOM      8  C   UNL     1      -7.144  -0.666 131.874  0.00  0.00    +0.000 C 
ATOM      9  O   UNL     1      -6.653  -1.566 132.554  0.00  0.00    +0.000 OA
ATOM     10  N   UNL     1      -6.958  -0.686 130.561  0.00  0.00    +0.000 N 
ATOM     11  C   UNL     1      -7.475  -1.791 129.800  0.00  0.00    +0.000 C 
ATOM     12  C   UNL     1      -6.406  -2.230 128.842  0.00  0.00    +0.000 C 
ATOM     13  C   UNL     1      -5.850  -1.007 128.071  0.00  0.00    +0.000 C 
ATOM     14  C   UNL     1      -5.283   0.056 129.020  0.00  0.00    +0.000 C 
ATOM     15  C   UNL     1      -6.327   0.466 129.994  0.00  0.00    +0.000 C 
BRANCH  13  16
ATOM     16  N   UNL     1      -6.845  -0.503 127.070  0.00  0.00    +0.000 N 
ATOM     17  C   UNL     1      -7.360   0.802 127.045  0.00  0.00    +0.000 C 
ATOM     18  O   UNL     1      -6.774   1.841 127.017  0.00  0.00    +0.000 OA
ATOM     19  O   UNL     1      -8.720   0.823 127.004  0.00  0.00    +0.000 OA
ATOM     20  C   UNL     1      -9.108   0.458 125.705  0.00  0.00    +0.000 C 
ATOM     21  C   UNL     1      -8.509  -0.874 125.366  0.00  0.00    +0.000 A 
ATOM     22  C   UNL     1      -9.060  -1.612 124.327  0.00  0.00    +0.000 A 
ATOM     23  C   UNL     1      -8.506  -2.838 123.996  0.00  0.00    +0.000 A 
ATOM     24  C   UNL     1      -7.394  -3.317 124.688  0.00  0.00    +0.000 A 
ATOM     25  C   UNL     1      -6.831  -2.579 125.727  0.00  0.00    +0.000 A 
ATOM     26  C   UNL     1      -7.390  -1.354 126.079  0.00  0.00    +0.000 A 
ENDBRANCH  13  16
ENDBRANCH   7   8
BRANCH   1  28
ATOM     27  C   UNL     1      -5.393   2.351 133.151  0.00  0.00    +0.000 C 
ATOM     28  O   UNL     1      -6.422   1.697 133.891  0.00  0.00    +0.000 OA
ENDBRANCH   1  28
BRANCH   3  29
ATOM     29  O   UNL     1     -10.121   4.229 131.966  0.00  0.00    +0.000 OA
BRANCH  29  30
ATOM     30  C   UNL     1      -9.768   5.247 130.895  0.00  0.00    +0.000 C 
ATOM     31  C   UNL     1      -9.101   4.810 129.561  0.00  0.00    +0.000 C 
ATOM     32  C   UNL     1      -7.582   4.603 129.641  0.00  0.00    +0.000 C 
ATOM     33  N   UNL     1      -6.851   5.730 130.398  0.00  0.00    +0.000 NA
ATOM     34  C   UNL     1      -7.613   6.380 131.531  0.00  0.00    +0.000 C 
ATOM     35  C   UNL     1      -9.103   6.562 131.371  0.00  0.00    +0.000 C 
BRANCH  33  36
ATOM     36  C   UNL     1      -5.456   5.297 130.844  0.00  0.00    +0.000 C 
ATOM     37  C   UNL     1      -4.682   6.140 131.824  0.00  0.00    +0.000 C 
ATOM     38  C   UNL     1      -4.165   7.529 131.187  0.00  0.00    +0.000 C 
ATOM     39  C   UNL     1      -3.017   7.277 130.316  0.00  0.00    +0.000 C 
ATOM     40  C   UNL     1      -3.368   6.093 129.506  0.00  0.00    +0.000 A 
ATOM     41  C   UNL     1      -4.436   5.159 129.748  0.00  0.00    +0.000 A 
ATOM     42  C   UNL     1      -4.579   4.049 128.957  0.00  0.00    +0.000 A 
ATOM     43  C   UNL     1      -3.716   3.901 127.899  0.00  0.00    +0.000 A 
ATOM     44  C   UNL     1      -2.725   4.850 127.641  0.00  0.00    +0.000 A 
ATOM     45  N   UNL     1      -2.534   5.943 128.436  0.00  0.00    +0.000 N 
ATOM     46  O   UNL     1      -1.621   6.787 128.166  0.00  0.00    +0.000 OA
ENDBRANCH  33  36
ENDBRANCH  29  30
ENDBRANCH   3  29
TORSDOF 6
ENDMDL
MODEL 6
REMARK VINA RESULT:      -9.3      2.754      7.160
REMARK  Name = CHEMBL265070
REMARK  7 active torsions:
REMARK  status: ('A' for Active; 'I' for Inactive)
REMARK    1  A    between atoms: C_1  and  O_2
REMARK    2  A    between atoms: O_2  and  C_3
REMARK    3  A    between atoms: C_5  and  O_6
REMARK    4  A    between atoms: O_6  and  C_7
REMARK    5  A    between atoms: N_10  and  C_11
REMARK    6  A    between atoms: C_27  and  C_28
REMARK    7  A    between atoms: C_33  and  N_34
REMARK                            x       y       z     vdW  Elec       q    Type
REMARK                         _______ _______ _______ _____ _____    ______ ____
ROOT
ATOM      1  C   UNL     1      -7.745   1.903 130.472  0.00  0.00    +0.000 A 
ATOM      2  C   UNL     1      -7.580   3.184 131.194  0.00  0.00    +0.000 A 
ATOM      3  C   UNL     1      -7.054   3.228 132.448  0.00  0.00    +0.000 A 
ATOM      4  C   UNL     1      -6.572   2.005 132.703  0.00  0.00    +0.000 A 
ATOM      5  F   UNL     1      -6.822   1.741 133.927  0.00  0.00    +0.000 F 
ATOM      6  C   UNL     1      -6.446   0.840 131.946  0.00  0.00    +0.000 A 
ATOM      7  C   UNL     1      -7.290   0.683 130.940  0.00  0.00    +0.000 A 
ENDROOT
BRANCH   7   8
ATOM      8  C   UNL     1      -7.512  -0.801 130.663  0.00  0.00    +0.000 C 
ATOM      9  O   UNL     1      -7.789  -1.681 131.476  0.00  0.00    +0.000 OA
ATOM     10  N   UNL     1      -7.226  -1.153 129.416  0.00  0.00    +0.000 N 
ATOM     11  C   UNL     1      -8.233  -1.816 128.631  0.00  0.00    +0.000 C 
ATOM     12  C   UNL     1      -7.581  -2.974 127.931  0.00  0.00    +0.000 C 
ATOM     13  C   UNL     1      -6.290  -2.503 127.219  0.00  0.00    +0.000 C 
ATOM     14  C   UNL     1      -5.294  -1.871 128.200  0.00  0.00    +0.000 C 
ATOM     15  C   UNL     1      -5.946  -0.749 128.921  0.00  0.00    +0.000 C 
BRANCH  13  16
ATOM     16  N   UNL     1      -6.611  -1.674 126.013  0.00  0.00    +0.000 N 
ATOM     17  C   UNL     1      -6.042  -0.422 125.731  0.00  0.00    +0.000 C 
ATOM     18  O   UNL     1      -4.889  -0.119 125.659  0.00  0.00    +0.000 OA
ATOM     19  O   UNL     1      -6.980   0.528 125.470  0.00  0.00    +0.000 OA
ATOM     20  C   UNL     1      -7.490   0.275 124.186  0.00  0.00    +0.000 C 
ATOM     21  C   UNL     1      -8.012  -1.129 124.129  0.00  0.00    +0.000 A 
ATOM     22  C   UNL     1      -8.906  -1.470 123.123  0.00  0.00    +0.000 A 
ATOM     23  C   UNL     1      -9.385  -2.769 123.052  0.00  0.00    +0.000 A 
ATOM     24  C   UNL     1      -8.959  -3.726 123.972  0.00  0.00    +0.000 A 
ATOM     25  C   UNL     1      -8.057  -3.393 124.979  0.00  0.00    +0.000 A 
ATOM     26  C   UNL     1      -7.582  -2.088 125.070  0.00  0.00    +0.000 A 
ENDBRANCH  13  16
ENDBRANCH   7   8
BRANCH   1  28
ATOM     27  C   UNL     1      -7.784   3.160 128.667  0.00  0.00    +0.000 C 
ATOM     28  O   UNL     1      -8.275   1.944 129.228  0.00  0.00    +0.000 OA
ENDBRANCH   1  28
BRANCH   3  29
ATOM     29  O   UNL     1      -7.133   4.227 133.385  0.00  0.00    +0.000 OA
BRANCH  29  30
ATOM     30  C   UNL     1      -6.677   5.672 133.277  0.00  0.00    +0.000 C 
ATOM     31  C   UNL     1      -6.598   6.387 131.900  0.00  0.00    +0.000 C 
ATOM     32  C   UNL     1      -5.325   6.092 131.096  0.00  0.00    +0.000 C 
ATOM     33  N   UNL     1      -4.037   6.160 131.941  0.00  0.00    +0.000 NA
ATOM     34  C   UNL     1      -4.164   5.741 133.389  0.00  0.00    +0.000 C 
ATOM     35  C   UNL     1      -5.442   6.082 134.117  0.00  0.00    +0.000 C 
BRANCH  33  36
ATOM     36  C   UNL     1      -2.873   5.447 131.257  0.00  0.00    +0.000 C 
ATOM     37  C   UNL     1      -1.814   6.247 130.543  0.00  0.00    +0.000 C 
ATOM     38  C   UNL     1      -2.347   6.917 129.177  0.00  0.00    +0.000 C 
ATOM     39  C   UNL     1      -2.450   5.897 128.132  0.00  0.00    +0.000 C 
ATOM     40  C   UNL     1      -3.087   4.725 128.764  0.00  0.00    +0.000 A 
ATOM     41  C   UNL     1      -3.251   4.477 130.173  0.00  0.00    +0.000 A 
ATOM     42  C   UNL     1      -3.781   3.292 130.611  0.00  0.00    +0.000 A 
ATOM     43  C   UNL     1      -4.205   2.391 129.665  0.00  0.00    +0.000 A 
ATOM     44  C   UNL     1      -4.096   2.674 128.302  0.00  0.00    +0.000 A 
ATOM     45  N   UNL     1      -3.535   3.829 127.837  0.00  0.00    +0.000 N 
ATOM     46  O   UNL     1      -3.458   4.051 126.588  0.00  0.00    +0.000 OA
ENDBRANCH  33  36
ENDBRANCH  29  30
ENDBRANCH   3  29
TORSDOF 6
ENDMDL
MODEL 7
REMARK VINA RESULT:      -9.3      3.674      7.688
REMARK  Name = CHEMBL265070
REMARK  7 active torsions:
REMARK  status: ('A' for Active; 'I' for Inactive)
REMARK    1  A    between atoms: C_1  and  O_2
REMARK    2  A    between atoms: O_2  and  C_3
REMARK    3  A    between atoms: C_5  and  O_6
REMARK    4  A    between atoms: O_6  and  C_7
REMARK    5  A    between atoms: N_10  and  C_11
REMARK    6  A    between atoms: C_27  and  C_28
REMARK    7  A    between atoms: C_33  and  N_34
REMARK                            x       y       z     vdW  Elec       q    Type
REMARK                         _______ _______ _______ _____ _____    ______ ____
ROOT
ATOM      1  C   UNL     1      -6.509   0.366 132.932  0.00  0.00    +0.000 A 
ATOM      2  C   UNL     1      -6.726   1.812 133.155  0.00  0.00    +0.000 A 
ATOM      3  C   UNL     1      -7.816   2.451 132.648  0.00  0.00    +0.000 A 
ATOM      4  C   UNL     1      -8.634   1.499 132.180  0.00  0.00    +0.000 A 
ATOM      5  F   UNL     1      -9.152   1.936 131.099  0.00  0.00    +0.000 F 
ATOM      6  C   UNL     1      -8.604   0.104 132.204  0.00  0.00    +0.000 A 
ATOM      7  C   UNL     1      -7.417  -0.470 132.308  0.00  0.00    +0.000 A 
ENDROOT
BRANCH   7   8
ATOM      8  C   UNL     1      -7.440  -1.851 131.661  0.00  0.00    +0.000 C 
ATOM      9  O   UNL     1      -7.501  -2.942 132.227  0.00  0.00    +0.000 OA
ATOM     10  N   UNL     1      -7.227  -1.825 130.352  0.00  0.00    +0.000 N 
ATOM     11  C   UNL     1      -8.195  -2.431 129.477  0.00  0.00    +0.000 C 
ATOM     12  C   UNL     1      -7.447  -3.247 128.461  0.00  0.00    +0.000 C 
ATOM     13  C   UNL     1      -6.317  -2.399 127.828  0.00  0.00    +0.000 C 
ATOM     14  C   UNL     1      -5.337  -1.874 128.884  0.00  0.00    +0.000 C 
ATOM     15  C   UNL     1      -6.077  -1.098 129.911  0.00  0.00    +0.000 C 
BRANCH  13  16
ATOM     16  N   UNL     1      -6.876  -1.360 126.904  0.00  0.00    +0.000 N 
ATOM     17  C   UNL     1      -6.781   0.024 127.109  0.00  0.00    +0.000 C 
ATOM     18  O   UNL     1      -5.810   0.691 127.306  0.00  0.00    +0.000 OA
ATOM     19  O   UNL     1      -7.987   0.647 127.018  0.00  0.00    +0.000 OA
ATOM     20  C   UNL     1      -8.334   0.697 125.658  0.00  0.00    +0.000 C 
ATOM     21  C   UNL     1      -8.321  -0.692 125.094  0.00  0.00    +0.000 A 
ATOM     22  C   UNL     1      -9.003  -0.941 123.911  0.00  0.00    +0.000 A 
ATOM     23  C   UNL     1      -8.987  -2.218 123.372  0.00  0.00    +0.000 A 
ATOM     24  C   UNL     1      -8.275  -3.237 124.003  0.00  0.00    +0.000 A 
ATOM     25  C   UNL     1      -7.582  -2.994 125.187  0.00  0.00    +0.000 A 
ATOM     26  C   UNL     1      -7.606  -1.719 125.746  0.00  0.00    +0.000 A 
ENDBRANCH  13  16
ENDBRANCH   7   8
BRANCH   1  28
ATOM     27  C   UNL     1      -5.549  -0.009 134.876  0.00  0.00    +0.000 C 
ATOM     28  O   UNL     1      -5.400  -0.194 133.469  0.00  0.00    +0.000 OA
ENDBRANCH   1  28
BRANCH   3  29
ATOM     29  O   UNL     1      -8.020   3.793 132.454  0.00  0.00    +0.000 OA
BRANCH  29  30
ATOM     30  C   UNL     1      -7.318   4.734 131.489  0.00  0.00    +0.000 C 
ATOM     31  C   UNL     1      -7.593   6.263 131.515  0.00  0.00    +0.000 C 
ATOM     32  C   UNL     1      -8.861   6.700 130.769  0.00  0.00    +0.000 C 
ATOM     33  N   UNL     1      -9.019   6.032 129.388  0.00  0.00    +0.000 NA
ATOM     34  C   UNL     1      -8.480   4.625 129.259  0.00  0.00    +0.000 C 
ATOM     35  C   UNL     1      -7.219   4.276 130.012  0.00  0.00    +0.000 C 
BRANCH  33  36
ATOM     36  C   UNL     1     -10.455   6.126 128.876  0.00  0.00    +0.000 C 
ATOM     37  C   UNL     1     -10.743   6.795 127.557  0.00  0.00    +0.000 C 
ATOM     38  C   UNL     1     -10.541   8.394 127.606  0.00  0.00    +0.000 C 
ATOM     39  C   UNL     1     -11.670   9.014 128.301  0.00  0.00    +0.000 C 
ATOM     40  C   UNL     1     -11.916   8.189 129.501  0.00  0.00    +0.000 A 
ATOM     41  C   UNL     1     -11.416   6.866 129.765  0.00  0.00    +0.000 A 
ATOM     42  C   UNL     1     -11.810   6.187 130.888  0.00  0.00    +0.000 A 
ATOM     43  C   UNL     1     -12.637   6.836 131.772  0.00  0.00    +0.000 A 
ATOM     44  C   UNL     1     -13.063   8.143 131.530  0.00  0.00    +0.000 A 
ATOM     45  N   UNL     1     -12.719   8.829 130.401  0.00  0.00    +0.000 N 
ATOM     46  O   UNL     1     -13.125  10.020 130.219  0.00  0.00    +0.000 OA
ENDBRANCH  33  36
ENDBRANCH  29  30
ENDBRANCH   3  29
TORSDOF 6
ENDMDL
MODEL 8
REMARK VINA RESULT:      -9.1      2.376      6.232
REMARK  Name = CHEMBL265070
REMARK  7 active torsions:
REMARK  status: ('A' for Active; 'I' for Inactive)
REMARK    1  A    between atoms: C_1  and  O_2
REMARK    2  A    between atoms: O_2  and  C_3
REMARK    3  A    between atoms: C_5  and  O_6
REMARK    4  A    between atoms: O_6  and  C_7
REMARK    5  A    between atoms: N_10  and  C_11
REMARK    6  A    between atoms: C_27  and  C_28
REMARK    7  A    between atoms: C_33  and  N_34
REMARK                            x       y       z     vdW  Elec       q    Type
REMARK                         _______ _______ _______ _____ _____    ______ ____
ROOT
ATOM      1  C   UNL     1      -5.902  -2.060 128.174  0.00  0.00    +0.000 A 
ATOM      2  C   UNL     1      -6.103  -2.413 126.752  0.00  0.00    +0.000 A 
ATOM      3  C   UNL     1      -7.335  -2.730 126.268  0.00  0.00    +0.000 A 
ATOM      4  C   UNL     1      -8.213  -2.432 127.234  0.00  0.00    +0.000 A 
ATOM      5  F   UNL     1      -9.109  -3.342 127.232  0.00  0.00    +0.000 F 
ATOM      6  C   UNL     1      -8.102  -1.830 128.487  0.00  0.00    +0.000 A 
ATOM      7  C   UNL     1      -6.928  -1.910 129.091  0.00  0.00    +0.000 A 
ENDROOT
BRANCH   7   8
ATOM      8  C   UNL     1      -7.107  -1.856 130.605  0.00  0.00    +0.000 C 
ATOM      9  O   UNL     1      -7.273  -2.802 131.373  0.00  0.00    +0.000 OA
ATOM     10  N   UNL     1      -7.228  -0.622 131.078  0.00  0.00    +0.000 N 
ATOM     11  C   UNL     1      -6.329  -0.179 132.109  0.00  0.00    +0.000 C 
ATOM     12  C   UNL     1      -7.142   0.528 133.154  0.00  0.00    +0.000 C 
ATOM     13  C   UNL     1      -8.064   1.578 132.488  0.00  0.00    +0.000 C 
ATOM     14  C   UNL     1      -9.002   0.940 131.455  0.00  0.00    +0.000 C 
ATOM     15  C   UNL     1      -8.204   0.207 130.440  0.00  0.00    +0.000 C 
BRANCH  13  16
ATOM     16  N   UNL     1      -7.276   2.752 131.994  0.00  0.00    +0.000 N 
ATOM     17  C   UNL     1      -6.998   3.016 130.644  0.00  0.00    +0.000 C 
ATOM     18  O   UNL     1      -7.755   3.111 129.725  0.00  0.00    +0.000 OA
ATOM     19  O   UNL     1      -5.674   3.227 130.417  0.00  0.00    +0.000 OA
ATOM     20  C   UNL     1      -5.360   4.504 130.911  0.00  0.00    +0.000 C 
ATOM     21  C   UNL     1      -5.751   4.584 132.356  0.00  0.00    +0.000 A 
ATOM     22  C   UNL     1      -5.187   5.574 133.149  0.00  0.00    +0.000 A 
ATOM     23  C   UNL     1      -5.552   5.667 134.483  0.00  0.00    +0.000 A 
ATOM     24  C   UNL     1      -6.490   4.785 135.018  0.00  0.00    +0.000 A 
ATOM     25  C   UNL     1      -7.065   3.793 134.227  0.00  0.00    +0.000 A 
ATOM     26  C   UNL     1      -6.694   3.680 132.891  0.00  0.00    +0.000 A 
ENDBRANCH  13  16
ENDBRANCH   7   8
BRANCH   1  28
ATOM     27  C   UNL     1      -4.084  -3.005 128.974  0.00  0.00    +0.000 C 
ATOM     28  O   UNL     1      -4.647  -1.756 128.577  0.00  0.00    +0.000 OA
ENDBRANCH   1  28
BRANCH   3  29
ATOM     29  O   UNL     1      -7.668  -3.392 125.113  0.00  0.00    +0.000 OA
BRANCH  29  30
ATOM     30  C   UNL     1      -7.599  -2.898 123.678  0.00  0.00    +0.000 C 
ATOM     31  C   UNL     1      -6.428  -1.999 123.194  0.00  0.00    +0.000 C 
ATOM     32  C   UNL     1      -6.581  -0.509 123.532  0.00  0.00    +0.000 C 
ATOM     33  N   UNL     1      -7.991   0.042 123.241  0.00  0.00    +0.000 NA
ATOM     34  C   UNL     1      -9.139  -0.924 123.424  0.00  0.00    +0.000 C 
ATOM     35  C   UNL     1      -8.916  -2.371 123.055  0.00  0.00    +0.000 C 
BRANCH  33  36
ATOM     36  C   UNL     1      -8.247   1.355 123.977  0.00  0.00    +0.000 C 
ATOM     37  C   UNL     1      -8.375   2.642 123.203  0.00  0.00    +0.000 C 
ATOM     38  C   UNL     1      -6.975   3.141 122.578  0.00  0.00    +0.000 C 
ATOM     39  C   UNL     1      -6.141   3.720 123.632  0.00  0.00    +0.000 C 
ATOM     40  C   UNL     1      -6.234   2.799 124.782  0.00  0.00    +0.000 A 
ATOM     41  C   UNL     1      -7.202   1.752 124.983  0.00  0.00    +0.000 A 
ATOM     42  C   UNL     1      -7.219   1.038 126.152  0.00  0.00    +0.000 A 
ATOM     43  C   UNL     1      -6.247   1.312 127.084  0.00  0.00    +0.000 A 
ATOM     44  C   UNL     1      -5.277   2.288 126.846  0.00  0.00    +0.000 A 
ATOM     45  N   UNL     1      -5.261   3.042 125.708  0.00  0.00    +0.000 N 
ATOM     46  O   UNL     1      -4.358   3.919 125.527  0.00  0.00    +0.000 OA
ENDBRANCH  33  36
ENDBRANCH  29  30
ENDBRANCH   3  29
TORSDOF 6
ENDMDL
MODEL 9
REMARK VINA RESULT:      -9.1      3.515      8.075
REMARK  Name = CHEMBL265070
REMARK  7 active torsions:
REMARK  status: ('A' for Active; 'I' for Inactive)
REMARK    1  A    between atoms: C_1  and  O_2
REMARK    2  A    between atoms: O_2  and  C_3
REMARK    3  A    between atoms: C_5  and  O_6
REMARK    4  A    between atoms: O_6  and  C_7
REMARK    5  A    between atoms: N_10  and  C_11
REMARK    6  A    between atoms: C_27  and  C_28
REMARK    7  A    between atoms: C_33  and  N_34
REMARK                            x       y       z     vdW  Elec       q    Type
REMARK                         _______ _______ _______ _____ _____    ______ ____
ROOT
ATOM      1  C   UNL     1      -3.662   3.715 128.894  0.00  0.00    +0.000 A 
ATOM      2  C   UNL     1      -2.925   4.500 129.908  0.00  0.00    +0.000 A 
ATOM      3  C   UNL     1      -2.535   5.782 129.665  0.00  0.00    +0.000 A 
ATOM      4  C   UNL     1      -3.133   6.154 128.526  0.00  0.00    +0.000 A 
ATOM      5  F   UNL     1      -2.298   6.862 127.868  0.00  0.00    +0.000 F 
ATOM      6  C   UNL     1      -4.064   5.548 127.682  0.00  0.00    +0.000 A 
ATOM      7  C   UNL     1      -4.110   4.226 127.689  0.00  0.00    +0.000 A 
ENDROOT
BRANCH   7   8
ATOM      8  C   UNL     1      -4.604   3.707 126.342  0.00  0.00    +0.000 C 
ATOM      9  O   UNL     1      -4.266   4.091 125.223  0.00  0.00    +0.000 OA
ATOM     10  N   UNL     1      -5.607   2.846 126.444  0.00  0.00    +0.000 N 
ATOM     11  C   UNL     1      -5.476   1.548 125.837  0.00  0.00    +0.000 C 
ATOM     12  C   UNL     1      -6.755   1.250 125.109  0.00  0.00    +0.000 C 
ATOM     13  C   UNL     1      -7.966   1.504 126.039  0.00  0.00    +0.000 C 
ATOM     14  C   UNL     1      -7.996   2.948 126.556  0.00  0.00    +0.000 C 
ATOM     15  C   UNL     1      -6.718   3.259 127.244  0.00  0.00    +0.000 C 
BRANCH  13  16
ATOM     16  N   UNL     1      -8.067   0.447 127.095  0.00  0.00    +0.000 N 
ATOM     17  C   UNL     1      -7.920   0.677 128.472  0.00  0.00    +0.000 C 
ATOM     18  O   UNL     1      -8.495   1.458 129.169  0.00  0.00    +0.000 OA
ATOM     19  O   UNL     1      -7.017  -0.162 129.045  0.00  0.00    +0.000 OA
ATOM     20  C   UNL     1      -7.620  -1.427 129.145  0.00  0.00    +0.000 C 
ATOM     21  C   UNL     1      -8.079  -1.863 127.786  0.00  0.00    +0.000 A 
ATOM     22  C   UNL     1      -8.331  -3.210 127.564  0.00  0.00    +0.000 A 
ATOM     23  C   UNL     1      -8.769  -3.623 126.316  0.00  0.00    +0.000 A 
ATOM     24  C   UNL     1      -8.973  -2.691 125.299  0.00  0.00    +0.000 A 
ATOM     25  C   UNL     1      -8.729  -1.337 125.515  0.00  0.00    +0.000 A 
ATOM     26  C   UNL     1      -8.272  -0.913 126.760  0.00  0.00    +0.000 A 
ENDBRANCH  13  16
ENDBRANCH   7   8
BRANCH   1  28
ATOM     27  C   UNL     1      -4.000   2.417 130.638  0.00  0.00    +0.000 C 
ATOM     28  O   UNL     1      -4.015   2.448 129.213  0.00  0.00    +0.000 OA
ENDBRANCH   1  28
BRANCH   3  29
ATOM     29  O   UNL     1      -1.584   6.533 130.307  0.00  0.00    +0.000 OA
BRANCH  29  30
ATOM     30  C   UNL     1      -1.118   6.449 131.750  0.00  0.00    +0.000 C 
ATOM     31  C   UNL     1      -1.366   5.172 132.600  0.00  0.00    +0.000 C 
ATOM     32  C   UNL     1      -2.769   5.071 133.213  0.00  0.00    +0.000 C 
ATOM     33  N   UNL     1      -3.251   6.386 133.858  0.00  0.00    +0.000 NA
ATOM     34  C   UNL     1      -2.769   7.665 133.210  0.00  0.00    +0.000 C 
ATOM     35  C   UNL     1      -1.370   7.690 132.642  0.00  0.00    +0.000 C 
BRANCH  33  36
ATOM     36  C   UNL     1      -4.765   6.399 134.052  0.00  0.00    +0.000 C 
ATOM     37  C   UNL     1      -5.376   5.740 135.262  0.00  0.00    +0.000 C 
ATOM     38  C   UNL     1      -5.287   4.131 135.213  0.00  0.00    +0.000 C 
ATOM     39  C   UNL     1      -6.285   3.608 134.279  0.00  0.00    +0.000 C 
ATOM     40  C   UNL     1      -6.208   4.463 133.077  0.00  0.00    +0.000 A 
ATOM     41  C   UNL     1      -5.567   5.746 132.961  0.00  0.00    +0.000 A 
ATOM     42  C   UNL     1      -5.663   6.466 131.798  0.00  0.00    +0.000 A 
ATOM     43  C   UNL     1      -6.328   5.893 130.743  0.00  0.00    +0.000 A 
ATOM     44  C   UNL     1      -6.891   4.620 130.853  0.00  0.00    +0.000 A 
ATOM     45  N   UNL     1      -6.846   3.897 132.011  0.00  0.00    +0.000 N 
ATOM     46  O   UNL     1      -7.368   2.739 132.070  0.00  0.00    +0.000 OA
ENDBRANCH  33  36
ENDBRANCH  29  30
ENDBRANCH   3  29
TORSDOF 6
ENDMDL
