MODEL 1
REMARK VINA RESULT:      -9.7      0.000      0.000
REMARK  Name = CHEMBL71540
REMARK  9 active torsions:
REMARK  status: ('A' for Active; 'I' for Inactive)
REMARK    1  A    between atoms: C_1  and  O_2
REMARK    2  A    between atoms: O_2  and  C_3
REMARK    3  A    between atoms: C_5  and  O_6
REMARK    4  A    between atoms: O_6  and  C_7
REMARK    5  A    between atoms: N_10  and  C_11
REMARK    6  A    between atoms: C_11  and  C_12
REMARK    7  A    between atoms: C_18  and  C_19
REMARK    8  A    between atoms: C_28  and  C_29
REMARK    9  A    between atoms: C_34  and  N_35
REMARK                            x       y       z     vdW  Elec       q    Type
REMARK                         _______ _______ _______ _____ _____    ______ ____
ROOT
ATOM      1  C   UNL     1      -7.049   0.993 132.823  0.00  0.00    +0.000 A 
ATOM      2  C   UNL     1      -7.514   2.322 133.166  0.00  0.00    +0.000 A 
ATOM      3  C   UNL     1      -8.771   2.696 132.835  0.00  0.00    +0.000 A 
ATOM      4  C   UNL     1      -9.337   1.673 132.176  0.00  0.00    +0.000 A 
ATOM      5  F   UNL     1     -10.474   1.944 131.696  0.00  0.00    +0.000 F 
ATOM      6  C   UNL     1      -9.037   0.405 131.812  0.00  0.00    +0.000 A 
ATOM      7  C   UNL     1      -7.818   0.018 132.146  0.00  0.00    +0.000 A 
ENDROOT
BRANCH   7   8
ATOM      8  C   UNL     1      -7.606  -1.355 131.641  0.00  0.00    +0.000 C 
ATOM      9  O   UNL     1      -7.654  -2.363 132.345  0.00  0.00    +0.000 OA
ATOM     10  N   UNL     1      -7.399  -1.433 130.322  0.00  0.00    +0.000 N 
ATOM     11  C   UNL     1      -8.298  -2.220 129.525  0.00  0.00    +0.000 C 
ATOM     12  C   UNL     1      -7.466  -3.169 128.708  0.00  0.00    +0.000 C 
ATOM     13  C   UNL     1      -6.378  -2.400 127.923  0.00  0.00    +0.000 C 
ATOM     14  C   UNL     1      -5.481  -1.583 128.861  0.00  0.00    +0.000 C 
ATOM     15  C   UNL     1      -6.321  -0.702 129.719  0.00  0.00    +0.000 C 
BRANCH  13  16
ATOM     16  N   UNL     1      -6.956  -1.646 126.758  0.00  0.00    +0.000 N 
ATOM     17  C   UNL     1      -7.999  -0.716 126.835  0.00  0.00    +0.000 C 
ATOM     18  O   UNL     1      -8.051   0.308 127.495  0.00  0.00    +0.000 OA
ATOM     19  O   UNL     1      -9.057  -1.039 126.049  0.00  0.00    +0.000 OA
ATOM     20  C   UNL     1      -8.704  -0.873 124.692  0.00  0.00    +0.000 C 
ATOM     21  C   UNL     1      -7.422  -1.585 124.388  0.00  0.00    +0.000 A 
ATOM     22  C   UNL     1      -7.071  -1.820 123.061  0.00  0.00    +0.000 A 
ATOM     23  C   UNL     1      -5.873  -2.457 122.769  0.00  0.00    +0.000 A 
ATOM     24  C   UNL     1      -5.022  -2.849 123.798  0.00  0.00    +0.000 A 
ATOM     25  C   UNL     1      -5.368  -2.618 125.128  0.00  0.00    +0.000 A 
ATOM     26  C   UNL     1      -6.576  -1.991 125.434  0.00  0.00    +0.000 A 
ENDBRANCH  13  16
ENDBRANCH   7   8
BRANCH   1  28
ATOM     27  C   UNL     1      -5.715   0.256 134.498  0.00  0.00    +0.000 C 
ATOM     28  O   UNL     1      -5.762   0.718 133.151  0.00  0.00    +0.000 OA
ENDBRANCH   1  28
BRANCH   3  29
ATOM     29  O   UNL     1      -9.354   3.899 133.093  0.00  0.00    +0.000 OA
BRANCH  29  30
ATOM     30  C   UNL     1      -9.330   5.104 132.222  0.00  0.00    +0.000 C 
ATOM     31  C   UNL     1     -10.047   5.041 130.851  0.00  0.00    +0.000 C 
ATOM     32  C   UNL     1      -9.218   4.418 129.736  0.00  0.00    +0.000 C 
ATOM     33  N   UNL     1      -7.771   4.985 129.675  0.00  0.00    +0.000 NA
ATOM     34  C   UNL     1      -7.099   5.286 131.033  0.00  0.00    +0.000 C 
ATOM     35  C   UNL     1      -7.996   5.852 132.099  0.00  0.00    +0.000 C 
BRANCH  33  36
ATOM     36  C   UNL     1      -6.952   3.951 128.967  0.00  0.00    +0.000 C 
BRANCH  36  37
ATOM     37  C   UNL     1      -6.706   4.228 127.522  0.00  0.00    +0.000 A 
ATOM     38  C   UNL     1      -7.777   4.100 126.599  0.00  0.00    +0.000 A 
ATOM     39  N   UNL     1      -7.571   4.047 125.245  0.00  0.00    +0.000 N 
ATOM     40  O   UNL     1      -8.507   3.730 124.455  0.00  0.00    +0.000 OA
ATOM     41  C   UNL     1      -6.307   4.332 124.794  0.00  0.00    +0.000 A 
ATOM     42  C   UNL     1      -5.273   4.654 125.684  0.00  0.00    +0.000 A 
ATOM     43  C   UNL     1      -5.450   4.593 127.072  0.00  0.00    +0.000 A 
BRANCH  43  44
ATOM     44  C   UNL     1      -4.292   4.943 127.989  0.00  0.00    +0.000 C 
ATOM     45  F   UNL     1      -3.833   3.850 128.652  0.00  0.00    +0.000 F 
ATOM     46  F   UNL     1      -3.243   5.433 127.272  0.00  0.00    +0.000 F 
ATOM     47  F   UNL     1      -4.496   5.877 128.954  0.00  0.00    +0.000 F 
ENDBRANCH  43  44
ENDBRANCH  36  37
ENDBRANCH  33  36
ENDBRANCH  29  30
ENDBRANCH   3  29
TORSDOF 8
ENDMDL
MODEL 2
REMARK VINA RESULT:      -9.7      2.798      7.180
REMARK  Name = CHEMBL71540
REMARK  9 active torsions:
REMARK  status: ('A' for Active; 'I' for Inactive)
REMARK    1  A    between atoms: C_1  and  O_2
REMARK    2  A    between atoms: O_2  and  C_3
REMARK    3  A    between atoms: C_5  and  O_6
REMARK    4  A    between atoms: O_6  and  C_7
REMARK    5  A    between atoms: N_10  and  C_11
REMARK    6  A    between atoms: C_11  and  C_12
REMARK    7  A    between atoms: C_18  and  C_19
REMARK    8  A    between atoms: C_28  and  C_29
REMARK    9  A    between atoms: C_34  and  N_35
REMARK                            x       y       z     vdW  Elec       q    Type
REMARK                         _______ _______ _______ _____ _____    ______ ____
ROOT
ATOM      1  C   UNL     1      -6.507   1.253 129.759  0.00  0.00    +0.000 A 
ATOM      2  C   UNL     1      -6.005   0.264 128.826  0.00  0.00    +0.000 A 
ATOM      3  C   UNL     1      -6.604  -0.946 128.750  0.00  0.00    +0.000 A 
ATOM      4  C   UNL     1      -7.590  -0.967 129.659  0.00  0.00    +0.000 A 
ATOM      5  F   UNL     1      -8.148  -2.095 129.779  0.00  0.00    +0.000 F 
ATOM      6  C   UNL     1      -8.167  -0.135 130.556  0.00  0.00    +0.000 A 
ATOM      7  C   UNL     1      -7.604   1.059 130.630  0.00  0.00    +0.000 A 
ENDROOT
BRANCH   7   8
ATOM      8  C   UNL     1      -8.291   1.839 131.680  0.00  0.00    +0.000 C 
ATOM      9  O   UNL     1      -8.277   1.547 132.875  0.00  0.00    +0.000 OA
ATOM     10  N   UNL     1      -8.909   2.939 131.236  0.00  0.00    +0.000 N 
ATOM     11  C   UNL     1      -8.523   4.214 131.773  0.00  0.00    +0.000 C 
ATOM     12  C   UNL     1      -9.773   4.905 132.243  0.00  0.00    +0.000 C 
ATOM     13  C   UNL     1     -10.826   4.949 131.111  0.00  0.00    +0.000 C 
ATOM     14  C   UNL     1     -11.160   3.542 130.600  0.00  0.00    +0.000 C 
ATOM     15  C   UNL     1      -9.907   2.839 130.210  0.00  0.00    +0.000 C 
BRANCH  13  16
ATOM     16  N   UNL     1     -10.471   5.957 130.054  0.00  0.00    +0.000 N 
ATOM     17  C   UNL     1      -9.177   6.407 129.769  0.00  0.00    +0.000 C 
ATOM     18  O   UNL     1      -8.204   5.749 129.439  0.00  0.00    +0.000 OA
ATOM     19  O   UNL     1      -9.046   7.752 129.882  0.00  0.00    +0.000 OA
ATOM     20  C   UNL     1      -9.742   8.383 128.829  0.00  0.00    +0.000 C 
ATOM     21  C   UNL     1     -11.146   7.868 128.739  0.00  0.00    +0.000 A 
ATOM     22  C   UNL     1     -12.085   8.577 127.996  0.00  0.00    +0.000 A 
ATOM     23  C   UNL     1     -13.383   8.094 127.887  0.00  0.00    +0.000 A 
ATOM     24  C   UNL     1     -13.737   6.900 128.509  0.00  0.00    +0.000 A 
ATOM     25  C   UNL     1     -12.802   6.187 129.255  0.00  0.00    +0.000 A 
ATOM     26  C   UNL     1     -11.499   6.670 129.382  0.00  0.00    +0.000 A 
ENDBRANCH  13  16
ENDBRANCH   7   8
BRANCH   1  28
ATOM     27  C   UNL     1      -4.616   2.223 130.539  0.00  0.00    +0.000 C 
ATOM     28  O   UNL     1      -5.819   2.421 129.802  0.00  0.00    +0.000 OA
ENDBRANCH   1  28
BRANCH   3  29
ATOM     29  O   UNL     1      -6.258  -1.973 127.924  0.00  0.00    +0.000 OA
BRANCH  29  30
ATOM     30  C   UNL     1      -6.576  -2.096 126.477  0.00  0.00    +0.000 C 
ATOM     31  C   UNL     1      -5.643  -1.404 125.453  0.00  0.00    +0.000 C 
ATOM     32  C   UNL     1      -5.946   0.072 125.227  0.00  0.00    +0.000 C 
ATOM     33  N   UNL     1      -7.460   0.348 125.002  0.00  0.00    +0.000 NA
ATOM     34  C   UNL     1      -8.439  -0.500 125.845  0.00  0.00    +0.000 C 
ATOM     35  C   UNL     1      -8.044  -1.934 126.066  0.00  0.00    +0.000 C 
BRANCH  33  36
ATOM     36  C   UNL     1      -7.674   1.788 125.346  0.00  0.00    +0.000 C 
BRANCH  36  37
ATOM     37  C   UNL     1      -7.002   2.757 124.432  0.00  0.00    +0.000 A 
ATOM     38  C   UNL     1      -7.374   2.792 123.062  0.00  0.00    +0.000 A 
ATOM     39  N   UNL     1      -6.616   3.429 122.116  0.00  0.00    +0.000 N 
ATOM     40  O   UNL     1      -6.851   3.278 120.882  0.00  0.00    +0.000 OA
ATOM     41  C   UNL     1      -5.586   4.214 122.566  0.00  0.00    +0.000 A 
ATOM     42  C   UNL     1      -5.319   4.350 123.936  0.00  0.00    +0.000 A 
ATOM     43  C   UNL     1      -6.016   3.608 124.898  0.00  0.00    +0.000 A 
BRANCH  43  44
ATOM     44  C   UNL     1      -5.679   3.787 126.367  0.00  0.00    +0.000 C 
ATOM     45  F   UNL     1      -4.932   2.754 126.837  0.00  0.00    +0.000 F 
ATOM     46  F   UNL     1      -4.945   4.918 126.557  0.00  0.00    +0.000 F 
ATOM     47  F   UNL     1      -6.703   3.907 127.251  0.00  0.00    +0.000 F 
ENDBRANCH  43  44
ENDBRANCH  36  37
ENDBRANCH  33  36
ENDBRANCH  29  30
ENDBRANCH   3  29
TORSDOF 8
ENDMDL
MODEL 3
REMARK VINA RESULT:      -9.7      1.784      2.253
REMARK  Name = CHEMBL71540
REMARK  9 active torsions:
REMARK  status: ('A' for Active; 'I' for Inactive)
REMARK    1  A    between atoms: C_1  and  O_2
REMARK    2  A    between atoms: O_2  and  C_3
REMARK    3  A    between atoms: C_5  and  O_6
REMARK    4  A    between atoms: O_6  and  C_7
REMARK    5  A    between atoms: N_10  and  C_11
REMARK    6  A    between atoms: C_11  and  C_12
REMARK    7  A    between atoms: C_18  and  C_19
REMARK    8  A    between atoms: C_28  and  C_29
REMARK    9  A    between atoms: C_34  and  N_35
REMARK                            x       y       z     vdW  Elec       q    Type
REMARK                         _______ _______ _______ _____ _____    ______ ____
ROOT
ATOM      1  C   UNL     1      -7.018   0.749 132.858  0.00  0.00    +0.000 A 
ATOM      2  C   UNL     1      -7.514   2.053 133.250  0.00  0.00    +0.000 A 
ATOM      3  C   UNL     1      -8.777   2.413 132.926  0.00  0.00    +0.000 A 
ATOM      4  C   UNL     1      -9.316   1.406 132.222  0.00  0.00    +0.000 A 
ATOM      5  F   UNL     1     -10.455   1.671 131.745  0.00  0.00    +0.000 F 
ATOM      6  C   UNL     1      -8.986   0.160 131.810  0.00  0.00    +0.000 A 
ATOM      7  C   UNL     1      -7.760  -0.213 132.136  0.00  0.00    +0.000 A 
ENDROOT
BRANCH   7   8
ATOM      8  C   UNL     1      -7.516  -1.560 131.579  0.00  0.00    +0.000 C 
ATOM      9  O   UNL     1      -7.533  -2.595 132.244  0.00  0.00    +0.000 OA
ATOM     10  N   UNL     1      -7.314  -1.582 130.256  0.00  0.00    +0.000 N 
ATOM     11  C   UNL     1      -8.196  -2.362 129.434  0.00  0.00    +0.000 C 
ATOM     12  C   UNL     1      -7.344  -3.257 128.578  0.00  0.00    +0.000 C 
ATOM     13  C   UNL     1      -6.282  -2.429 127.817  0.00  0.00    +0.000 C 
ATOM     14  C   UNL     1      -5.402  -1.625 128.782  0.00  0.00    +0.000 C 
ATOM     15  C   UNL     1      -6.259  -0.800 129.677  0.00  0.00    +0.000 C 
BRANCH  13  16
ATOM     16  N   UNL     1      -6.886  -1.647 126.685  0.00  0.00    +0.000 N 
ATOM     17  C   UNL     1      -7.893  -0.684 126.815  0.00  0.00    +0.000 C 
ATOM     18  O   UNL     1      -7.882   0.335 127.484  0.00  0.00    +0.000 OA
ATOM     19  O   UNL     1      -8.995  -0.966 126.075  0.00  0.00    +0.000 OA
ATOM     20  C   UNL     1      -8.699  -0.800 124.706  0.00  0.00    +0.000 C 
ATOM     21  C   UNL     1      -7.456  -1.552 124.339  0.00  0.00    +0.000 A 
ATOM     22  C   UNL     1      -7.173  -1.786 122.996  0.00  0.00    +0.000 A 
ATOM     23  C   UNL     1      -6.011  -2.461 122.646  0.00  0.00    +0.000 A 
ATOM     24  C   UNL     1      -5.128  -2.889 123.633  0.00  0.00    +0.000 A 
ATOM     25  C   UNL     1      -5.406  -2.657 124.978  0.00  0.00    +0.000 A 
ATOM     26  C   UNL     1      -6.577  -1.993 125.342  0.00  0.00    +0.000 A 
ENDBRANCH  13  16
ENDBRANCH   7   8
BRANCH   1  28
ATOM     27  C   UNL     1      -4.879   1.380 132.465  0.00  0.00    +0.000 C 
ATOM     28  O   UNL     1      -5.727   0.490 133.184  0.00  0.00    +0.000 OA
ENDBRANCH   1  28
BRANCH   3  29
ATOM     29  O   UNL     1      -9.388   3.592 133.227  0.00  0.00    +0.000 OA
BRANCH  29  30
ATOM     30  C   UNL     1      -9.274   4.871 132.476  0.00  0.00    +0.000 C 
ATOM     31  C   UNL     1      -9.470   4.846 130.940  0.00  0.00    +0.000 C 
ATOM     32  C   UNL     1      -8.223   4.461 130.154  0.00  0.00    +0.000 C 
ATOM     33  N   UNL     1      -6.955   5.229 130.625  0.00  0.00    +0.000 NA
ATOM     34  C   UNL     1      -6.838   5.483 132.145  0.00  0.00    +0.000 C 
ATOM     35  C   UNL     1      -8.121   5.806 132.858  0.00  0.00    +0.000 C 
BRANCH  33  36
ATOM     36  C   UNL     1      -5.786   4.398 130.198  0.00  0.00    +0.000 C 
BRANCH  36  37
ATOM     37  C   UNL     1      -4.669   5.163 129.573  0.00  0.00    +0.000 A 
ATOM     38  C   UNL     1      -4.523   6.545 129.866  0.00  0.00    +0.000 A 
ATOM     39  N   UNL     1      -3.723   7.369 129.120  0.00  0.00    +0.000 N 
ATOM     40  O   UNL     1      -3.763   8.625 129.267  0.00  0.00    +0.000 OA
ATOM     41  C   UNL     1      -2.898   6.773 128.201  0.00  0.00    +0.000 A 
ATOM     42  C   UNL     1      -2.885   5.382 128.029  0.00  0.00    +0.000 A 
ATOM     43  C   UNL     1      -3.786   4.549 128.704  0.00  0.00    +0.000 A 
BRANCH  43  44
ATOM     44  C   UNL     1      -3.733   3.049 128.473  0.00  0.00    +0.000 C 
ATOM     45  F   UNL     1      -4.819   2.613 127.784  0.00  0.00    +0.000 F 
ATOM     46  F   UNL     1      -2.640   2.716 127.732  0.00  0.00    +0.000 F 
ATOM     47  F   UNL     1      -3.656   2.234 129.557  0.00  0.00    +0.000 F 
ENDBRANCH  43  44
ENDBRANCH  36  37
ENDBRANCH  33  36
ENDBRANCH  29  30
ENDBRANCH   3  29
TORSDOF 8
ENDMDL
MODEL 4
REMARK VINA RESULT:      -9.5      1.916      2.311
REMARK  Name = CHEMBL71540
REMARK  9 active torsions:
REMARK  status: ('A' for Active; 'I' for Inactive)
REMARK    1  A    between atoms: C_1  and  O_2
REMARK    2  A    between atoms: O_2  and  C_3
REMARK    3  A    between atoms: C_5  and  O_6
REMARK    4  A    between atoms: O_6  and  C_7
REMARK    5  A    between atoms: N_10  and  C_11
REMARK    6  A    between atoms: C_11  and  C_12
REMARK    7  A    between atoms: C_18  and  C_19
REMARK    8  A    between atoms: C_28  and  C_29
REMARK    9  A    between atoms: C_34  and  N_35
REMARK                            x       y       z     vdW  Elec       q    Type
REMARK                         _______ _______ _______ _____ _____    ______ ____
ROOT
ATOM      1  C   UNL     1      -7.006   0.743 132.778  0.00  0.00    +0.000 A 
ATOM      2  C   UNL     1      -7.467   2.054 133.187  0.00  0.00    +0.000 A 
ATOM      3  C   UNL     1      -8.733   2.435 132.902  0.00  0.00    +0.000 A 
ATOM      4  C   UNL     1      -9.311   1.439 132.214  0.00  0.00    +0.000 A 
ATOM      5  F   UNL     1     -10.460   1.724 131.773  0.00  0.00    +0.000 F 
ATOM      6  C   UNL     1      -9.015   0.189 131.790  0.00  0.00    +0.000 A 
ATOM      7  C   UNL     1      -7.786  -0.206 132.078  0.00  0.00    +0.000 A 
ENDROOT
BRANCH   7   8
ATOM      8  C   UNL     1      -7.582  -1.555 131.511  0.00  0.00    +0.000 C 
ATOM      9  O   UNL     1      -7.624  -2.593 132.170  0.00  0.00    +0.000 OA
ATOM     10  N   UNL     1      -7.387  -1.574 130.188  0.00  0.00    +0.000 N 
ATOM     11  C   UNL     1      -8.294  -2.325 129.365  0.00  0.00    +0.000 C 
ATOM     12  C   UNL     1      -7.472  -3.238 128.499  0.00  0.00    +0.000 C 
ATOM     13  C   UNL     1      -6.390  -2.435 127.738  0.00  0.00    +0.000 C 
ATOM     14  C   UNL     1      -5.483  -1.662 128.703  0.00  0.00    +0.000 C 
ATOM     15  C   UNL     1      -6.313  -0.819 129.608  0.00  0.00    +0.000 C 
BRANCH  13  16
ATOM     16  N   UNL     1      -6.978  -1.629 126.614  0.00  0.00    +0.000 N 
ATOM     17  C   UNL     1      -7.999  -0.682 126.746  0.00  0.00    +0.000 C 
ATOM     18  O   UNL     1      -8.015   0.318 127.442  0.00  0.00    +0.000 OA
ATOM     19  O   UNL     1      -9.081  -0.957 125.974  0.00  0.00    +0.000 OA
ATOM     20  C   UNL     1      -8.755  -0.750 124.617  0.00  0.00    +0.000 C 
ATOM     21  C   UNL     1      -7.495  -1.477 124.259  0.00  0.00    +0.000 A 
ATOM     22  C   UNL     1      -7.179  -1.672 122.917  0.00  0.00    +0.000 A 
ATOM     23  C   UNL     1      -6.001  -2.323 122.576  0.00  0.00    +0.000 A 
ATOM     24  C   UNL     1      -5.135  -2.768 123.571  0.00  0.00    +0.000 A 
ATOM     25  C   UNL     1      -5.447  -2.576 124.915  0.00  0.00    +0.000 A 
ATOM     26  C   UNL     1      -6.634  -1.936 125.270  0.00  0.00    +0.000 A 
ENDBRANCH  13  16
ENDBRANCH   7   8
BRANCH   1  28
ATOM     27  C   UNL     1      -5.632  -0.077 134.380  0.00  0.00    +0.000 C 
ATOM     28  O   UNL     1      -5.710   0.462 133.063  0.00  0.00    +0.000 OA
ENDBRANCH   1  28
BRANCH   3  29
ATOM     29  O   UNL     1      -9.315   3.624 133.224  0.00  0.00    +0.000 OA
BRANCH  29  30
ATOM     30  C   UNL     1      -9.073   4.939 132.572  0.00  0.00    +0.000 C 
ATOM     31  C   UNL     1      -8.937   4.985 131.031  0.00  0.00    +0.000 C 
ATOM     32  C   UNL     1      -7.543   4.655 130.513  0.00  0.00    +0.000 C 
ATOM     33  N   UNL     1      -6.422   5.416 131.278  0.00  0.00    +0.000 NA
ATOM     34  C   UNL     1      -6.637   5.598 132.797  0.00  0.00    +0.000 C 
ATOM     35  C   UNL     1      -8.050   5.870 133.233  0.00  0.00    +0.000 C 
BRANCH  33  36
ATOM     36  C   UNL     1      -5.170   4.622 131.074  0.00  0.00    +0.000 C 
BRANCH  36  37
ATOM     37  C   UNL     1      -4.263   5.143 130.012  0.00  0.00    +0.000 A 
ATOM     38  C   UNL     1      -4.452   4.724 128.669  0.00  0.00    +0.000 A 
ATOM     39  N   UNL     1      -3.500   4.918 127.703  0.00  0.00    +0.000 N 
ATOM     40  O   UNL     1      -3.597   4.361 126.571  0.00  0.00    +0.000 OA
ATOM     41  C   UNL     1      -2.437   5.721 128.026  0.00  0.00    +0.000 A 
ATOM     42  C   UNL     1      -2.328   6.308 129.295  0.00  0.00    +0.000 A 
ATOM     43  C   UNL     1      -3.235   6.016 130.321  0.00  0.00    +0.000 A 
BRANCH  43  44
ATOM     44  C   UNL     1      -3.064   6.674 131.679  0.00  0.00    +0.000 C 
ATOM     45  F   UNL     1      -2.955   5.751 132.669  0.00  0.00    +0.000 F 
ATOM     46  F   UNL     1      -1.924   7.418 131.711  0.00  0.00    +0.000 F 
ATOM     47  F   UNL     1      -4.028   7.530 132.104  0.00  0.00    +0.000 F 
ENDBRANCH  43  44
ENDBRANCH  36  37
ENDBRANCH  33  36
ENDBRANCH  29  30
ENDBRANCH   3  29
TORSDOF 8
ENDMDL
MODEL 5
REMARK VINA RESULT:      -9.5      2.826      6.549
REMARK  Name = CHEMBL71540
REMARK  9 active torsions:
REMARK  status: ('A' for Active; 'I' for Inactive)
REMARK    1  A    between atoms: C_1  and  O_2
REMARK    2  A    between atoms: O_2  and  C_3
REMARK    3  A    between atoms: C_5  and  O_6
REMARK    4  A    between atoms: O_6  and  C_7
REMARK    5  A    between atoms: N_10  and  C_11
REMARK    6  A    between atoms: C_11  and  C_12
REMARK    7  A    between atoms: C_18  and  C_19
REMARK    8  A    between atoms: C_28  and  C_29
REMARK    9  A    between atoms: C_34  and  N_35
REMARK                            x       y       z     vdW  Elec       q    Type
REMARK                         _______ _______ _______ _____ _____    ______ ____
ROOT
ATOM      1  C   UNL     1      -3.295   4.039 127.065  0.00  0.00    +0.000 A 
ATOM      2  C   UNL     1      -2.346   4.581 128.017  0.00  0.00    +0.000 A 
ATOM      3  C   UNL     1      -2.567   5.800 128.559  0.00  0.00    +0.000 A 
ATOM      4  C   UNL     1      -3.693   6.286 128.016  0.00  0.00    +0.000 A 
ATOM      5  F   UNL     1      -3.942   7.481 128.344  0.00  0.00    +0.000 F 
ATOM      6  C   UNL     1      -4.662   5.894 127.157  0.00  0.00    +0.000 A 
ATOM      7  C   UNL     1      -4.470   4.695 126.633  0.00  0.00    +0.000 A 
ENDROOT
BRANCH   7   8
ATOM      8  C   UNL     1      -5.564   4.420 125.678  0.00  0.00    +0.000 C 
ATOM      9  O   UNL     1      -5.881   5.173 124.758  0.00  0.00    +0.000 OA
ATOM     10  N   UNL     1      -6.171   3.242 125.858  0.00  0.00    +0.000 N 
ATOM     11  C   UNL     1      -6.174   2.292 124.781  0.00  0.00    +0.000 C 
ATOM     12  C   UNL     1      -7.598   1.868 124.554  0.00  0.00    +0.000 C 
ATOM     13  C   UNL     1      -8.237   1.380 125.875  0.00  0.00    +0.000 C 
ATOM     14  C   UNL     1      -8.173   2.461 126.962  0.00  0.00    +0.000 C 
ATOM     15  C   UNL     1      -6.769   2.928 127.125  0.00  0.00    +0.000 C 
BRANCH  13  16
ATOM     16  N   UNL     1      -7.725   0.025 126.277  0.00  0.00    +0.000 N 
ATOM     17  C   UNL     1      -6.939  -0.241 127.403  0.00  0.00    +0.000 C 
ATOM     18  O   UNL     1      -7.196  -0.015 128.573  0.00  0.00    +0.000 OA
ATOM     19  O   UNL     1      -5.757  -0.832 127.097  0.00  0.00    +0.000 OA
ATOM     20  C   UNL     1      -5.990  -2.156 126.666  0.00  0.00    +0.000 C 
ATOM     21  C   UNL     1      -7.033  -2.186 125.592  0.00  0.00    +0.000 A 
ATOM     22  C   UNL     1      -7.175  -3.331 124.812  0.00  0.00    +0.000 A 
ATOM     23  C   UNL     1      -8.156  -3.377 123.830  0.00  0.00    +0.000 A 
ATOM     24  C   UNL     1      -9.000  -2.287 123.635  0.00  0.00    +0.000 A 
ATOM     25  C   UNL     1      -8.862  -1.139 124.411  0.00  0.00    +0.000 A 
ATOM     26  C   UNL     1      -7.871  -1.076 125.391  0.00  0.00    +0.000 A 
ENDBRANCH  13  16
ENDBRANCH   7   8
BRANCH   1  28
ATOM     27  C   UNL     1      -1.556   2.745 126.410  0.00  0.00    +0.000 C 
ATOM     28  O   UNL     1      -2.972   2.832 126.537  0.00  0.00    +0.000 OA
ENDBRANCH   1  28
BRANCH   3  29
ATOM     29  O   UNL     1      -1.778   6.439 129.467  0.00  0.00    +0.000 OA
BRANCH  29  30
ATOM     30  C   UNL     1      -1.978   6.489 130.940  0.00  0.00    +0.000 C 
ATOM     31  C   UNL     1      -2.202   5.159 131.701  0.00  0.00    +0.000 C 
ATOM     32  C   UNL     1      -3.642   4.661 131.686  0.00  0.00    +0.000 C 
ATOM     33  N   UNL     1      -4.667   5.778 132.033  0.00  0.00    +0.000 NA
ATOM     34  C   UNL     1      -4.353   7.187 131.483  0.00  0.00    +0.000 C 
ATOM     35  C   UNL     1      -2.902   7.584 131.484  0.00  0.00    +0.000 C 
BRANCH  33  36
ATOM     36  C   UNL     1      -5.975   5.332 131.458  0.00  0.00    +0.000 C 
BRANCH  36  37
ATOM     37  C   UNL     1      -7.014   4.974 132.466  0.00  0.00    +0.000 A 
ATOM     38  C   UNL     1      -6.978   5.586 133.747  0.00  0.00    +0.000 A 
ATOM     39  N   UNL     1      -7.700   5.103 134.806  0.00  0.00    +0.000 N 
ATOM     40  O   UNL     1      -7.501   5.531 135.980  0.00  0.00    +0.000 OA
ATOM     41  C   UNL     1      -8.626   4.128 134.538  0.00  0.00    +0.000 A 
ATOM     42  C   UNL     1      -8.815   3.642 133.236  0.00  0.00    +0.000 A 
ATOM     43  C   UNL     1      -7.998   4.048 132.174  0.00  0.00    +0.000 A 
BRANCH  43  44
ATOM     44  C   UNL     1      -8.242   3.482 130.786  0.00  0.00    +0.000 C 
ATOM     45  F   UNL     1      -7.272   2.601 130.430  0.00  0.00    +0.000 F 
ATOM     46  F   UNL     1      -9.421   2.803 130.745  0.00  0.00    +0.000 F 
ATOM     47  F   UNL     1      -8.326   4.350 129.745  0.00  0.00    +0.000 F 
ENDBRANCH  43  44
ENDBRANCH  36  37
ENDBRANCH  33  36
ENDBRANCH  29  30
ENDBRANCH   3  29
TORSDOF 8
ENDMDL
MODEL 6
REMARK VINA RESULT:      -9.4      2.508      7.187
REMARK  Name = CHEMBL71540
REMARK  9 active torsions:
REMARK  status: ('A' for Active; 'I' for Inactive)
REMARK    1  A    between atoms: C_1  and  O_2
REMARK    2  A    between atoms: O_2  and  C_3
REMARK    3  A    between atoms: C_5  and  O_6
REMARK    4  A    between atoms: O_6  and  C_7
REMARK    5  A    between atoms: N_10  and  C_11
REMARK    6  A    between atoms: C_11  and  C_12
REMARK    7  A    between atoms: C_18  and  C_19
REMARK    8  A    between atoms: C_28  and  C_29
REMARK    9  A    between atoms: C_34  and  N_35
REMARK                            x       y       z     vdW  Elec       q    Type
REMARK                         _______ _______ _______ _____ _____    ______ ____
ROOT
ATOM      1  C   UNL     1      -6.151  -2.107 127.561  0.00  0.00    +0.000 A 
ATOM      2  C   UNL     1      -6.175  -2.589 126.194  0.00  0.00    +0.000 A 
ATOM      3  C   UNL     1      -7.324  -3.081 125.680  0.00  0.00    +0.000 A 
ATOM      4  C   UNL     1      -8.252  -3.040 126.649  0.00  0.00    +0.000 A 
ATOM      5  F   UNL     1      -9.342  -3.594 126.333  0.00  0.00    +0.000 F 
ATOM      6  C   UNL     1      -8.372  -2.610 127.926  0.00  0.00    +0.000 A 
ATOM      7  C   UNL     1      -7.261  -2.109 128.437  0.00  0.00    +0.000 A 
ENDROOT
BRANCH   7   8
ATOM      8  C   UNL     1      -7.518  -1.736 129.844  0.00  0.00    +0.000 C 
ATOM      9  O   UNL     1      -7.933  -2.517 130.700  0.00  0.00    +0.000 OA
ATOM     10  N   UNL     1      -7.216  -0.467 130.143  0.00  0.00    +0.000 N 
ATOM     11  C   UNL     1      -6.247  -0.209 131.171  0.00  0.00    +0.000 C 
ATOM     12  C   UNL     1      -6.867   0.751 132.147  0.00  0.00    +0.000 C 
ATOM     13  C   UNL     1      -7.407   2.000 131.411  0.00  0.00    +0.000 C 
ATOM     14  C   UNL     1      -8.423   1.617 130.328  0.00  0.00    +0.000 C 
ATOM     15  C   UNL     1      -7.825   0.608 129.412  0.00  0.00    +0.000 C 
BRANCH  13  16
ATOM     16  N   UNL     1      -6.297   2.912 130.967  0.00  0.00    +0.000 N 
ATOM     17  C   UNL     1      -5.007   2.502 130.614  0.00  0.00    +0.000 C 
ATOM     18  O   UNL     1      -4.677   1.713 129.745  0.00  0.00    +0.000 OA
ATOM     19  O   UNL     1      -4.039   3.094 131.358  0.00  0.00    +0.000 OA
ATOM     20  C   UNL     1      -3.946   4.459 131.010  0.00  0.00    +0.000 C 
ATOM     21  C   UNL     1      -5.295   5.109 131.055  0.00  0.00    +0.000 A 
ATOM     22  C   UNL     1      -5.382   6.499 131.065  0.00  0.00    +0.000 A 
ATOM     23  C   UNL     1      -6.629   7.109 131.082  0.00  0.00    +0.000 A 
ATOM     24  C   UNL     1      -7.785   6.336 131.076  0.00  0.00    +0.000 A 
ATOM     25  C   UNL     1      -7.705   4.945 131.065  0.00  0.00    +0.000 A 
ATOM     26  C   UNL     1      -6.458   4.320 131.063  0.00  0.00    +0.000 A 
ENDBRANCH  13  16
ENDBRANCH   7   8
BRANCH   1  28
ATOM     27  C   UNL     1      -4.345  -2.703 128.789  0.00  0.00    +0.000 C 
ATOM     28  O   UNL     1      -4.947  -1.674 128.010  0.00  0.00    +0.000 OA
ENDBRANCH   1  28
BRANCH   3  29
ATOM     29  O   UNL     1      -7.509  -3.562 124.419  0.00  0.00    +0.000 OA
BRANCH  29  30
ATOM     30  C   UNL     1      -7.846  -2.770 123.205  0.00  0.00    +0.000 C 
ATOM     31  C   UNL     1      -6.751  -1.871 122.581  0.00  0.00    +0.000 C 
ATOM     32  C   UNL     1      -6.613  -0.503 123.237  0.00  0.00    +0.000 C 
ATOM     33  N   UNL     1      -7.982   0.205 123.443  0.00  0.00    +0.000 NA
ATOM     34  C   UNL     1      -9.167  -0.704 123.841  0.00  0.00    +0.000 C 
ATOM     35  C   UNL     1      -9.204  -2.058 123.190  0.00  0.00    +0.000 C 
BRANCH  33  36
ATOM     36  C   UNL     1      -7.771   1.204 124.537  0.00  0.00    +0.000 C 
BRANCH  36  37
ATOM     37  C   UNL     1      -7.011   2.423 124.134  0.00  0.00    +0.000 A 
ATOM     38  C   UNL     1      -7.105   2.890 122.797  0.00  0.00    +0.000 A 
ATOM     39  N   UNL     1      -6.227   3.805 122.280  0.00  0.00    +0.000 N 
ATOM     40  O   UNL     1      -6.199   4.054 121.040  0.00  0.00    +0.000 OA
ATOM     41  C   UNL     1      -5.374   4.419 123.161  0.00  0.00    +0.000 A 
ATOM     42  C   UNL     1      -5.396   4.112 124.529  0.00  0.00    +0.000 A 
ATOM     43  C   UNL     1      -6.209   3.092 125.041  0.00  0.00    +0.000 A 
BRANCH  43  44
ATOM     44  C   UNL     1      -6.186   2.796 126.530  0.00  0.00    +0.000 C 
ATOM     45  F   UNL     1      -7.431   2.862 127.069  0.00  0.00    +0.000 F 
ATOM     46  F   UNL     1      -5.727   1.535 126.761  0.00  0.00    +0.000 F 
ATOM     47  F   UNL     1      -5.416   3.578 127.329  0.00  0.00    +0.000 F 
ENDBRANCH  43  44
ENDBRANCH  36  37
ENDBRANCH  33  36
ENDBRANCH  29  30
ENDBRANCH   3  29
TORSDOF 8
ENDMDL
MODEL 7
REMARK VINA RESULT:      -9.4      2.890      7.734
REMARK  Name = CHEMBL71540
REMARK  9 active torsions:
REMARK  status: ('A' for Active; 'I' for Inactive)
REMARK    1  A    between atoms: C_1  and  O_2
REMARK    2  A    between atoms: O_2  and  C_3
REMARK    3  A    between atoms: C_5  and  O_6
REMARK    4  A    between atoms: O_6  and  C_7
REMARK    5  A    between atoms: N_10  and  C_11
REMARK    6  A    between atoms: C_11  and  C_12
REMARK    7  A    between atoms: C_18  and  C_19
REMARK    8  A    between atoms: C_28  and  C_29
REMARK    9  A    between atoms: C_34  and  N_35
REMARK                            x       y       z     vdW  Elec       q    Type
REMARK                         _______ _______ _______ _____ _____    ______ ____
ROOT
ATOM      1  C   UNL     1      -4.888   2.059 130.686  0.00  0.00    +0.000 A 
ATOM      2  C   UNL     1      -4.373   0.832 130.113  0.00  0.00    +0.000 A 
ATOM      3  C   UNL     1      -4.371  -0.300 130.851  0.00  0.00    +0.000 A 
ATOM      4  C   UNL     1      -4.857   0.007 132.064  0.00  0.00    +0.000 A 
ATOM      5  F   UNL     1      -4.787  -0.942 132.895  0.00  0.00    +0.000 F 
ATOM      6  C   UNL     1      -5.379   1.074 132.712  0.00  0.00    +0.000 A 
ATOM      7  C   UNL     1      -5.405   2.185 131.996  0.00  0.00    +0.000 A 
ENDROOT
BRANCH   7   8
ATOM      8  C   UNL     1      -5.941   3.274 132.838  0.00  0.00    +0.000 C 
ATOM      9  O   UNL     1      -5.407   3.672 133.873  0.00  0.00    +0.000 OA
ATOM     10  N   UNL     1      -7.053   3.845 132.362  0.00  0.00    +0.000 N 
ATOM     11  C   UNL     1      -7.043   5.253 132.082  0.00  0.00    +0.000 C 
ATOM     12  C   UNL     1      -8.222   5.864 132.786  0.00  0.00    +0.000 C 
ATOM     13  C   UNL     1      -9.524   5.118 132.411  0.00  0.00    +0.000 C 
ATOM     14  C   UNL     1      -9.429   3.623 132.737  0.00  0.00    +0.000 C 
ATOM     15  C   UNL     1      -8.215   3.045 132.097  0.00  0.00    +0.000 C 
BRANCH  13  16
ATOM     16  N   UNL     1      -9.978   5.450 131.016  0.00  0.00    +0.000 N 
ATOM     17  C   UNL     1      -9.392   4.970 129.840  0.00  0.00    +0.000 C 
ATOM     18  O   UNL     1      -9.240   3.811 129.491  0.00  0.00    +0.000 OA
ATOM     19  O   UNL     1      -8.965   5.960 129.017  0.00  0.00    +0.000 OA
ATOM     20  C   UNL     1     -10.079   6.623 128.460  0.00  0.00    +0.000 C 
ATOM     21  C   UNL     1     -11.040   7.035 129.533  0.00  0.00    +0.000 A 
ATOM     22  C   UNL     1     -12.027   7.973 129.241  0.00  0.00    +0.000 A 
ATOM     23  C   UNL     1     -12.937   8.341 130.223  0.00  0.00    +0.000 A 
ATOM     24  C   UNL     1     -12.869   7.767 131.489  0.00  0.00    +0.000 A 
ATOM     25  C   UNL     1     -11.884   6.828 131.787  0.00  0.00    +0.000 A 
ATOM     26  C   UNL     1     -10.956   6.460 130.813  0.00  0.00    +0.000 A 
ENDBRANCH  13  16
ENDBRANCH   7   8
BRANCH   1  28
ATOM     27  C   UNL     1      -5.873   3.121 128.945  0.00  0.00    +0.000 C 
ATOM     28  O   UNL     1      -4.809   3.156 129.891  0.00  0.00    +0.000 OA
ENDBRANCH   1  28
BRANCH   3  29
ATOM     29  O   UNL     1      -3.931  -1.527 130.456  0.00  0.00    +0.000 OA
BRANCH  29  30
ATOM     30  C   UNL     1      -4.746  -2.611 129.846  0.00  0.00    +0.000 C 
ATOM     31  C   UNL     1      -4.600  -2.882 128.329  0.00  0.00    +0.000 C 
ATOM     32  C   UNL     1      -5.443  -1.972 127.444  0.00  0.00    +0.000 C 
ATOM     33  N   UNL     1      -6.915  -1.854 127.934  0.00  0.00    +0.000 NA
ATOM     34  C   UNL     1      -7.122  -1.818 129.465  0.00  0.00    +0.000 C 
ATOM     35  C   UNL     1      -6.215  -2.705 130.272  0.00  0.00    +0.000 C 
BRANCH  33  36
ATOM     36  C   UNL     1      -7.440  -0.575 127.361  0.00  0.00    +0.000 C 
BRANCH  36  37
ATOM     37  C   UNL     1      -7.885  -0.662 125.940  0.00  0.00    +0.000 A 
ATOM     38  C   UNL     1      -8.818  -1.664 125.565  0.00  0.00    +0.000 A 
ATOM     39  N   UNL     1      -9.046  -1.994 124.255  0.00  0.00    +0.000 N 
ATOM     40  O   UNL     1      -9.721  -3.020 123.949  0.00  0.00    +0.000 OA
ATOM     41  C   UNL     1      -8.496  -1.178 123.300  0.00  0.00    +0.000 A 
ATOM     42  C   UNL     1      -7.726  -0.061 123.654  0.00  0.00    +0.000 A 
ATOM     43  C   UNL     1      -7.392   0.210 124.986  0.00  0.00    +0.000 A 
BRANCH  43  44
ATOM     44  C   UNL     1      -6.547   1.429 125.311  0.00  0.00    +0.000 C 
ATOM     45  F   UNL     1      -6.221   2.122 124.190  0.00  0.00    +0.000 F 
ATOM     46  F   UNL     1      -7.232   2.287 126.116  0.00  0.00    +0.000 F 
ATOM     47  F   UNL     1      -5.369   1.239 125.960  0.00  0.00    +0.000 F 
ENDBRANCH  43  44
ENDBRANCH  36  37
ENDBRANCH  33  36
ENDBRANCH  29  30
ENDBRANCH   3  29
TORSDOF 8
ENDMDL
MODEL 8
REMARK VINA RESULT:      -9.3      2.656      7.293
REMARK  Name = CHEMBL71540
REMARK  9 active torsions:
REMARK  status: ('A' for Active; 'I' for Inactive)
REMARK    1  A    between atoms: C_1  and  O_2
REMARK    2  A    between atoms: O_2  and  C_3
REMARK    3  A    between atoms: C_5  and  O_6
REMARK    4  A    between atoms: O_6  and  C_7
REMARK    5  A    between atoms: N_10  and  C_11
REMARK    6  A    between atoms: C_11  and  C_12
REMARK    7  A    between atoms: C_18  and  C_19
REMARK    8  A    between atoms: C_28  and  C_29
REMARK    9  A    between atoms: C_34  and  N_35
REMARK                            x       y       z     vdW  Elec       q    Type
REMARK                         _______ _______ _______ _____ _____    ______ ____
ROOT
ATOM      1  C   UNL     1      -6.068   0.028 131.956  0.00  0.00    +0.000 A 
ATOM      2  C   UNL     1      -5.748  -0.989 130.975  0.00  0.00    +0.000 A 
ATOM      3  C   UNL     1      -5.152  -0.634 129.814  0.00  0.00    +0.000 A 
ATOM      4  C   UNL     1      -5.014   0.701 129.822  0.00  0.00    +0.000 A 
ATOM      5  F   UNL     1      -4.586   1.175 128.732  0.00  0.00    +0.000 F 
ATOM      6  C   UNL     1      -5.243   1.744 130.654  0.00  0.00    +0.000 A 
ATOM      7  C   UNL     1      -5.808   1.410 131.801  0.00  0.00    +0.000 A 
ENDROOT
BRANCH   7   8
ATOM      8  C   UNL     1      -6.051   2.641 132.581  0.00  0.00    +0.000 C 
ATOM      9  O   UNL     1      -5.351   3.011 133.522  0.00  0.00    +0.000 OA
ATOM     10  N   UNL     1      -7.087   3.371 132.152  0.00  0.00    +0.000 N 
ATOM     11  C   UNL     1      -6.856   4.727 131.740  0.00  0.00    +0.000 C 
ATOM     12  C   UNL     1      -7.828   5.599 132.485  0.00  0.00    +0.000 C 
ATOM     13  C   UNL     1      -9.274   5.082 132.298  0.00  0.00    +0.000 C 
ATOM     14  C   UNL     1      -9.413   3.625 132.755  0.00  0.00    +0.000 C 
ATOM     15  C   UNL     1      -8.394   2.784 132.068  0.00  0.00    +0.000 C 
BRANCH  13  16
ATOM     16  N   UNL     1      -9.804   5.385 130.924  0.00  0.00    +0.000 N 
ATOM     17  C   UNL     1      -9.248   4.926 129.725  0.00  0.00    +0.000 C 
ATOM     18  O   UNL     1      -9.056   3.775 129.373  0.00  0.00    +0.000 OA
ATOM     19  O   UNL     1      -8.905   5.932 128.880  0.00  0.00    +0.000 OA
ATOM     20  C   UNL     1     -10.073   6.538 128.371  0.00  0.00    +0.000 C 
ATOM     21  C   UNL     1     -11.004   6.909 129.484  0.00  0.00    +0.000 A 
ATOM     22  C   UNL     1     -12.047   7.797 129.233  0.00  0.00    +0.000 A 
ATOM     23  C   UNL     1     -12.930   8.127 130.252  0.00  0.00    +0.000 A 
ATOM     24  C   UNL     1     -12.780   7.563 131.516  0.00  0.00    +0.000 A 
ATOM     25  C   UNL     1     -11.738   6.674 131.773  0.00  0.00    +0.000 A 
ATOM     26  C   UNL     1     -10.837   6.346 130.761  0.00  0.00    +0.000 A 
ENDBRANCH  13  16
ENDBRANCH   7   8
BRANCH   1  28
ATOM     27  C   UNL     1      -7.811  -1.221 132.682  0.00  0.00    +0.000 C 
ATOM     28  O   UNL     1      -6.705  -0.410 133.070  0.00  0.00    +0.000 OA
ENDBRANCH   1  28
BRANCH   3  29
ATOM     29  O   UNL     1      -4.783  -1.467 128.802  0.00  0.00    +0.000 OA
BRANCH  29  30
ATOM     30  C   UNL     1      -5.679  -2.096 127.796  0.00  0.00    +0.000 C 
ATOM     31  C   UNL     1      -5.459  -1.765 126.300  0.00  0.00    +0.000 C 
ATOM     32  C   UNL     1      -6.118  -0.471 125.839  0.00  0.00    +0.000 C 
ATOM     33  N   UNL     1      -7.595  -0.349 126.311  0.00  0.00    +0.000 NA
ATOM     34  C   UNL     1      -7.906  -0.889 127.725  0.00  0.00    +0.000 C 
ATOM     35  C   UNL     1      -7.176  -2.142 128.124  0.00  0.00    +0.000 C 
BRANCH  33  36
ATOM     36  C   UNL     1      -7.916   1.113 126.288  0.00  0.00    +0.000 C 
BRANCH  36  37
ATOM     37  C   UNL     1      -8.449   1.617 124.990  0.00  0.00    +0.000 A 
ATOM     38  C   UNL     1      -9.610   1.018 124.435  0.00  0.00    +0.000 A 
ATOM     39  N   UNL     1      -9.983   1.217 123.132  0.00  0.00    +0.000 N 
ATOM     40  O   UNL     1     -10.895   0.520 122.601  0.00  0.00    +0.000 OA
ATOM     41  C   UNL     1      -9.311   2.185 122.431  0.00  0.00    +0.000 A 
ATOM     42  C   UNL     1      -8.282   2.930 123.024  0.00  0.00    +0.000 A 
ATOM     43  C   UNL     1      -7.819   2.648 124.316  0.00  0.00    +0.000 A 
BRANCH  43  44
ATOM     44  C   UNL     1      -6.695   3.481 124.905  0.00  0.00    +0.000 C 
ATOM     45  F   UNL     1      -6.330   4.488 124.070  0.00  0.00    +0.000 F 
ATOM     46  F   UNL     1      -7.091   4.065 126.070  0.00  0.00    +0.000 F 
ATOM     47  F   UNL     1      -5.533   2.856 125.228  0.00  0.00    +0.000 F 
ENDBRANCH  43  44
ENDBRANCH  36  37
ENDBRANCH  33  36
ENDBRANCH  29  30
ENDBRANCH   3  29
TORSDOF 8
ENDMDL
MODEL 9
REMARK VINA RESULT:      -9.3      3.371      8.284
REMARK  Name = CHEMBL71540
REMARK  9 active torsions:
REMARK  status: ('A' for Active; 'I' for Inactive)
REMARK    1  A    between atoms: C_1  and  O_2
REMARK    2  A    between atoms: O_2  and  C_3
REMARK    3  A    between atoms: C_5  and  O_6
REMARK    4  A    between atoms: O_6  and  C_7
REMARK    5  A    between atoms: N_10  and  C_11
REMARK    6  A    between atoms: C_11  and  C_12
REMARK    7  A    between atoms: C_18  and  C_19
REMARK    8  A    between atoms: C_28  and  C_29
REMARK    9  A    between atoms: C_34  and  N_35
REMARK                            x       y       z     vdW  Elec       q    Type
REMARK                         _______ _______ _______ _____ _____    ______ ____
ROOT
ATOM      1  C   UNL     1      -7.446   1.322 129.758  0.00  0.00    +0.000 A 
ATOM      2  C   UNL     1      -7.708  -0.081 129.507  0.00  0.00    +0.000 A 
ATOM      3  C   UNL     1      -7.981  -0.905 130.544  0.00  0.00    +0.000 A 
ATOM      4  C   UNL     1      -7.904  -0.179 131.669  0.00  0.00    +0.000 A 
ATOM      5  F   UNL     1      -8.011  -0.864 132.725  0.00  0.00    +0.000 F 
ATOM      6  C   UNL     1      -7.694   1.105 132.040  0.00  0.00    +0.000 A 
ATOM      7  C   UNL     1      -7.445   1.928 131.036  0.00  0.00    +0.000 A 
ENDROOT
BRANCH   7   8
ATOM      8  C   UNL     1      -7.180   3.274 131.585  0.00  0.00    +0.000 C 
ATOM      9  O   UNL     1      -6.232   3.544 132.321  0.00  0.00    +0.000 OA
ATOM     10  N   UNL     1      -8.040   4.215 131.179  0.00  0.00    +0.000 N 
ATOM     11  C   UNL     1      -7.532   5.361 130.479  0.00  0.00    +0.000 C 
ATOM     12  C   UNL     1      -8.058   6.586 131.173  0.00  0.00    +0.000 C 
ATOM     13  C   UNL     1      -9.598   6.514 131.307  0.00  0.00    +0.000 C 
ATOM     14  C   UNL     1     -10.037   5.251 132.057  0.00  0.00    +0.000 C 
ATOM     15  C   UNL     1      -9.447   4.049 131.406  0.00  0.00    +0.000 C 
BRANCH  13  16
ATOM     16  N   UNL     1     -10.286   6.762 129.994  0.00  0.00    +0.000 N 
ATOM     17  C   UNL     1      -9.872   6.258 128.756  0.00  0.00    +0.000 C 
ATOM     18  O   UNL     1      -9.716   5.093 128.430  0.00  0.00    +0.000 OA
ATOM     19  O   UNL     1      -9.636   7.229 127.839  0.00  0.00    +0.000 OA
ATOM     20  C   UNL     1     -10.859   7.814 127.447  0.00  0.00    +0.000 C 
ATOM     21  C   UNL     1     -11.655   8.227 128.646  0.00  0.00    +0.000 A 
ATOM     22  C   UNL     1     -12.725   9.104 128.484  0.00  0.00    +0.000 A 
ATOM     23  C   UNL     1     -13.484   9.473 129.587  0.00  0.00    +0.000 A 
ATOM     24  C   UNL     1     -13.184   8.959 130.845  0.00  0.00    +0.000 A 
ATOM     25  C   UNL     1     -12.115   8.082 131.013  0.00  0.00    +0.000 A 
ATOM     26  C   UNL     1     -11.336   7.715 129.915  0.00  0.00    +0.000 A 
ENDBRANCH  13  16
ENDBRANCH   7   8
BRANCH   1  28
ATOM     27  C   UNL     1      -8.266   2.107 127.799  0.00  0.00    +0.000 C 
ATOM     28  O   UNL     1      -7.137   2.066 128.667  0.00  0.00    +0.000 OA
ENDBRANCH   1  28
BRANCH   3  29
ATOM     29  O   UNL     1      -8.255  -2.237 130.471  0.00  0.00    +0.000 OA
BRANCH  29  30
ATOM     30  C   UNL     1      -7.579  -3.239 129.604  0.00  0.00    +0.000 C 
ATOM     31  C   UNL     1      -6.052  -3.113 129.381  0.00  0.00    +0.000 C 
ATOM     32  C   UNL     1      -5.656  -2.135 128.282  0.00  0.00    +0.000 C 
ATOM     33  N   UNL     1      -6.480  -2.332 126.977  0.00  0.00    +0.000 NA
ATOM     34  C   UNL     1      -7.971  -2.694 127.161  0.00  0.00    +0.000 C 
ATOM     35  C   UNL     1      -8.286  -3.624 128.299  0.00  0.00    +0.000 C 
BRANCH  33  36
ATOM     36  C   UNL     1      -6.402  -1.032 126.239  0.00  0.00    +0.000 C 
BRANCH  36  37
ATOM     37  C   UNL     1      -7.229  -0.964 125.000  0.00  0.00    +0.000 A 
ATOM     38  C   UNL     1      -8.337  -0.078 124.953  0.00  0.00    +0.000 A 
ATOM     39  N   UNL     1      -9.303  -0.169 123.986  0.00  0.00    +0.000 N 
ATOM     40  O   UNL     1     -10.380   0.490 124.076  0.00  0.00    +0.000 OA
ATOM     41  C   UNL     1      -9.058  -1.016 122.936  0.00  0.00    +0.000 A 
ATOM     42  C   UNL     1      -7.873  -1.761 122.864  0.00  0.00    +0.000 A 
ATOM     43  C   UNL     1      -6.939  -1.761 123.907  0.00  0.00    +0.000 A 
BRANCH  43  44
ATOM     44  C   UNL     1      -5.676  -2.595 123.780  0.00  0.00    +0.000 C 
ATOM     45  F   UNL     1      -5.860  -3.852 124.258  0.00  0.00    +0.000 F 
ATOM     46  F   UNL     1      -5.315  -2.722 122.474  0.00  0.00    +0.000 F 
ATOM     47  F   UNL     1      -4.548  -2.150 124.392  0.00  0.00    +0.000 F 
ENDBRANCH  43  44
ENDBRANCH  36  37
ENDBRANCH  33  36
ENDBRANCH  29  30
ENDBRANCH   3  29
TORSDOF 8
ENDMDL
