MODEL 1
REMARK VINA RESULT:      -7.7      0.000      0.000
REMARK  Name = CHEMBL467185
REMARK  10 active torsions:
REMARK  status: ('A' for Active; 'I' for Inactive)
REMARK    1  A    between atoms: C_1  and  O_2
REMARK    2  A    between atoms: O_2  and  C_3
REMARK    3  A    between atoms: C_3  and  C_4
REMARK    4  A    between atoms: C_7  and  C_8
REMARK    5  A    between atoms: C_11  and  C_12
REMARK    6  A    between atoms: C_17  and  O_18
REMARK    7  A    between atoms: O_18  and  C_19
REMARK    8  A    between atoms: N_22  and  C_23
REMARK    9  A    between atoms: C_26  and  O_27
REMARK   10  A    between atoms: O_27  and  C_28
REMARK                            x       y       z     vdW  Elec       q    Type
REMARK                         _______ _______ _______ _____ _____    ______ ____
ROOT
ATOM      1  C   UNL     1      -8.884  -1.747 123.370  0.00  0.00    +0.000 A 
ATOM      2  N   UNL     1      -8.941  -3.056 123.187  0.00  0.00    +0.000 NA
ATOM      3  N   UNL     1      -8.465  -3.679 124.327  0.00  0.00    +0.000 NA
ATOM      4  C   UNL     1      -8.138  -2.744 125.202  0.00  0.00    +0.000 A 
ATOM      5  N   UNL     1      -8.361  -1.508 124.617  0.00  0.00    +0.000 N 
ENDROOT
BRANCH   4   6
ATOM      6  C   UNL     1      -7.729  -2.907 126.599  0.00  0.00    +0.000 A 
ATOM      7  C   UNL     1      -6.511  -2.420 127.073  0.00  0.00    +0.000 A 
ATOM      8  C   UNL     1      -6.192  -2.548 128.431  0.00  0.00    +0.000 A 
ATOM      9  C   UNL     1      -7.133  -3.039 129.355  0.00  0.00    +0.000 A 
ATOM     10  C   UNL     1      -8.407  -3.362 128.890  0.00  0.00    +0.000 A 
ATOM     11  C   UNL     1      -8.646  -3.433 127.522  0.00  0.00    +0.000 A 
BRANCH   9  12
ATOM     12  C   UNL     1      -6.757  -3.281 130.755  0.00  0.00    +0.000 A 
ATOM     13  C   UNL     1      -5.927  -4.399 131.004  0.00  0.00    +0.000 A 
ATOM     14  C   UNL     1      -5.592  -4.796 132.297  0.00  0.00    +0.000 A 
ATOM     15  C   UNL     1      -6.022  -4.040 133.377  0.00  0.00    +0.000 A 
ATOM     16  C   UNL     1      -6.814  -2.913 133.159  0.00  0.00    +0.000 A 
ATOM     17  C   UNL     1      -7.209  -2.525 131.864  0.00  0.00    +0.000 A 
BRANCH  17  18
ATOM     18  O   UNL     1      -8.045  -1.436 131.915  0.00  0.00    +0.000 OA
ATOM     19  C   UNL     1      -7.595  -0.202 132.443  0.00  0.00    +0.000 C 
ENDBRANCH  17  18
ENDBRANCH   9  12
ENDBRANCH   4   6
BRANCH   5  20
ATOM     20  C   UNL     1      -8.168  -0.266 125.245  0.00  0.00    +0.000 A 
ATOM     21  C   UNL     1      -7.032   0.485 124.970  0.00  0.00    +0.000 A 
ATOM     22  C   UNL     1      -6.946   1.761 125.512  0.00  0.00    +0.000 A 
ATOM     23  C   UNL     1      -7.996   2.242 126.289  0.00  0.00    +0.000 A 
ATOM     24  N   UNL     1      -9.111   1.523 126.533  0.00  0.00    +0.000 NA
ATOM     25  C   UNL     1      -9.187   0.286 126.002  0.00  0.00    +0.000 A 
BRANCH  23  26
ATOM     26  O   UNL     1      -8.024   3.475 126.875  0.00  0.00    +0.000 OA
ATOM     27  C   UNL     1      -7.960   4.585 125.994  0.00  0.00    +0.000 C 
ENDBRANCH  23  26
ENDBRANCH   5  20
BRANCH   1  28
ATOM     28  C   UNL     1      -9.268  -0.674 122.410  0.00  0.00    +0.000 C 
BRANCH  28  30
ATOM     29  C   UNL     1     -10.542   1.245 122.895  0.00  0.00    +0.000 C 
ATOM     30  O   UNL     1     -10.559  -0.176 122.771  0.00  0.00    +0.000 OA
ENDBRANCH  28  30
ENDBRANCH   1  28
TORSDOF 7
ENDMDL
MODEL 2
REMARK VINA RESULT:      -7.6      2.425      4.104
REMARK  Name = CHEMBL467185
REMARK  10 active torsions:
REMARK  status: ('A' for Active; 'I' for Inactive)
REMARK    1  A    between atoms: C_1  and  O_2
REMARK    2  A    between atoms: O_2  and  C_3
REMARK    3  A    between atoms: C_3  and  C_4
REMARK    4  A    between atoms: C_7  and  C_8
REMARK    5  A    between atoms: C_11  and  C_12
REMARK    6  A    between atoms: C_17  and  O_18
REMARK    7  A    between atoms: O_18  and  C_19
REMARK    8  A    between atoms: N_22  and  C_23
REMARK    9  A    between atoms: C_26  and  O_27
REMARK   10  A    between atoms: O_27  and  C_28
REMARK                            x       y       z     vdW  Elec       q    Type
REMARK                         _______ _______ _______ _____ _____    ______ ____
ROOT
ATOM      1  C   UNL     1      -8.588   0.959 124.698  0.00  0.00    +0.000 A 
ATOM      2  N   UNL     1      -9.194   1.775 125.545  0.00  0.00    +0.000 NA
ATOM      3  N   UNL     1      -9.064   1.256 126.821  0.00  0.00    +0.000 NA
ATOM      4  C   UNL     1      -8.365   0.137 126.743  0.00  0.00    +0.000 A 
ATOM      5  N   UNL     1      -8.073  -0.097 125.409  0.00  0.00    +0.000 N 
ENDROOT
BRANCH   4   6
ATOM      6  C   UNL     1      -7.846  -0.691 127.833  0.00  0.00    +0.000 A 
ATOM      7  C   UNL     1      -7.042  -0.164 128.843  0.00  0.00    +0.000 A 
ATOM      8  C   UNL     1      -6.620  -0.985 129.897  0.00  0.00    +0.000 A 
ATOM      9  C   UNL     1      -7.101  -2.300 130.030  0.00  0.00    +0.000 A 
ATOM     10  C   UNL     1      -8.039  -2.756 129.104  0.00  0.00    +0.000 A 
ATOM     11  C   UNL     1      -8.288  -2.018 127.952  0.00  0.00    +0.000 A 
BRANCH   9  12
ATOM     12  C   UNL     1      -6.568  -3.194 131.067  0.00  0.00    +0.000 A 
ATOM     13  C   UNL     1      -7.203  -3.147 132.331  0.00  0.00    +0.000 A 
ATOM     14  C   UNL     1      -6.723  -3.866 133.425  0.00  0.00    +0.000 A 
ATOM     15  C   UNL     1      -5.632  -4.707 133.264  0.00  0.00    +0.000 A 
ATOM     16  C   UNL     1      -5.007  -4.797 132.021  0.00  0.00    +0.000 A 
ATOM     17  C   UNL     1      -5.443  -4.041 130.917  0.00  0.00    +0.000 A 
BRANCH  17  18
ATOM     18  O   UNL     1      -4.623  -4.244 129.832  0.00  0.00    +0.000 OA
ATOM     19  C   UNL     1      -3.546  -3.365 129.564  0.00  0.00    +0.000 C 
ENDBRANCH  17  18
ENDBRANCH   9  12
ENDBRANCH   4   6
BRANCH   5  20
ATOM     20  C   UNL     1      -7.312  -1.173 124.920  0.00  0.00    +0.000 A 
ATOM     21  C   UNL     1      -5.925  -1.130 124.981  0.00  0.00    +0.000 A 
ATOM     22  C   UNL     1      -5.219  -2.267 124.607  0.00  0.00    +0.000 A 
ATOM     23  C   UNL     1      -5.920  -3.399 124.204  0.00  0.00    +0.000 A 
ATOM     24  N   UNL     1      -7.268  -3.450 124.172  0.00  0.00    +0.000 NA
ATOM     25  C   UNL     1      -7.945  -2.343 124.537  0.00  0.00    +0.000 A 
BRANCH  23  26
ATOM     26  O   UNL     1      -5.338  -4.572 123.813  0.00  0.00    +0.000 OA
ATOM     27  C   UNL     1      -3.950  -4.515 123.531  0.00  0.00    +0.000 C 
ENDBRANCH  23  26
ENDBRANCH   5  20
BRANCH   1  28
ATOM     28  C   UNL     1      -8.485   1.093 123.217  0.00  0.00    +0.000 C 
BRANCH  28  30
ATOM     29  C   UNL     1      -8.457   3.154 122.081  0.00  0.00    +0.000 C 
ATOM     30  O   UNL     1      -9.259   2.222 122.804  0.00  0.00    +0.000 OA
ENDBRANCH  28  30
ENDBRANCH   1  28
TORSDOF 7
ENDMDL
MODEL 3
REMARK VINA RESULT:      -7.5      6.365      9.518
REMARK  Name = CHEMBL467185
REMARK  10 active torsions:
REMARK  status: ('A' for Active; 'I' for Inactive)
REMARK    1  A    between atoms: C_1  and  O_2
REMARK    2  A    between atoms: O_2  and  C_3
REMARK    3  A    between atoms: C_3  and  C_4
REMARK    4  A    between atoms: C_7  and  C_8
REMARK    5  A    between atoms: C_11  and  C_12
REMARK    6  A    between atoms: C_17  and  O_18
REMARK    7  A    between atoms: O_18  and  C_19
REMARK    8  A    between atoms: N_22  and  C_23
REMARK    9  A    between atoms: C_26  and  O_27
REMARK   10  A    between atoms: O_27  and  C_28
REMARK                            x       y       z     vdW  Elec       q    Type
REMARK                         _______ _______ _______ _____ _____    ______ ____
ROOT
ATOM      1  C   UNL     1     -10.935   5.547 131.048  0.00  0.00    +0.000 A 
ATOM      2  N   UNL     1     -11.148   6.305 132.111  0.00  0.00    +0.000 NA
ATOM      3  N   UNL     1      -9.928   6.597 132.693  0.00  0.00    +0.000 NA
ATOM      4  C   UNL     1      -8.978   6.029 131.969  0.00  0.00    +0.000 A 
ATOM      5  N   UNL     1      -9.583   5.330 130.937  0.00  0.00    +0.000 N 
ENDROOT
BRANCH   4   6
ATOM      6  C   UNL     1      -7.527   6.171 132.097  0.00  0.00    +0.000 A 
ATOM      7  C   UNL     1      -6.784   5.396 132.986  0.00  0.00    +0.000 A 
ATOM      8  C   UNL     1      -5.390   5.528 133.027  0.00  0.00    +0.000 A 
ATOM      9  C   UNL     1      -4.708   6.332 132.096  0.00  0.00    +0.000 A 
ATOM     10  C   UNL     1      -5.454   6.968 131.104  0.00  0.00    +0.000 A 
ATOM     11  C   UNL     1      -6.841   7.003 131.197  0.00  0.00    +0.000 A 
BRANCH   9  12
ATOM     12  C   UNL     1      -3.262   6.560 132.215  0.00  0.00    +0.000 A 
ATOM     13  C   UNL     1      -2.827   7.301 133.339  0.00  0.00    +0.000 A 
ATOM     14  C   UNL     1      -1.495   7.675 133.507  0.00  0.00    +0.000 A 
ATOM     15  C   UNL     1      -0.547   7.257 132.585  0.00  0.00    +0.000 A 
ATOM     16  C   UNL     1      -0.942   6.498 131.484  0.00  0.00    +0.000 A 
ATOM     17  C   UNL     1      -2.290   6.154 131.268  0.00  0.00    +0.000 A 
BRANCH  17  18
ATOM     18  O   UNL     1      -2.436   5.474 130.083  0.00  0.00    +0.000 OA
ATOM     19  C   UNL     1      -2.311   6.146 128.842  0.00  0.00    +0.000 C 
ENDBRANCH  17  18
ENDBRANCH   9  12
ENDBRANCH   4   6
BRANCH   5  20
ATOM     20  C   UNL     1      -8.906   4.622 129.930  0.00  0.00    +0.000 A 
ATOM     21  C   UNL     1      -8.621   3.273 130.097  0.00  0.00    +0.000 A 
ATOM     22  C   UNL     1      -8.068   2.584 129.025  0.00  0.00    +0.000 A 
ATOM     23  C   UNL     1      -7.836   3.259 127.831  0.00  0.00    +0.000 A 
ATOM     24  N   UNL     1      -8.140   4.563 127.659  0.00  0.00    +0.000 NA
ATOM     25  C   UNL     1      -8.677   5.223 128.704  0.00  0.00    +0.000 A 
BRANCH  23  26
ATOM     26  O   UNL     1      -7.297   2.691 126.712  0.00  0.00    +0.000 OA
ATOM     27  C   UNL     1      -7.184   1.278 126.722  0.00  0.00    +0.000 C 
ENDBRANCH  23  26
ENDBRANCH   5  20
BRANCH   1  28
ATOM     28  C   UNL     1     -11.949   4.969 130.121  0.00  0.00    +0.000 C 
BRANCH  28  30
ATOM     29  C   UNL     1     -13.040   6.877 129.281  0.00  0.00    +0.000 C 
ATOM     30  O   UNL     1     -12.097   5.844 129.000  0.00  0.00    +0.000 OA
ENDBRANCH  28  30
ENDBRANCH   1  28
TORSDOF 7
ENDMDL
MODEL 4
REMARK VINA RESULT:      -7.4      3.194      7.621
REMARK  Name = CHEMBL467185
REMARK  10 active torsions:
REMARK  status: ('A' for Active; 'I' for Inactive)
REMARK    1  A    between atoms: C_1  and  O_2
REMARK    2  A    between atoms: O_2  and  C_3
REMARK    3  A    between atoms: C_3  and  C_4
REMARK    4  A    between atoms: C_7  and  C_8
REMARK    5  A    between atoms: C_11  and  C_12
REMARK    6  A    between atoms: C_17  and  O_18
REMARK    7  A    between atoms: O_18  and  C_19
REMARK    8  A    between atoms: N_22  and  C_23
REMARK    9  A    between atoms: C_26  and  O_27
REMARK   10  A    between atoms: O_27  and  C_28
REMARK                            x       y       z     vdW  Elec       q    Type
REMARK                         _______ _______ _______ _____ _____    ______ ____
ROOT
ATOM      1  C   UNL     1      -6.057  -2.690 132.960  0.00  0.00    +0.000 A 
ATOM      2  N   UNL     1      -5.669  -3.917 132.655  0.00  0.00    +0.000 NA
ATOM      3  N   UNL     1      -6.043  -4.183 131.350  0.00  0.00    +0.000 NA
ATOM      4  C   UNL     1      -6.641  -3.108 130.865  0.00  0.00    +0.000 A 
ATOM      5  N   UNL     1      -6.695  -2.155 131.868  0.00  0.00    +0.000 N 
ENDROOT
BRANCH   4   6
ATOM      6  C   UNL     1      -7.079  -2.851 129.491  0.00  0.00    +0.000 A 
ATOM      7  C   UNL     1      -6.231  -2.289 128.538  0.00  0.00    +0.000 A 
ATOM      8  C   UNL     1      -6.679  -2.119 127.222  0.00  0.00    +0.000 A 
ATOM      9  C   UNL     1      -7.924  -2.627 126.807  0.00  0.00    +0.000 A 
ATOM     10  C   UNL     1      -8.688  -3.337 127.733  0.00  0.00    +0.000 A 
ATOM     11  C   UNL     1      -8.337  -3.318 129.078  0.00  0.00    +0.000 A 
BRANCH   9  12
ATOM     12  C   UNL     1      -8.440  -2.345 125.460  0.00  0.00    +0.000 A 
ATOM     13  C   UNL     1      -8.834  -3.462 124.687  0.00  0.00    +0.000 A 
ATOM     14  C   UNL     1      -9.238  -3.335 123.359  0.00  0.00    +0.000 A 
ATOM     15  C   UNL     1      -9.324  -2.073 122.788  0.00  0.00    +0.000 A 
ATOM     16  C   UNL     1      -8.972  -0.951 123.539  0.00  0.00    +0.000 A 
ATOM     17  C   UNL     1      -8.512  -1.062 124.865  0.00  0.00    +0.000 A 
BRANCH  17  18
ATOM     18  O   UNL     1      -8.158   0.169 125.362  0.00  0.00    +0.000 OA
ATOM     19  C   UNL     1      -9.070   0.928 126.136  0.00  0.00    +0.000 C 
ENDBRANCH  17  18
ENDBRANCH   9  12
ENDBRANCH   4   6
BRANCH   5  20
ATOM     20  C   UNL     1      -7.225  -0.860 131.731  0.00  0.00    +0.000 A 
ATOM     21  C   UNL     1      -8.574  -0.630 131.967  0.00  0.00    +0.000 A 
ATOM     22  C   UNL     1      -9.026   0.683 131.946  0.00  0.00    +0.000 A 
ATOM     23  C   UNL     1      -8.118   1.710 131.708  0.00  0.00    +0.000 A 
ATOM     24  N   UNL     1      -6.802   1.489 131.506  0.00  0.00    +0.000 NA
ATOM     25  C   UNL     1      -6.372   0.212 131.529  0.00  0.00    +0.000 A 
BRANCH  23  26
ATOM     26  O   UNL     1      -8.444   3.036 131.661  0.00  0.00    +0.000 OA
ATOM     27  C   UNL     1      -8.919   3.604 132.870  0.00  0.00    +0.000 C 
ENDBRANCH  23  26
ENDBRANCH   5  20
BRANCH   1  28
ATOM     28  C   UNL     1      -5.893  -1.977 134.259  0.00  0.00    +0.000 C 
BRANCH  28  30
ATOM     29  C   UNL     1      -7.300  -3.076 135.792  0.00  0.00    +0.000 C 
ATOM     30  O   UNL     1      -7.155  -1.950 134.929  0.00  0.00    +0.000 OA
ENDBRANCH  28  30
ENDBRANCH   1  28
TORSDOF 7
ENDMDL
MODEL 5
REMARK VINA RESULT:      -7.4      4.464      6.782
REMARK  Name = CHEMBL467185
REMARK  10 active torsions:
REMARK  status: ('A' for Active; 'I' for Inactive)
REMARK    1  A    between atoms: C_1  and  O_2
REMARK    2  A    between atoms: O_2  and  C_3
REMARK    3  A    between atoms: C_3  and  C_4
REMARK    4  A    between atoms: C_7  and  C_8
REMARK    5  A    between atoms: C_11  and  C_12
REMARK    6  A    between atoms: C_17  and  O_18
REMARK    7  A    between atoms: O_18  and  C_19
REMARK    8  A    between atoms: N_22  and  C_23
REMARK    9  A    between atoms: C_26  and  O_27
REMARK   10  A    between atoms: O_27  and  C_28
REMARK                            x       y       z     vdW  Elec       q    Type
REMARK                         _______ _______ _______ _____ _____    ______ ____
ROOT
ATOM      1  C   UNL     1     -10.132   5.532 130.419  0.00  0.00    +0.000 A 
ATOM      2  N   UNL     1     -11.276   4.926 130.148  0.00  0.00    +0.000 NA
ATOM      3  N   UNL     1     -11.042   3.565 130.063  0.00  0.00    +0.000 NA
ATOM      4  C   UNL     1      -9.760   3.351 130.301  0.00  0.00    +0.000 A 
ATOM      5  N   UNL     1      -9.147   4.578 130.500  0.00  0.00    +0.000 N 
ENDROOT
BRANCH   4   6
ATOM      6  C   UNL     1      -9.065   2.073 130.467  0.00  0.00    +0.000 A 
ATOM      7  C   UNL     1      -9.226   1.287 131.607  0.00  0.00    +0.000 A 
ATOM      8  C   UNL     1      -8.586   0.043 131.691  0.00  0.00    +0.000 A 
ATOM      9  C   UNL     1      -7.890  -0.491 130.592  0.00  0.00    +0.000 A 
ATOM     10  C   UNL     1      -7.883   0.234 129.401  0.00  0.00    +0.000 A 
ATOM     11  C   UNL     1      -8.334   1.550 129.389  0.00  0.00    +0.000 A 
BRANCH   9  12
ATOM     12  C   UNL     1      -7.124  -1.738 130.721  0.00  0.00    +0.000 A 
ATOM     13  C   UNL     1      -5.949  -1.681 131.507  0.00  0.00    +0.000 A 
ATOM     14  C   UNL     1      -5.081  -2.767 131.616  0.00  0.00    +0.000 A 
ATOM     15  C   UNL     1      -5.403  -3.964 130.996  0.00  0.00    +0.000 A 
ATOM     16  C   UNL     1      -6.573  -4.058 130.242  0.00  0.00    +0.000 A 
ATOM     17  C   UNL     1      -7.436  -2.959 130.075  0.00  0.00    +0.000 A 
BRANCH  17  18
ATOM     18  O   UNL     1      -8.473  -3.277 129.231  0.00  0.00    +0.000 OA
ATOM     19  C   UNL     1      -8.302  -3.234 127.826  0.00  0.00    +0.000 C 
ENDBRANCH  17  18
ENDBRANCH   9  12
ENDBRANCH   4   6
BRANCH   5  20
ATOM     20  C   UNL     1      -7.791   4.767 130.817  0.00  0.00    +0.000 A 
ATOM     21  C   UNL     1      -7.363   4.671 132.135  0.00  0.00    +0.000 A 
ATOM     22  C   UNL     1      -5.998   4.737 132.384  0.00  0.00    +0.000 A 
ATOM     23  C   UNL     1      -5.118   4.877 131.316  0.00  0.00    +0.000 A 
ATOM     24  N   UNL     1      -5.532   4.942 130.033  0.00  0.00    +0.000 NA
ATOM     25  C   UNL     1      -6.859   4.877 129.800  0.00  0.00    +0.000 A 
BRANCH  23  26
ATOM     26  O   UNL     1      -3.760   4.955 131.436  0.00  0.00    +0.000 OA
ATOM     27  C   UNL     1      -3.014   4.694 130.258  0.00  0.00    +0.000 C 
ENDBRANCH  23  26
ENDBRANCH   5  20
BRANCH   1  28
ATOM     28  C   UNL     1      -9.888   6.994 130.580  0.00  0.00    +0.000 C 
BRANCH  28  30
ATOM     29  C   UNL     1     -10.489   8.171 128.633  0.00  0.00    +0.000 C 
ATOM     30  O   UNL     1      -9.430   7.522 129.334  0.00  0.00    +0.000 OA
ENDBRANCH  28  30
ENDBRANCH   1  28
TORSDOF 7
ENDMDL
MODEL 6
REMARK VINA RESULT:      -7.3      1.591      1.938
REMARK  Name = CHEMBL467185
REMARK  10 active torsions:
REMARK  status: ('A' for Active; 'I' for Inactive)
REMARK    1  A    between atoms: C_1  and  O_2
REMARK    2  A    between atoms: O_2  and  C_3
REMARK    3  A    between atoms: C_3  and  C_4
REMARK    4  A    between atoms: C_7  and  C_8
REMARK    5  A    between atoms: C_11  and  C_12
REMARK    6  A    between atoms: C_17  and  O_18
REMARK    7  A    between atoms: O_18  and  C_19
REMARK    8  A    between atoms: N_22  and  C_23
REMARK    9  A    between atoms: C_26  and  O_27
REMARK   10  A    between atoms: O_27  and  C_28
REMARK                            x       y       z     vdW  Elec       q    Type
REMARK                         _______ _______ _______ _____ _____    ______ ____
ROOT
ATOM      1  C   UNL     1      -6.898  -0.409 124.078  0.00  0.00    +0.000 A 
ATOM      2  N   UNL     1      -6.528  -1.594 123.619  0.00  0.00    +0.000 NA
ATOM      3  N   UNL     1      -6.253  -2.414 124.699  0.00  0.00    +0.000 NA
ATOM      4  C   UNL     1      -6.474  -1.728 125.807  0.00  0.00    +0.000 A 
ATOM      5  N   UNL     1      -6.853  -0.444 125.450  0.00  0.00    +0.000 N 
ENDROOT
BRANCH   4   6
ATOM      6  C   UNL     1      -6.464  -2.204 127.191  0.00  0.00    +0.000 A 
ATOM      7  C   UNL     1      -7.582  -2.797 127.777  0.00  0.00    +0.000 A 
ATOM      8  C   UNL     1      -7.502  -3.291 129.085  0.00  0.00    +0.000 A 
ATOM      9  C   UNL     1      -6.278  -3.323 129.776  0.00  0.00    +0.000 A 
ATOM     10  C   UNL     1      -5.134  -2.882 129.111  0.00  0.00    +0.000 A 
ATOM     11  C   UNL     1      -5.255  -2.203 127.904  0.00  0.00    +0.000 A 
BRANCH   9  12
ATOM     12  C   UNL     1      -6.220  -3.732 131.186  0.00  0.00    +0.000 A 
ATOM     13  C   UNL     1      -5.425  -4.863 131.486  0.00  0.00    +0.000 A 
ATOM     14  C   UNL     1      -5.376  -5.413 132.765  0.00  0.00    +0.000 A 
ATOM     15  C   UNL     1      -6.070  -4.803 133.799  0.00  0.00    +0.000 A 
ATOM     16  C   UNL     1      -6.837  -3.667 133.539  0.00  0.00    +0.000 A 
ATOM     17  C   UNL     1      -6.942  -3.126 132.243  0.00  0.00    +0.000 A 
BRANCH  17  18
ATOM     18  O   UNL     1      -7.811  -2.061 132.228  0.00  0.00    +0.000 OA
ATOM     19  C   UNL     1      -7.387  -0.775 132.641  0.00  0.00    +0.000 C 
ENDBRANCH  17  18
ENDBRANCH   9  12
ENDBRANCH   4   6
BRANCH   5  20
ATOM     20  C   UNL     1      -7.210   0.577 126.348  0.00  0.00    +0.000 A 
ATOM     21  C   UNL     1      -6.268   1.517 126.744  0.00  0.00    +0.000 A 
ATOM     22  C   UNL     1      -6.697   2.580 127.529  0.00  0.00    +0.000 A 
ATOM     23  C   UNL     1      -8.042   2.672 127.872  0.00  0.00    +0.000 A 
ATOM     24  N   UNL     1      -8.963   1.773 127.464  0.00  0.00    +0.000 NA
ATOM     25  C   UNL     1      -8.538   0.745 126.702  0.00  0.00    +0.000 A 
BRANCH  23  26
ATOM     26  O   UNL     1      -8.581   3.667 128.638  0.00  0.00    +0.000 OA
ATOM     27  C   UNL     1      -7.656   4.494 129.324  0.00  0.00    +0.000 C 
ENDBRANCH  23  26
ENDBRANCH   5  20
BRANCH   1  28
ATOM     28  C   UNL     1      -7.269   0.800 123.288  0.00  0.00    +0.000 C 
BRANCH  28  30
ATOM     29  C   UNL     1      -9.179   2.170 123.186  0.00  0.00    +0.000 C 
ATOM     30  O   UNL     1      -8.690   0.831 123.139  0.00  0.00    +0.000 OA
ENDBRANCH  28  30
ENDBRANCH   1  28
TORSDOF 7
ENDMDL
MODEL 7
REMARK VINA RESULT:      -7.3      5.007      6.791
REMARK  Name = CHEMBL467185
REMARK  10 active torsions:
REMARK  status: ('A' for Active; 'I' for Inactive)
REMARK    1  A    between atoms: C_1  and  O_2
REMARK    2  A    between atoms: O_2  and  C_3
REMARK    3  A    between atoms: C_3  and  C_4
REMARK    4  A    between atoms: C_7  and  C_8
REMARK    5  A    between atoms: C_11  and  C_12
REMARK    6  A    between atoms: C_17  and  O_18
REMARK    7  A    between atoms: O_18  and  C_19
REMARK    8  A    between atoms: N_22  and  C_23
REMARK    9  A    between atoms: C_26  and  O_27
REMARK   10  A    between atoms: O_27  and  C_28
REMARK                            x       y       z     vdW  Elec       q    Type
REMARK                         _______ _______ _______ _____ _____    ______ ____
ROOT
ATOM      1  C   UNL     1     -10.341   5.746 130.261  0.00  0.00    +0.000 A 
ATOM      2  N   UNL     1     -11.478   5.136 129.968  0.00  0.00    +0.000 NA
ATOM      3  N   UNL     1     -11.263   3.770 129.999  0.00  0.00    +0.000 NA
ATOM      4  C   UNL     1     -10.000   3.558 130.328  0.00  0.00    +0.000 A 
ATOM      5  N   UNL     1      -9.379   4.788 130.471  0.00  0.00    +0.000 N 
ENDROOT
BRANCH   4   6
ATOM      6  C   UNL     1      -9.338   2.287 130.629  0.00  0.00    +0.000 A 
ATOM      7  C   UNL     1      -9.668   1.530 131.752  0.00  0.00    +0.000 A 
ATOM      8  C   UNL     1      -9.048   0.292 131.963  0.00  0.00    +0.000 A 
ATOM      9  C   UNL     1      -8.196  -0.268 130.995  0.00  0.00    +0.000 A 
ATOM     10  C   UNL     1      -8.010   0.426 129.799  0.00  0.00    +0.000 A 
ATOM     11  C   UNL     1      -8.454   1.739 129.686  0.00  0.00    +0.000 A 
BRANCH   9  12
ATOM     12  C   UNL     1      -7.458  -1.509 131.269  0.00  0.00    +0.000 A 
ATOM     13  C   UNL     1      -7.304  -2.407 130.187  0.00  0.00    +0.000 A 
ATOM     14  C   UNL     1      -6.719  -3.662 130.347  0.00  0.00    +0.000 A 
ATOM     15  C   UNL     1      -6.209  -4.026 131.584  0.00  0.00    +0.000 A 
ATOM     16  C   UNL     1      -6.318  -3.147 132.661  0.00  0.00    +0.000 A 
ATOM     17  C   UNL     1      -6.952  -1.896 132.534  0.00  0.00    +0.000 A 
BRANCH  17  18
ATOM     18  O   UNL     1      -7.002  -1.249 133.746  0.00  0.00    +0.000 OA
ATOM     19  C   UNL     1      -6.012  -0.302 134.103  0.00  0.00    +0.000 C 
ENDBRANCH  17  18
ENDBRANCH   9  12
ENDBRANCH   4   6
BRANCH   5  20
ATOM     20  C   UNL     1      -8.040   4.983 130.852  0.00  0.00    +0.000 A 
ATOM     21  C   UNL     1      -7.691   4.986 132.196  0.00  0.00    +0.000 A 
ATOM     22  C   UNL     1      -6.342   5.053 132.520  0.00  0.00    +0.000 A 
ATOM     23  C   UNL     1      -5.399   5.096 131.498  0.00  0.00    +0.000 A 
ATOM     24  N   UNL     1      -5.737   5.064 130.192  0.00  0.00    +0.000 NA
ATOM     25  C   UNL     1      -7.048   4.999 129.886  0.00  0.00    +0.000 A 
BRANCH  23  26
ATOM     26  O   UNL     1      -4.049   5.164 131.692  0.00  0.00    +0.000 OA
ATOM     27  C   UNL     1      -3.241   4.722 130.614  0.00  0.00    +0.000 C 
ENDBRANCH  23  26
ENDBRANCH   5  20
BRANCH   1  28
ATOM     28  C   UNL     1     -10.081   7.212 130.327  0.00  0.00    +0.000 C 
BRANCH  28  30
ATOM     29  C   UNL     1     -10.881   8.337 128.421  0.00  0.00    +0.000 C 
ATOM     30  O   UNL     1      -9.762   7.681 129.015  0.00  0.00    +0.000 OA
ENDBRANCH  28  30
ENDBRANCH   1  28
TORSDOF 7
ENDMDL
MODEL 8
REMARK VINA RESULT:      -7.2      4.199      7.375
REMARK  Name = CHEMBL467185
REMARK  10 active torsions:
REMARK  status: ('A' for Active; 'I' for Inactive)
REMARK    1  A    between atoms: C_1  and  O_2
REMARK    2  A    between atoms: O_2  and  C_3
REMARK    3  A    between atoms: C_3  and  C_4
REMARK    4  A    between atoms: C_7  and  C_8
REMARK    5  A    between atoms: C_11  and  C_12
REMARK    6  A    between atoms: C_17  and  O_18
REMARK    7  A    between atoms: O_18  and  C_19
REMARK    8  A    between atoms: N_22  and  C_23
REMARK    9  A    between atoms: C_26  and  O_27
REMARK   10  A    between atoms: O_27  and  C_28
REMARK                            x       y       z     vdW  Elec       q    Type
REMARK                         _______ _______ _______ _____ _____    ______ ____
ROOT
ATOM      1  C   UNL     1      -4.140   4.759 128.203  0.00  0.00    +0.000 A 
ATOM      2  N   UNL     1      -3.161   4.573 127.333  0.00  0.00    +0.000 NA
ATOM      3  N   UNL     1      -3.472   3.474 126.553  0.00  0.00    +0.000 NA
ATOM      4  C   UNL     1      -4.646   3.009 126.943  0.00  0.00    +0.000 A 
ATOM      5  N   UNL     1      -5.084   3.780 128.007  0.00  0.00    +0.000 N 
ENDROOT
BRANCH   4   6
ATOM      6  C   UNL     1      -5.458   1.956 126.331  0.00  0.00    +0.000 A 
ATOM      7  C   UNL     1      -6.318   2.212 125.264  0.00  0.00    +0.000 A 
ATOM      8  C   UNL     1      -7.028   1.158 124.674  0.00  0.00    +0.000 A 
ATOM      9  C   UNL     1      -6.791  -0.177 125.047  0.00  0.00    +0.000 A 
ATOM     10  C   UNL     1      -5.802  -0.429 125.998  0.00  0.00    +0.000 A 
ATOM     11  C   UNL     1      -5.257   0.623 126.725  0.00  0.00    +0.000 A 
BRANCH   9  12
ATOM     12  C   UNL     1      -7.618  -1.267 124.511  0.00  0.00    +0.000 A 
ATOM     13  C   UNL     1      -7.588  -1.453 123.109  0.00  0.00    +0.000 A 
ATOM     14  C   UNL     1      -8.410  -2.381 122.471  0.00  0.00    +0.000 A 
ATOM     15  C   UNL     1      -9.236  -3.197 123.228  0.00  0.00    +0.000 A 
ATOM     16  C   UNL     1      -9.261  -3.057 124.616  0.00  0.00    +0.000 A 
ATOM     17  C   UNL     1      -8.479  -2.091 125.276  0.00  0.00    +0.000 A 
BRANCH  17  18
ATOM     18  O   UNL     1      -8.734  -2.096 126.626  0.00  0.00    +0.000 OA
ATOM     19  C   UNL     1      -8.235  -3.131 127.454  0.00  0.00    +0.000 C 
ENDBRANCH  17  18
ENDBRANCH   9  12
ENDBRANCH   4   6
BRANCH   5  20
ATOM     20  C   UNL     1      -6.310   3.622 128.675  0.00  0.00    +0.000 A 
ATOM     21  C   UNL     1      -6.362   2.950 129.889  0.00  0.00    +0.000 A 
ATOM     22  C   UNL     1      -7.570   2.931 130.574  0.00  0.00    +0.000 A 
ATOM     23  C   UNL     1      -8.669   3.592 130.033  0.00  0.00    +0.000 A 
ATOM     24  N   UNL     1      -8.611   4.268 128.867  0.00  0.00    +0.000 NA
ATOM     25  C   UNL     1      -7.434   4.282 128.209  0.00  0.00    +0.000 A 
BRANCH  23  26
ATOM     26  O   UNL     1      -9.905   3.641 130.611  0.00  0.00    +0.000 OA
ATOM     27  C   UNL     1     -10.592   4.877 130.508  0.00  0.00    +0.000 C 
ENDBRANCH  23  26
ENDBRANCH   5  20
BRANCH   1  28
ATOM     28  C   UNL     1      -4.236   5.806 129.260  0.00  0.00    +0.000 C 
BRANCH  28  30
ATOM     29  C   UNL     1      -3.977   8.118 129.616  0.00  0.00    +0.000 C 
ATOM     30  O   UNL     1      -4.151   7.092 128.641  0.00  0.00    +0.000 OA
ENDBRANCH  28  30
ENDBRANCH   1  28
TORSDOF 7
ENDMDL
MODEL 9
REMARK VINA RESULT:      -7.2      5.212      9.623
REMARK  Name = CHEMBL467185
REMARK  10 active torsions:
REMARK  status: ('A' for Active; 'I' for Inactive)
REMARK    1  A    between atoms: C_1  and  O_2
REMARK    2  A    between atoms: O_2  and  C_3
REMARK    3  A    between atoms: C_3  and  C_4
REMARK    4  A    between atoms: C_7  and  C_8
REMARK    5  A    between atoms: C_11  and  C_12
REMARK    6  A    between atoms: C_17  and  O_18
REMARK    7  A    between atoms: O_18  and  C_19
REMARK    8  A    between atoms: N_22  and  C_23
REMARK    9  A    between atoms: C_26  and  O_27
REMARK   10  A    between atoms: O_27  and  C_28
REMARK                            x       y       z     vdW  Elec       q    Type
REMARK                         _______ _______ _______ _____ _____    ______ ____
ROOT
ATOM      1  C   UNL     1      -6.548   1.137 132.288  0.00  0.00    +0.000 A 
ATOM      2  N   UNL     1      -7.388   0.976 133.297  0.00  0.00    +0.000 NA
ATOM      3  N   UNL     1      -8.336   1.982 133.243  0.00  0.00    +0.000 NA
ATOM      4  C   UNL     1      -8.075   2.738 132.190  0.00  0.00    +0.000 A 
ATOM      5  N   UNL     1      -6.931   2.250 131.580  0.00  0.00    +0.000 N 
ENDROOT
BRANCH   4   6
ATOM      6  C   UNL     1      -8.874   3.832 131.634  0.00  0.00    +0.000 A 
ATOM      7  C   UNL     1     -10.018   3.597 130.871  0.00  0.00    +0.000 A 
ATOM      8  C   UNL     1     -10.782   4.678 130.413  0.00  0.00    +0.000 A 
ATOM      9  C   UNL     1     -10.495   5.994 130.817  0.00  0.00    +0.000 A 
ATOM     10  C   UNL     1      -9.449   6.194 131.718  0.00  0.00    +0.000 A 
ATOM     11  C   UNL     1      -8.571   5.153 131.999  0.00  0.00    +0.000 A 
BRANCH   9  12
ATOM     12  C   UNL     1     -11.224   7.134 130.242  0.00  0.00    +0.000 A 
ATOM     13  C   UNL     1     -12.255   7.690 131.035  0.00  0.00    +0.000 A 
ATOM     14  C   UNL     1     -13.088   8.701 130.558  0.00  0.00    +0.000 A 
ATOM     15  C   UNL     1     -12.866   9.231 129.297  0.00  0.00    +0.000 A 
ATOM     16  C   UNL     1     -11.835   8.724 128.506  0.00  0.00    +0.000 A 
ATOM     17  C   UNL     1     -11.016   7.667 128.947  0.00  0.00    +0.000 A 
BRANCH  17  18
ATOM     18  O   UNL     1     -10.129   7.295 127.966  0.00  0.00    +0.000 OA
ATOM     19  C   UNL     1     -10.528   7.254 126.607  0.00  0.00    +0.000 C 
ENDBRANCH  17  18
ENDBRANCH   9  12
ENDBRANCH   4   6
BRANCH   5  20
ATOM     20  C   UNL     1      -6.354   2.764 130.407  0.00  0.00    +0.000 A 
ATOM     21  C   UNL     1      -6.853   2.395 129.164  0.00  0.00    +0.000 A 
ATOM     22  C   UNL     1      -6.338   3.025 128.039  0.00  0.00    +0.000 A 
ATOM     23  C   UNL     1      -5.361   4.004 128.197  0.00  0.00    +0.000 A 
ATOM     24  N   UNL     1      -4.896   4.383 129.406  0.00  0.00    +0.000 NA
ATOM     25  C   UNL     1      -5.403   3.766 130.492  0.00  0.00    +0.000 A 
BRANCH  23  26
ATOM     26  O   UNL     1      -4.779   4.690 127.169  0.00  0.00    +0.000 OA
ATOM     27  C   UNL     1      -3.382   4.505 127.009  0.00  0.00    +0.000 C 
ENDBRANCH  23  26
ENDBRANCH   5  20
BRANCH   1  28
ATOM     28  C   UNL     1      -5.354   0.309 131.953  0.00  0.00    +0.000 C 
BRANCH  28  30
ATOM     29  C   UNL     1      -5.580  -2.010 131.624  0.00  0.00    +0.000 C 
ATOM     30  O   UNL     1      -5.750  -0.719 131.042  0.00  0.00    +0.000 OA
ENDBRANCH  28  30
ENDBRANCH   1  28
TORSDOF 7
ENDMDL
