MODEL 1
REMARK VINA RESULT:      -9.1      0.000      0.000
REMARK  Name = CHEMBL409878
REMARK  12 active torsions:
REMARK  status: ('A' for Active; 'I' for Inactive)
REMARK    1  A    between atoms: CD1_1  and  CG_2
REMARK    2  A    between atoms: CG_2  and  CD2_3
REMARK    3  A    between atoms: CG_2  and  CB_4
REMARK    4  A    between atoms: CB_4  and  CA_5
REMARK    5  A    between atoms: C_9  and  C_10
REMARK    6  A    between atoms: N_21  and  C_22
REMARK    7  A    between atoms: C_22  and  C_23
REMARK    8  A    between atoms: C_22  and  C_29
REMARK    9  A    between atoms: N_25  and  C_26
REMARK   10  A    between atoms: C_26  and  C_27
REMARK   11  A    between atoms: C_26  and  C_28
REMARK   12  A    between atoms: C_32  and  C_33
REMARK                            x       y       z     vdW  Elec       q    Type
REMARK                         _______ _______ _______ _____ _____    ______ ____
ROOT
ATOM      1  CA  LEU A   2      -7.490   1.755 132.036  0.00  0.00    +0.000 C 
ATOM      2  C   LEU A   2      -6.948   0.344 132.381  0.00  0.00    +0.000 C 
ATOM      3  O   LEU A   2      -6.842  -0.271 133.409  0.00  0.00    +0.000 OA
ATOM      4  N   UNK A   1      -6.648  -0.367 131.296  0.00  0.00    +0.000 N 
ATOM      5  C   UNK A   1      -6.690   0.150 129.974  0.00  0.00    +0.000 C 
ATOM      6  C   UNK A   1      -6.164   1.588 129.956  0.00  0.00    +0.000 C 
ATOM      7  O   UNK A   1      -5.569   1.929 128.943  0.00  0.00    +0.000 OA
ATOM      8  N   LEU A   2      -6.488   2.393 131.070  0.00  0.00    +0.000 N 
ATOM      9  H   UNK A   1      -6.377  -1.302 131.560  0.00  0.00    +0.000 HD
ENDROOT
BRANCH   5  10
ATOM     10  C   UNK A   1      -5.775  -0.699 129.076  0.00  0.00    +0.000 C 
ATOM     11  C   UNK A   1      -6.251  -0.637 127.616  0.00  0.00    +0.000 C 
ATOM     12  C   UNK A   1      -7.167  -1.824 127.541  0.00  0.00    +0.000 A 
ATOM     13  C   UNK A   1      -8.237  -2.008 126.683  0.00  0.00    +0.000 A 
ATOM     14  C   UNK A   1      -9.067  -3.113 126.885  0.00  0.00    +0.000 A 
ATOM     15  C   UNK A   1      -8.834  -4.003 127.946  0.00  0.00    +0.000 A 
ATOM     16  C   UNK A   1      -7.771  -3.798 128.828  0.00  0.00    +0.000 A 
ATOM     17  C   UNK A   1      -6.940  -2.711 128.607  0.00  0.00    +0.000 A 
ATOM     18  C   UNK A   1      -5.829  -2.208 129.483  0.00  0.00    +0.000 C 
ENDBRANCH   5  10
BRANCH   1  19
ATOM     19  CB  LEU A   2      -7.809   2.530 133.280  0.00  0.00    +0.000 C 
BRANCH  19  21
ATOM     20  CD1 LEU A   2      -9.309   4.538 133.551  0.00  0.00    +0.000 C 
ATOM     21  CG  LEU A   2      -9.231   3.045 133.460  0.00  0.00    +0.000 C 
ATOM     22  CD2 LEU A   2     -10.065   2.654 132.272  0.00  0.00    +0.000 C 
ENDBRANCH  19  21
ENDBRANCH   1  19
BRANCH   8  23
ATOM     23  C   UNK A   0      -5.793   3.763 131.318  0.00  0.00    +0.000 C 
BRANCH  23  24
ATOM     24  C   UNK A   0      -6.741   4.957 130.928  0.00  0.00    +0.000 A 
ATOM     25  C   UNK A   0      -6.687   6.279 131.377  0.00  0.00    +0.000 A 
ATOM     26  C   UNK A   0      -7.881   7.015 131.097  0.00  0.00    +0.000 A 
ATOM     27  C   UNK A   0      -8.739   6.328 130.267  0.00  0.00    +0.000 A 
ATOM     28  S   UNK A   0      -8.155   4.775 129.949  0.00  0.00    +0.000 S 
BRANCH  27  29
ATOM     29  C   UNK A   0      -9.923   6.832 129.584  0.00  0.00    +0.000 A 
ATOM     30  C   UNK A   0     -11.108   6.124 129.741  0.00  0.00    +0.000 A 
ATOM     31  C   UNK A   0     -12.255   6.588 129.122  0.00  0.00    +0.000 A 
ATOM     32  C   UNK A   0     -12.184   7.746 128.360  0.00  0.00    +0.000 A 
ATOM     33  C   UNK A   0     -10.961   8.394 128.252  0.00  0.00    +0.000 A 
ATOM     34  N   UNK A   0      -9.823   7.965 128.847  0.00  0.00    +0.000 NA
ENDBRANCH  27  29
ENDBRANCH  23  24
BRANCH  23  35
ATOM     35  C   UNK A   0      -4.281   3.971 130.661  0.00  0.00    +0.000 C 
ATOM     36  O   UNK A   0      -3.232   3.676 131.233  0.00  0.00    +0.000 OA
ATOM     37  N   UNK A   0      -4.132   4.521 129.379  0.00  0.00    +0.000 N 
ATOM     38  H   UNK A   0      -4.827   4.276 128.686  0.00  0.00    +0.000 HD
BRANCH  37  39
ATOM     39  C   UNK A   0      -2.817   4.823 128.811  0.00  0.00    +0.000 C 
ATOM     40  C   UNK A   0      -2.818   4.149 127.467  0.00  0.00    +0.000 C 
ATOM     41  C   UNK A   0      -2.475   6.299 128.552  0.00  0.00    +0.000 C 
ENDBRANCH  37  39
ENDBRANCH  23  35
ENDBRANCH   8  23
TORSDOF 8
ENDMDL
MODEL 2
REMARK VINA RESULT:      -8.9      2.365      3.224
REMARK  Name = CHEMBL409878
REMARK  12 active torsions:
REMARK  status: ('A' for Active; 'I' for Inactive)
REMARK    1  A    between atoms: CD1_1  and  CG_2
REMARK    2  A    between atoms: CG_2  and  CD2_3
REMARK    3  A    between atoms: CG_2  and  CB_4
REMARK    4  A    between atoms: CB_4  and  CA_5
REMARK    5  A    between atoms: C_9  and  C_10
REMARK    6  A    between atoms: N_21  and  C_22
REMARK    7  A    between atoms: C_22  and  C_23
REMARK    8  A    between atoms: C_22  and  C_29
REMARK    9  A    between atoms: N_25  and  C_26
REMARK   10  A    between atoms: C_26  and  C_27
REMARK   11  A    between atoms: C_26  and  C_28
REMARK   12  A    between atoms: C_32  and  C_33
REMARK                            x       y       z     vdW  Elec       q    Type
REMARK                         _______ _______ _______ _____ _____    ______ ____
ROOT
ATOM      1  CA  LEU A   2      -7.213   0.725 129.849  0.00  0.00    +0.000 C 
ATOM      2  C   LEU A   2      -6.201   0.052 128.888  0.00  0.00    +0.000 C 
ATOM      3  O   LEU A   2      -5.157  -0.522 129.057  0.00  0.00    +0.000 OA
ATOM      4  N   UNK A   1      -6.644   0.003 127.633  0.00  0.00    +0.000 N 
ATOM      5  C   UNK A   1      -7.847   0.616 127.194  0.00  0.00    +0.000 C 
ATOM      6  C   UNK A   1      -8.022   1.975 127.876  0.00  0.00    +0.000 C 
ATOM      7  O   UNK A   1      -8.579   2.840 127.214  0.00  0.00    +0.000 OA
ATOM      8  N   LEU A   2      -7.600   2.066 129.221  0.00  0.00    +0.000 N 
ATOM      9  H   UNK A   1      -5.995  -0.512 127.057  0.00  0.00    +0.000 HD
ENDROOT
BRANCH   5  10
ATOM     10  C   UNK A   1      -7.760   0.856 125.677  0.00  0.00    +0.000 C 
ATOM     11  C   UNK A   1      -8.928   0.162 124.959  0.00  0.00    +0.000 C 
ATOM     12  C   UNK A   1      -8.332  -1.176 124.624  0.00  0.00    +0.000 A 
ATOM     13  C   UNK A   1      -9.002  -2.371 124.432  0.00  0.00    +0.000 A 
ATOM     14  C   UNK A   1      -8.248  -3.538 124.291  0.00  0.00    +0.000 A 
ATOM     15  C   UNK A   1      -6.846  -3.503 124.366  0.00  0.00    +0.000 A 
ATOM     16  C   UNK A   1      -6.175  -2.299 124.590  0.00  0.00    +0.000 A 
ATOM     17  C   UNK A   1      -6.930  -1.143 124.707  0.00  0.00    +0.000 A 
ATOM     18  C   UNK A   1      -6.456   0.232 125.081  0.00  0.00    +0.000 C 
ENDBRANCH   5  10
BRANCH   1  19
ATOM     19  CB  LEU A   2      -6.678   0.771 131.250  0.00  0.00    +0.000 C 
BRANCH  19  21
ATOM     20  CD1 LEU A   2      -7.863   1.884 133.178  0.00  0.00    +0.000 C 
ATOM     21  CG  LEU A   2      -7.665   0.619 132.401  0.00  0.00    +0.000 C 
ATOM     22  CD2 LEU A   2      -9.017   0.242 131.861  0.00  0.00    +0.000 C 
ENDBRANCH  19  21
ENDBRANCH   1  19
BRANCH   8  23
ATOM     23  C   UNK A   0      -7.456   3.438 129.941  0.00  0.00    +0.000 C 
BRANCH  23  24
ATOM     24  C   UNK A   0      -8.847   4.164 130.058  0.00  0.00    +0.000 A 
ATOM     25  C   UNK A   0     -10.007   3.702 130.686  0.00  0.00    +0.000 A 
ATOM     26  C   UNK A   0     -11.175   4.445 130.322  0.00  0.00    +0.000 A 
ATOM     27  C   UNK A   0     -10.872   5.577 129.598  0.00  0.00    +0.000 A 
ATOM     28  S   UNK A   0      -9.218   5.655 129.264  0.00  0.00    +0.000 S 
BRANCH  27  29
ATOM     29  C   UNK A   0     -11.753   6.685 129.256  0.00  0.00    +0.000 A 
ATOM     30  C   UNK A   0     -11.873   7.720 130.175  0.00  0.00    +0.000 A 
ATOM     31  C   UNK A   0     -12.687   8.797 129.872  0.00  0.00    +0.000 A 
ATOM     32  C   UNK A   0     -13.362   8.807 128.658  0.00  0.00    +0.000 A 
ATOM     33  C   UNK A   0     -13.190   7.733 127.796  0.00  0.00    +0.000 A 
ATOM     34  N   UNK A   0     -12.399   6.667 128.065  0.00  0.00    +0.000 NA
ENDBRANCH  27  29
ENDBRANCH  23  24
BRANCH  23  35
ATOM     35  C   UNK A   0      -6.295   4.476 129.360  0.00  0.00    +0.000 C 
ATOM     36  O   UNK A   0      -6.026   4.613 128.167  0.00  0.00    +0.000 OA
ATOM     37  N   UNK A   0      -5.538   5.262 130.241  0.00  0.00    +0.000 N 
ATOM     38  H   UNK A   0      -6.008   5.625 131.060  0.00  0.00    +0.000 HD
BRANCH  37  39
ATOM     39  C   UNK A   0      -4.433   6.103 129.778  0.00  0.00    +0.000 C 
ATOM     40  C   UNK A   0      -4.479   7.317 130.664  0.00  0.00    +0.000 C 
ATOM     41  C   UNK A   0      -3.008   5.537 129.897  0.00  0.00    +0.000 C 
ENDBRANCH  37  39
ENDBRANCH  23  35
ENDBRANCH   8  23
TORSDOF 8
ENDMDL
MODEL 3
REMARK VINA RESULT:      -8.9      1.741      2.208
REMARK  Name = CHEMBL409878
REMARK  12 active torsions:
REMARK  status: ('A' for Active; 'I' for Inactive)
REMARK    1  A    between atoms: CD1_1  and  CG_2
REMARK    2  A    between atoms: CG_2  and  CD2_3
REMARK    3  A    between atoms: CG_2  and  CB_4
REMARK    4  A    between atoms: CB_4  and  CA_5
REMARK    5  A    between atoms: C_9  and  C_10
REMARK    6  A    between atoms: N_21  and  C_22
REMARK    7  A    between atoms: C_22  and  C_23
REMARK    8  A    between atoms: C_22  and  C_29
REMARK    9  A    between atoms: N_25  and  C_26
REMARK   10  A    between atoms: C_26  and  C_27
REMARK   11  A    between atoms: C_26  and  C_28
REMARK   12  A    between atoms: C_32  and  C_33
REMARK                            x       y       z     vdW  Elec       q    Type
REMARK                         _______ _______ _______ _____ _____    ______ ____
ROOT
ATOM      1  CA  LEU A   2      -7.971   1.089 129.932  0.00  0.00    +0.000 C 
ATOM      2  C   LEU A   2      -7.367  -0.261 129.468  0.00  0.00    +0.000 C 
ATOM      3  O   LEU A   2      -7.192  -1.318 130.014  0.00  0.00    +0.000 OA
ATOM      4  N   UNK A   1      -7.095  -0.277 128.165  0.00  0.00    +0.000 N 
ATOM      5  C   UNK A   1      -7.217   0.854 127.317  0.00  0.00    +0.000 C 
ATOM      6  C   UNK A   1      -6.741   2.112 128.048  0.00  0.00    +0.000 C 
ATOM      7  O   UNK A   1      -6.207   2.967 127.354  0.00  0.00    +0.000 OA
ATOM      8  N   LEU A   2      -7.039   2.192 129.426  0.00  0.00    +0.000 N 
ATOM      9  H   UNK A   1      -6.781  -1.196 127.889  0.00  0.00    +0.000 HD
ENDROOT
BRANCH   5  10
ATOM     10  C   UNK A   1      -6.318   0.655 126.085  0.00  0.00    +0.000 C 
ATOM     11  C   UNK A   1      -7.138   0.806 124.794  0.00  0.00    +0.000 C 
ATOM     12  C   UNK A   1      -7.554  -0.612 124.527  0.00  0.00    +0.000 A 
ATOM     13  C   UNK A   1      -8.667  -1.045 123.827  0.00  0.00    +0.000 A 
ATOM     14  C   UNK A   1      -8.964  -2.409 123.833  0.00  0.00    +0.000 A 
ATOM     15  C   UNK A   1      -8.167  -3.317 124.549  0.00  0.00    +0.000 A 
ATOM     16  C   UNK A   1      -7.062  -2.873 125.278  0.00  0.00    +0.000 A 
ATOM     17  C   UNK A   1      -6.762  -1.520 125.250  0.00  0.00    +0.000 A 
ATOM     18  C   UNK A   1      -5.722  -0.790 126.050  0.00  0.00    +0.000 C 
ENDBRANCH   5  10
BRANCH   1  19
ATOM     19  CB  LEU A   2      -8.257   1.075 131.405  0.00  0.00    +0.000 C 
BRANCH  19  21
ATOM     20  CD1 LEU A   2      -9.347   2.706 132.989  0.00  0.00    +0.000 C 
ATOM     21  CG  LEU A   2      -9.554   1.708 131.891  0.00  0.00    +0.000 C 
ATOM     22  CD2 LEU A   2     -10.206   2.457 130.761  0.00  0.00    +0.000 C 
ENDBRANCH  19  21
ENDBRANCH   1  19
BRANCH   8  23
ATOM     23  C   UNK A   0      -6.379   3.262 130.344  0.00  0.00    +0.000 C 
BRANCH  23  24
ATOM     24  C   UNK A   0      -7.249   4.571 130.403  0.00  0.00    +0.000 A 
ATOM     25  C   UNK A   0      -7.271   5.544 131.405  0.00  0.00    +0.000 A 
ATOM     26  C   UNK A   0      -8.402   6.416 131.315  0.00  0.00    +0.000 A 
ATOM     27  C   UNK A   0      -9.110   6.239 130.147  0.00  0.00    +0.000 A 
ATOM     28  S   UNK A   0      -8.480   4.954 129.250  0.00  0.00    +0.000 S 
BRANCH  27  29
ATOM     29  C   UNK A   0     -10.163   7.083 129.601  0.00  0.00    +0.000 A 
ATOM     30  C   UNK A   0     -11.289   7.299 130.387  0.00  0.00    +0.000 A 
ATOM     31  C   UNK A   0     -12.300   8.112 129.905  0.00  0.00    +0.000 A 
ATOM     32  C   UNK A   0     -12.158   8.685 128.648  0.00  0.00    +0.000 A 
ATOM     33  C   UNK A   0     -11.003   8.418 127.925  0.00  0.00    +0.000 A 
ATOM     34  N   UNK A   0      -9.997   7.628 128.371  0.00  0.00    +0.000 NA
ENDBRANCH  27  29
ENDBRANCH  23  24
BRANCH  23  35
ATOM     35  C   UNK A   0      -4.784   3.625 130.051  0.00  0.00    +0.000 C 
ATOM     36  O   UNK A   0      -3.838   3.120 130.654  0.00  0.00    +0.000 OA
ATOM     37  N   UNK A   0      -4.438   4.568 129.072  0.00  0.00    +0.000 N 
ATOM     38  H   UNK A   0      -5.002   4.594 128.233  0.00  0.00    +0.000 HD
BRANCH  37  39
ATOM     39  C   UNK A   0      -3.054   4.997 128.862  0.00  0.00    +0.000 C 
ATOM     40  C   UNK A   0      -2.597   4.234 127.650  0.00  0.00    +0.000 C 
ATOM     41  C   UNK A   0      -2.808   6.483 128.552  0.00  0.00    +0.000 C 
ENDBRANCH  37  39
ENDBRANCH  23  35
ENDBRANCH   8  23
TORSDOF 8
ENDMDL
MODEL 4
REMARK VINA RESULT:      -8.6      3.173      7.926
REMARK  Name = CHEMBL409878
REMARK  12 active torsions:
REMARK  status: ('A' for Active; 'I' for Inactive)
REMARK    1  A    between atoms: CD1_1  and  CG_2
REMARK    2  A    between atoms: CG_2  and  CD2_3
REMARK    3  A    between atoms: CG_2  and  CB_4
REMARK    4  A    between atoms: CB_4  and  CA_5
REMARK    5  A    between atoms: C_9  and  C_10
REMARK    6  A    between atoms: N_21  and  C_22
REMARK    7  A    between atoms: C_22  and  C_23
REMARK    8  A    between atoms: C_22  and  C_29
REMARK    9  A    between atoms: N_25  and  C_26
REMARK   10  A    between atoms: C_26  and  C_27
REMARK   11  A    between atoms: C_26  and  C_28
REMARK   12  A    between atoms: C_32  and  C_33
REMARK                            x       y       z     vdW  Elec       q    Type
REMARK                         _______ _______ _______ _____ _____    ______ ____
ROOT
ATOM      1  CA  LEU A   2      -7.238   6.124 131.299  0.00  0.00    +0.000 C 
ATOM      2  C   LEU A   2      -8.429   6.141 132.290  0.00  0.00    +0.000 C 
ATOM      3  O   LEU A   2      -8.504   6.169 133.490  0.00  0.00    +0.000 OA
ATOM      4  N   UNK A   1      -9.603   6.265 131.675  0.00  0.00    +0.000 N 
ATOM      5  C   UNK A   1      -9.763   6.250 130.265  0.00  0.00    +0.000 C 
ATOM      6  C   UNK A   1      -8.829   5.210 129.642  0.00  0.00    +0.000 C 
ATOM      7  O   UNK A   1      -9.244   4.647 128.638  0.00  0.00    +0.000 OA
ATOM      8  N   LEU A   2      -7.556   5.068 130.238  0.00  0.00    +0.000 N 
ATOM      9  H   UNK A   1     -10.343   6.353 132.357  0.00  0.00    +0.000 HD
ENDROOT
BRANCH   5  10
ATOM     10  C   UNK A   1     -11.209   5.846 129.931  0.00  0.00    +0.000 C 
ATOM     11  C   UNK A   1     -11.681   6.556 128.652  0.00  0.00    +0.000 C 
ATOM     12  C   UNK A   1     -12.321   7.796 129.208  0.00  0.00    +0.000 A 
ATOM     13  C   UNK A   1     -12.480   9.016 128.575  0.00  0.00    +0.000 A 
ATOM     14  C   UNK A   1     -12.953  10.095 129.325  0.00  0.00    +0.000 A 
ATOM     15  C   UNK A   1     -13.240   9.950 130.693  0.00  0.00    +0.000 A 
ATOM     16  C   UNK A   1     -13.050   8.725 131.334  0.00  0.00    +0.000 A 
ATOM     17  C   UNK A   1     -12.600   7.654 130.578  0.00  0.00    +0.000 A 
ATOM     18  C   UNK A   1     -12.195   6.292 131.060  0.00  0.00    +0.000 C 
ENDBRANCH   5  10
BRANCH   1  19
ATOM     19  CB  LEU A   2      -5.933   5.974 132.024  0.00  0.00    +0.000 C 
BRANCH  19  21
ATOM     20  CD1 LEU A   2      -3.565   6.010 131.160  0.00  0.00    +0.000 C 
ATOM     21  CG  LEU A   2      -4.755   6.824 131.567  0.00  0.00    +0.000 C 
ATOM     22  CD2 LEU A   2      -5.149   7.625 130.356  0.00  0.00    +0.000 C 
ENDBRANCH  19  21
ENDBRANCH   1  19
BRANCH   8  23
ATOM     23  C   UNK A   0      -6.623   3.870 129.896  0.00  0.00    +0.000 C 
BRANCH  23  24
ATOM     24  C   UNK A   0      -6.082   3.978 128.422  0.00  0.00    +0.000 A 
ATOM     25  C   UNK A   0      -5.033   4.768 127.948  0.00  0.00    +0.000 A 
ATOM     26  C   UNK A   0      -5.020   4.887 126.521  0.00  0.00    +0.000 A 
ATOM     27  C   UNK A   0      -5.915   4.032 125.917  0.00  0.00    +0.000 A 
ATOM     28  S   UNK A   0      -6.833   3.206 127.069  0.00  0.00    +0.000 S 
BRANCH  27  29
ATOM     29  C   UNK A   0      -6.023   3.702 124.502  0.00  0.00    +0.000 A 
ATOM     30  C   UNK A   0      -6.722   2.551 124.161  0.00  0.00    +0.000 A 
ATOM     31  C   UNK A   0      -6.860   2.219 122.824  0.00  0.00    +0.000 A 
ATOM     32  C   UNK A   0      -6.293   3.048 121.866  0.00  0.00    +0.000 A 
ATOM     33  C   UNK A   0      -5.609   4.180 122.290  0.00  0.00    +0.000 A 
ATOM     34  N   UNK A   0      -5.460   4.530 123.590  0.00  0.00    +0.000 NA
ENDBRANCH  27  29
ENDBRANCH  23  24
BRANCH  23  35
ATOM     35  C   UNK A   0      -7.212   2.346 130.199  0.00  0.00    +0.000 C 
ATOM     36  O   UNK A   0      -8.354   2.112 130.593  0.00  0.00    +0.000 OA
ATOM     37  N   UNK A   0      -6.395   1.219 130.021  0.00  0.00    +0.000 N 
ATOM     38  H   UNK A   0      -5.743   1.237 129.247  0.00  0.00    +0.000 HD
BRANCH  37  39
ATOM     39  C   UNK A   0      -6.840  -0.128 130.383  0.00  0.00    +0.000 C 
ATOM     40  C   UNK A   0      -7.336  -0.725 129.095  0.00  0.00    +0.000 C 
ATOM     41  C   UNK A   0      -5.785  -1.102 130.932  0.00  0.00    +0.000 C 
ENDBRANCH  37  39
ENDBRANCH  23  35
ENDBRANCH   8  23
TORSDOF 8
ENDMDL
MODEL 5
REMARK VINA RESULT:      -8.6      3.118      6.473
REMARK  Name = CHEMBL409878
REMARK  12 active torsions:
REMARK  status: ('A' for Active; 'I' for Inactive)
REMARK    1  A    between atoms: CD1_1  and  CG_2
REMARK    2  A    between atoms: CG_2  and  CD2_3
REMARK    3  A    between atoms: CG_2  and  CB_4
REMARK    4  A    between atoms: CB_4  and  CA_5
REMARK    5  A    between atoms: C_9  and  C_10
REMARK    6  A    between atoms: N_21  and  C_22
REMARK    7  A    between atoms: C_22  and  C_23
REMARK    8  A    between atoms: C_22  and  C_29
REMARK    9  A    between atoms: N_25  and  C_26
REMARK   10  A    between atoms: C_26  and  C_27
REMARK   11  A    between atoms: C_26  and  C_28
REMARK   12  A    between atoms: C_32  and  C_33
REMARK                            x       y       z     vdW  Elec       q    Type
REMARK                         _______ _______ _______ _____ _____    ______ ____
ROOT
ATOM      1  CA  LEU A   2      -5.067   3.059 126.898  0.00  0.00    +0.000 C 
ATOM      2  C   LEU A   2      -5.658   2.698 125.512  0.00  0.00    +0.000 C 
ATOM      3  O   LEU A   2      -5.649   3.247 124.442  0.00  0.00    +0.000 OA
ATOM      4  N   UNK A   1      -6.181   1.474 125.483  0.00  0.00    +0.000 N 
ATOM      5  C   UNK A   1      -6.306   0.640 126.624  0.00  0.00    +0.000 C 
ATOM      6  C   UNK A   1      -6.713   1.474 127.842  0.00  0.00    +0.000 C 
ATOM      7  O   UNK A   1      -7.431   0.916 128.660  0.00  0.00    +0.000 OA
ATOM      8  N   LEU A   2      -6.154   2.768 127.935  0.00  0.00    +0.000 N 
ATOM      9  H   UNK A   1      -6.480   1.248 124.546  0.00  0.00    +0.000 HD
ENDROOT
BRANCH   5  10
ATOM     10  C   UNK A   1      -7.416  -0.394 126.368  0.00  0.00    +0.000 C 
ATOM     11  C   UNK A   1      -6.870  -1.820 126.544  0.00  0.00    +0.000 C 
ATOM     12  C   UNK A   1      -6.444  -2.161 125.145  0.00  0.00    +0.000 A 
ATOM     13  C   UNK A   1      -5.468  -3.062 124.759  0.00  0.00    +0.000 A 
ATOM     14  C   UNK A   1      -5.108  -3.112 123.410  0.00  0.00    +0.000 A 
ATOM     15  C   UNK A   1      -5.706  -2.254 122.474  0.00  0.00    +0.000 A 
ATOM     16  C   UNK A   1      -6.670  -1.325 122.872  0.00  0.00    +0.000 A 
ATOM     17  C   UNK A   1      -7.035  -1.296 124.208  0.00  0.00    +0.000 A 
ATOM     18  C   UNK A   1      -7.935  -0.311 124.896  0.00  0.00    +0.000 C 
ENDBRANCH   5  10
BRANCH   1  19
ATOM     19  CB  LEU A   2      -4.495   4.446 126.897  0.00  0.00    +0.000 C 
BRANCH  19  21
ATOM     20  CD1 LEU A   2      -2.598   5.534 128.151  0.00  0.00    +0.000 C 
ATOM     21  CG  LEU A   2      -2.987   4.601 127.046  0.00  0.00    +0.000 C 
ATOM     22  CD2 LEU A   2      -2.372   3.271 127.384  0.00  0.00    +0.000 C 
ENDBRANCH  19  21
ENDBRANCH   1  19
BRANCH   8  23
ATOM     23  C   UNK A   0      -6.690   3.818 128.951  0.00  0.00    +0.000 C 
BRANCH  23  24
ATOM     24  C   UNK A   0      -5.563   4.259 129.957  0.00  0.00    +0.000 A 
ATOM     25  C   UNK A   0      -4.600   3.456 130.573  0.00  0.00    +0.000 A 
ATOM     26  C   UNK A   0      -3.953   4.102 131.674  0.00  0.00    +0.000 A 
ATOM     27  C   UNK A   0      -4.270   5.440 131.756  0.00  0.00    +0.000 A 
ATOM     28  S   UNK A   0      -5.426   5.858 130.598  0.00  0.00    +0.000 S 
BRANCH  27  29
ATOM     29  C   UNK A   0      -3.640   6.461 132.583  0.00  0.00    +0.000 A 
ATOM     30  C   UNK A   0      -3.086   7.560 131.938  0.00  0.00    +0.000 A 
ATOM     31  C   UNK A   0      -2.498   8.558 132.696  0.00  0.00    +0.000 A 
ATOM     32  C   UNK A   0      -2.477   8.426 134.078  0.00  0.00    +0.000 A 
ATOM     33  C   UNK A   0      -3.052   7.296 134.644  0.00  0.00    +0.000 A 
ATOM     34  N   UNK A   0      -3.635   6.305 133.929  0.00  0.00    +0.000 NA
ENDBRANCH  27  29
ENDBRANCH  23  24
BRANCH  23  35
ATOM     35  C   UNK A   0      -8.089   3.435 129.763  0.00  0.00    +0.000 C 
ATOM     36  O   UNK A   0      -9.218   3.735 129.375  0.00  0.00    +0.000 OA
ATOM     37  N   UNK A   0      -8.037   2.734 130.977  0.00  0.00    +0.000 N 
ATOM     38  H   UNK A   0      -7.327   2.021 131.071  0.00  0.00    +0.000 HD
BRANCH  37  39
ATOM     39  C   UNK A   0      -9.237   2.476 131.776  0.00  0.00    +0.000 C 
ATOM     40  C   UNK A   0      -9.357   0.978 131.812  0.00  0.00    +0.000 C 
ATOM     41  C   UNK A   0      -9.230   2.942 133.242  0.00  0.00    +0.000 C 
ENDBRANCH  37  39
ENDBRANCH  23  35
ENDBRANCH   8  23
TORSDOF 8
ENDMDL
MODEL 6
REMARK VINA RESULT:      -8.5      2.911      8.697
REMARK  Name = CHEMBL409878
REMARK  12 active torsions:
REMARK  status: ('A' for Active; 'I' for Inactive)
REMARK    1  A    between atoms: CD1_1  and  CG_2
REMARK    2  A    between atoms: CG_2  and  CD2_3
REMARK    3  A    between atoms: CG_2  and  CB_4
REMARK    4  A    between atoms: CB_4  and  CA_5
REMARK    5  A    between atoms: C_9  and  C_10
REMARK    6  A    between atoms: N_21  and  C_22
REMARK    7  A    between atoms: C_22  and  C_23
REMARK    8  A    between atoms: C_22  and  C_29
REMARK    9  A    between atoms: N_25  and  C_26
REMARK   10  A    between atoms: C_26  and  C_27
REMARK   11  A    between atoms: C_26  and  C_28
REMARK   12  A    between atoms: C_32  and  C_33
REMARK                            x       y       z     vdW  Elec       q    Type
REMARK                         _______ _______ _______ _____ _____    ______ ____
ROOT
ATOM      1  CA  LEU A   2      -8.229   2.882 129.377  0.00  0.00    +0.000 C 
ATOM      2  C   LEU A   2      -8.159   4.257 128.665  0.00  0.00    +0.000 C 
ATOM      3  O   LEU A   2      -7.653   4.630 127.639  0.00  0.00    +0.000 OA
ATOM      4  N   UNK A   1      -8.914   5.178 129.259  0.00  0.00    +0.000 N 
ATOM      5  C   UNK A   1      -9.601   4.969 130.483  0.00  0.00    +0.000 C 
ATOM      6  C   UNK A   1      -8.732   4.149 131.440  0.00  0.00    +0.000 C 
ATOM      7  O   UNK A   1      -8.857   4.401 132.630  0.00  0.00    +0.000 OA
ATOM      8  N   LEU A   2      -7.940   3.133 130.859  0.00  0.00    +0.000 N 
ATOM      9  H   UNK A   1      -8.904   6.032 128.721  0.00  0.00    +0.000 HD
ENDROOT
BRANCH   5  10
ATOM     10  C   UNK A   1      -9.872   6.332 131.143  0.00  0.00    +0.000 C 
ATOM     11  C   UNK A   1     -11.372   6.495 131.436  0.00  0.00    +0.000 C 
ATOM     12  C   UNK A   1     -11.856   7.177 130.188  0.00  0.00    +0.000 A 
ATOM     13  C   UNK A   1     -13.131   7.145 129.652  0.00  0.00    +0.000 A 
ATOM     14  C   UNK A   1     -13.335   7.712 128.392  0.00  0.00    +0.000 A 
ATOM     15  C   UNK A   1     -12.269   8.282 127.678  0.00  0.00    +0.000 A 
ATOM     16  C   UNK A   1     -10.977   8.287 128.210  0.00  0.00    +0.000 A 
ATOM     17  C   UNK A   1     -10.788   7.740 129.469  0.00  0.00    +0.000 A 
ATOM     18  C   UNK A   1      -9.490   7.508 130.186  0.00  0.00    +0.000 C 
ENDBRANCH   5  10
BRANCH   1  19
ATOM     19  CB  LEU A   2      -7.361   1.871 128.687  0.00  0.00    +0.000 C 
BRANCH  19  21
ATOM     20  CD1 LEU A   2      -7.809   0.930 126.391  0.00  0.00    +0.000 C 
ATOM     21  CG  LEU A   2      -8.040   0.784 127.864  0.00  0.00    +0.000 C 
ATOM     22  CD2 LEU A   2      -7.482  -0.560 128.244  0.00  0.00    +0.000 C 
ENDBRANCH  19  21
ENDBRANCH   1  19
BRANCH   8  23
ATOM     23  C   UNK A   0      -6.811   2.420 131.658  0.00  0.00    +0.000 C 
BRANCH  23  24
ATOM     24  C   UNK A   0      -7.060   0.868 131.726  0.00  0.00    +0.000 A 
ATOM     25  C   UNK A   0      -8.258   0.201 131.991  0.00  0.00    +0.000 A 
ATOM     26  C   UNK A   0      -8.071  -1.182 132.310  0.00  0.00    +0.000 A 
ATOM     27  C   UNK A   0      -6.779  -1.602 132.085  0.00  0.00    +0.000 A 
ATOM     28  S   UNK A   0      -5.797  -0.309 131.622  0.00  0.00    +0.000 S 
BRANCH  27  29
ATOM     29  C   UNK A   0      -6.270  -2.967 132.070  0.00  0.00    +0.000 A 
ATOM     30  C   UNK A   0      -6.102  -3.578 130.833  0.00  0.00    +0.000 A 
ATOM     31  C   UNK A   0      -5.602  -4.867 130.783  0.00  0.00    +0.000 A 
ATOM     32  C   UNK A   0      -5.286  -5.511 131.972  0.00  0.00    +0.000 A 
ATOM     33  C   UNK A   0      -5.484  -4.830 133.166  0.00  0.00    +0.000 A 
ATOM     34  N   UNK A   0      -5.971  -3.569 133.246  0.00  0.00    +0.000 NA
ENDBRANCH  27  29
ENDBRANCH  23  24
BRANCH  23  35
ATOM     35  C   UNK A   0      -6.455   3.027 133.164  0.00  0.00    +0.000 C 
ATOM     36  O   UNK A   0      -6.650   2.421 134.217  0.00  0.00    +0.000 OA
ATOM     37  N   UNK A   0      -5.905   4.310 133.302  0.00  0.00    +0.000 N 
ATOM     38  H   UNK A   0      -5.245   4.610 132.597  0.00  0.00    +0.000 HD
BRANCH  37  39
ATOM     39  C   UNK A   0      -5.682   4.923 134.613  0.00  0.00    +0.000 C 
ATOM     40  C   UNK A   0      -4.629   5.969 134.371  0.00  0.00    +0.000 C 
ATOM     41  C   UNK A   0      -6.867   5.649 135.270  0.00  0.00    +0.000 C 
ENDBRANCH  37  39
ENDBRANCH  23  35
ENDBRANCH   8  23
TORSDOF 8
ENDMDL
MODEL 7
REMARK VINA RESULT:      -8.5      3.271      8.120
REMARK  Name = CHEMBL409878
REMARK  12 active torsions:
REMARK  status: ('A' for Active; 'I' for Inactive)
REMARK    1  A    between atoms: CD1_1  and  CG_2
REMARK    2  A    between atoms: CG_2  and  CD2_3
REMARK    3  A    between atoms: CG_2  and  CB_4
REMARK    4  A    between atoms: CB_4  and  CA_5
REMARK    5  A    between atoms: C_9  and  C_10
REMARK    6  A    between atoms: N_21  and  C_22
REMARK    7  A    between atoms: C_22  and  C_23
REMARK    8  A    between atoms: C_22  and  C_29
REMARK    9  A    between atoms: N_25  and  C_26
REMARK   10  A    between atoms: C_26  and  C_27
REMARK   11  A    between atoms: C_26  and  C_28
REMARK   12  A    between atoms: C_32  and  C_33
REMARK                            x       y       z     vdW  Elec       q    Type
REMARK                         _______ _______ _______ _____ _____    ______ ____
ROOT
ATOM      1  CA  LEU A   2      -7.238   4.080 130.655  0.00  0.00    +0.000 C 
ATOM      2  C   LEU A   2      -7.015   5.549 131.098  0.00  0.00    +0.000 C 
ATOM      3  O   LEU A   2      -7.657   6.315 131.767  0.00  0.00    +0.000 OA
ATOM      4  N   UNK A   1      -5.812   6.007 130.759  0.00  0.00    +0.000 N 
ATOM      5  C   UNK A   1      -4.885   5.283 129.965  0.00  0.00    +0.000 C 
ATOM      6  C   UNK A   1      -5.619   4.542 128.845  0.00  0.00    +0.000 C 
ATOM      7  O   UNK A   1      -5.009   4.420 127.791  0.00  0.00    +0.000 OA
ATOM      8  N   LEU A   2      -6.885   4.005 129.168  0.00  0.00    +0.000 N 
ATOM      9  H   UNK A   1      -5.677   6.934 131.135  0.00  0.00    +0.000 HD
ENDROOT
BRANCH   5  10
ATOM     10  C   UNK A   1      -3.906   6.275 129.312  0.00  0.00    +0.000 C 
ATOM     11  C   UNK A   1      -2.458   5.790 129.487  0.00  0.00    +0.000 C 
ATOM     12  C   UNK A   1      -2.058   6.475 130.763  0.00  0.00    +0.000 A 
ATOM     13  C   UNK A   1      -1.095   6.068 131.670  0.00  0.00    +0.000 A 
ATOM     14  C   UNK A   1      -0.989   6.758 132.879  0.00  0.00    +0.000 A 
ATOM     15  C   UNK A   1      -1.854   7.824 133.177  0.00  0.00    +0.000 A 
ATOM     16  C   UNK A   1      -2.844   8.213 132.272  0.00  0.00    +0.000 A 
ATOM     17  C   UNK A   1      -2.927   7.536 131.066  0.00  0.00    +0.000 A 
ATOM     18  C   UNK A   1      -3.978   7.675 130.003  0.00  0.00    +0.000 C 
ENDBRANCH   5  10
BRANCH   1  19
ATOM     19  CB  LEU A   2      -8.605   3.600 131.045  0.00  0.00    +0.000 C 
BRANCH  19  21
ATOM     20  CD1 LEU A   2      -9.179   3.347 133.487  0.00  0.00    +0.000 C 
ATOM     21  CG  LEU A   2      -8.723   2.659 132.237  0.00  0.00    +0.000 C 
ATOM     22  CD2 LEU A   2      -9.748   1.598 131.944  0.00  0.00    +0.000 C 
ENDBRANCH  19  21
ENDBRANCH   1  19
BRANCH   8  23
ATOM     23  C   UNK A   0      -7.855   3.482 128.069  0.00  0.00    +0.000 C 
BRANCH  23  24
ATOM     24  C   UNK A   0      -7.752   1.919 127.922  0.00  0.00    +0.000 A 
ATOM     25  C   UNK A   0      -7.085   1.019 128.757  0.00  0.00    +0.000 A 
ATOM     26  C   UNK A   0      -6.905  -0.270 128.162  0.00  0.00    +0.000 A 
ATOM     27  C   UNK A   0      -7.606  -0.407 126.984  0.00  0.00    +0.000 A 
ATOM     28  S   UNK A   0      -8.356   1.045 126.557  0.00  0.00    +0.000 S 
BRANCH  27  29
ATOM     29  C   UNK A   0      -7.855  -1.625 126.226  0.00  0.00    +0.000 A 
ATOM     30  C   UNK A   0      -6.783  -2.190 125.546  0.00  0.00    +0.000 A 
ATOM     31  C   UNK A   0      -6.981  -3.359 124.831  0.00  0.00    +0.000 A 
ATOM     32  C   UNK A   0      -8.247  -3.929 124.815  0.00  0.00    +0.000 A 
ATOM     33  C   UNK A   0      -9.265  -3.300 125.519  0.00  0.00    +0.000 A 
ATOM     34  N   UNK A   0      -9.100  -2.158 126.228  0.00  0.00    +0.000 NA
ENDBRANCH  27  29
ENDBRANCH  23  24
BRANCH  23  35
ATOM     35  C   UNK A   0      -7.779   4.221 126.583  0.00  0.00    +0.000 C 
ATOM     36  O   UNK A   0      -8.456   5.197 126.260  0.00  0.00    +0.000 OA
ATOM     37  N   UNK A   0      -6.911   3.738 125.592  0.00  0.00    +0.000 N 
ATOM     38  H   UNK A   0      -6.014   3.381 125.894  0.00  0.00    +0.000 HD
BRANCH  37  39
ATOM     39  C   UNK A   0      -6.896   4.291 124.236  0.00  0.00    +0.000 C 
ATOM     40  C   UNK A   0      -5.438   4.408 123.888  0.00  0.00    +0.000 C 
ATOM     41  C   UNK A   0      -7.539   3.454 123.118  0.00  0.00    +0.000 C 
ENDBRANCH  37  39
ENDBRANCH  23  35
ENDBRANCH   8  23
TORSDOF 8
ENDMDL
MODEL 8
REMARK VINA RESULT:      -8.5      3.108      8.284
REMARK  Name = CHEMBL409878
REMARK  12 active torsions:
REMARK  status: ('A' for Active; 'I' for Inactive)
REMARK    1  A    between atoms: CD1_1  and  CG_2
REMARK    2  A    between atoms: CG_2  and  CD2_3
REMARK    3  A    between atoms: CG_2  and  CB_4
REMARK    4  A    between atoms: CB_4  and  CA_5
REMARK    5  A    between atoms: C_9  and  C_10
REMARK    6  A    between atoms: N_21  and  C_22
REMARK    7  A    between atoms: C_22  and  C_23
REMARK    8  A    between atoms: C_22  and  C_29
REMARK    9  A    between atoms: N_25  and  C_26
REMARK   10  A    between atoms: C_26  and  C_27
REMARK   11  A    between atoms: C_26  and  C_28
REMARK   12  A    between atoms: C_32  and  C_33
REMARK                            x       y       z     vdW  Elec       q    Type
REMARK                         _______ _______ _______ _____ _____    ______ ____
ROOT
ATOM      1  CA  LEU A   2      -7.269   4.177 131.019  0.00  0.00    +0.000 C 
ATOM      2  C   LEU A   2      -7.128   5.688 131.331  0.00  0.00    +0.000 C 
ATOM      3  O   LEU A   2      -7.831   6.484 131.897  0.00  0.00    +0.000 OA
ATOM      4  N   UNK A   1      -5.930   6.167 131.003  0.00  0.00    +0.000 N 
ATOM      5  C   UNK A   1      -4.937   5.416 130.321  0.00  0.00    +0.000 C 
ATOM      6  C   UNK A   1      -5.587   4.543 129.245  0.00  0.00    +0.000 C 
ATOM      7  O   UNK A   1      -4.923   4.353 128.235  0.00  0.00    +0.000 OA
ATOM      8  N   LEU A   2      -6.844   3.982 129.561  0.00  0.00    +0.000 N 
ATOM      9  H   UNK A   1      -5.851   7.130 131.296  0.00  0.00    +0.000 HD
ENDROOT
BRANCH   5  10
ATOM     10  C   UNK A   1      -3.970   6.386 129.622  0.00  0.00    +0.000 C 
ATOM     11  C   UNK A   1      -2.527   5.868 129.722  0.00  0.00    +0.000 C 
ATOM     12  C   UNK A   1      -2.046   6.539 130.977  0.00  0.00    +0.000 A 
ATOM     13  C   UNK A   1      -1.048   6.107 131.833  0.00  0.00    +0.000 A 
ATOM     14  C   UNK A   1      -0.865   6.791 133.037  0.00  0.00    +0.000 A 
ATOM     15  C   UNK A   1      -1.688   7.875 133.381  0.00  0.00    +0.000 A 
ATOM     16  C   UNK A   1      -2.713   8.290 132.528  0.00  0.00    +0.000 A 
ATOM     17  C   UNK A   1      -2.874   7.619 131.326  0.00  0.00    +0.000 A 
ATOM     18  C   UNK A   1      -3.974   7.786 130.318  0.00  0.00    +0.000 C 
ENDBRANCH   5  10
BRANCH   1  19
ATOM     19  CB  LEU A   2      -8.632   3.673 131.392  0.00  0.00    +0.000 C 
BRANCH  19  21
ATOM     20  CD1 LEU A   2      -7.493   2.185 133.078  0.00  0.00    +0.000 C 
ATOM     21  CG  LEU A   2      -8.770   2.851 132.667  0.00  0.00    +0.000 C 
ATOM     22  CD2 LEU A   2      -9.160   3.750 133.808  0.00  0.00    +0.000 C 
ENDBRANCH  19  21
ENDBRANCH   1  19
BRANCH   8  23
ATOM     23  C   UNK A   0      -7.738   3.316 128.476  0.00  0.00    +0.000 C 
BRANCH  23  24
ATOM     24  C   UNK A   0      -7.427   1.779 128.350  0.00  0.00    +0.000 A 
ATOM     25  C   UNK A   0      -8.082   0.832 127.558  0.00  0.00    +0.000 A 
ATOM     26  C   UNK A   0      -7.775  -0.516 127.928  0.00  0.00    +0.000 A 
ATOM     27  C   UNK A   0      -6.748  -0.588 128.843  0.00  0.00    +0.000 A 
ATOM     28  S   UNK A   0      -6.265   0.955 129.330  0.00  0.00    +0.000 S 
BRANCH  27  29
ATOM     29  C   UNK A   0      -6.013  -1.769 129.273  0.00  0.00    +0.000 A 
ATOM     30  C   UNK A   0      -6.741  -2.816 129.826  0.00  0.00    +0.000 A 
ATOM     31  C   UNK A   0      -6.075  -3.960 130.227  0.00  0.00    +0.000 A 
ATOM     32  C   UNK A   0      -4.697  -4.026 130.066  0.00  0.00    +0.000 A 
ATOM     33  C   UNK A   0      -4.044  -2.936 129.507  0.00  0.00    +0.000 A 
ATOM     34  N   UNK A   0      -4.669  -1.804 129.104  0.00  0.00    +0.000 NA
ENDBRANCH  27  29
ENDBRANCH  23  24
BRANCH  23  35
ATOM     35  C   UNK A   0      -7.767   4.037 126.979  0.00  0.00    +0.000 C 
ATOM     36  O   UNK A   0      -8.470   5.007 126.691  0.00  0.00    +0.000 OA
ATOM     37  N   UNK A   0      -6.968   3.545 125.936  0.00  0.00    +0.000 N 
ATOM     38  H   UNK A   0      -6.050   3.196 126.181  0.00  0.00    +0.000 HD
BRANCH  37  39
ATOM     39  C   UNK A   0      -7.048   4.081 124.576  0.00  0.00    +0.000 C 
ATOM     40  C   UNK A   0      -5.622   4.376 124.197  0.00  0.00    +0.000 C 
ATOM     41  C   UNK A   0      -7.603   3.159 123.479  0.00  0.00    +0.000 C 
ENDBRANCH  37  39
ENDBRANCH  23  35
ENDBRANCH   8  23
TORSDOF 8
ENDMDL
MODEL 9
REMARK VINA RESULT:      -8.5      2.187      4.136
REMARK  Name = CHEMBL409878
REMARK  12 active torsions:
REMARK  status: ('A' for Active; 'I' for Inactive)
REMARK    1  A    between atoms: CD1_1  and  CG_2
REMARK    2  A    between atoms: CG_2  and  CD2_3
REMARK    3  A    between atoms: CG_2  and  CB_4
REMARK    4  A    between atoms: CB_4  and  CA_5
REMARK    5  A    between atoms: C_9  and  C_10
REMARK    6  A    between atoms: N_21  and  C_22
REMARK    7  A    between atoms: C_22  and  C_23
REMARK    8  A    between atoms: C_22  and  C_29
REMARK    9  A    between atoms: N_25  and  C_26
REMARK   10  A    between atoms: C_26  and  C_27
REMARK   11  A    between atoms: C_26  and  C_28
REMARK   12  A    between atoms: C_32  and  C_33
REMARK                            x       y       z     vdW  Elec       q    Type
REMARK                         _______ _______ _______ _____ _____    ______ ____
ROOT
ATOM      1  CA  LEU A   2      -5.497   3.381 128.093  0.00  0.00    +0.000 C 
ATOM      2  C   LEU A   2      -6.440   3.214 126.875  0.00  0.00    +0.000 C 
ATOM      3  O   LEU A   2      -6.803   3.959 126.003  0.00  0.00    +0.000 OA
ATOM      4  N   UNK A   1      -6.832   1.953 126.702  0.00  0.00    +0.000 N 
ATOM      5  C   UNK A   1      -6.532   0.900 127.606  0.00  0.00    +0.000 C 
ATOM      6  C   UNK A   1      -6.631   1.403 129.048  0.00  0.00    +0.000 C 
ATOM      7  O   UNK A   1      -7.015   0.588 129.876  0.00  0.00    +0.000 OA
ATOM      8  N   LEU A   2      -6.192   2.724 129.288  0.00  0.00    +0.000 N 
ATOM      9  H   UNK A   1      -7.376   1.873 125.856  0.00  0.00    +0.000 HD
ENDROOT
BRANCH   5  10
ATOM     10  C   UNK A   1      -7.567  -0.223 127.425  0.00  0.00    +0.000 C 
ATOM     11  C   UNK A   1      -6.866  -1.589 127.352  0.00  0.00    +0.000 C 
ATOM     12  C   UNK A   1      -6.662  -1.751 125.873  0.00  0.00    +0.000 A 
ATOM     13  C   UNK A   1      -5.688  -2.499 125.235  0.00  0.00    +0.000 A 
ATOM     14  C   UNK A   1      -5.568  -2.385 123.848  0.00  0.00    +0.000 A 
ATOM     15  C   UNK A   1      -6.399  -1.516 123.122  0.00  0.00    +0.000 A 
ATOM     16  C   UNK A   1      -7.361  -0.741 123.773  0.00  0.00    +0.000 A 
ATOM     17  C   UNK A   1      -7.487  -0.876 125.147  0.00  0.00    +0.000 A 
ATOM     18  C   UNK A   1      -8.342  -0.064 126.077  0.00  0.00    +0.000 C 
ENDBRANCH   5  10
BRANCH   1  19
ATOM     19  CB  LEU A   2      -5.083   4.813 128.263  0.00  0.00    +0.000 C 
BRANCH  19  21
ATOM     20  CD1 LEU A   2      -3.332   6.614 128.043  0.00  0.00    +0.000 C 
ATOM     21  CG  LEU A   2      -3.820   5.285 127.553  0.00  0.00    +0.000 C 
ATOM     22  CD2 LEU A   2      -2.704   4.309 127.804  0.00  0.00    +0.000 C 
ENDBRANCH  19  21
ENDBRANCH   1  19
BRANCH   8  23
ATOM     23  C   UNK A   0      -6.493   3.455 130.628  0.00  0.00    +0.000 C 
BRANCH  23  24
ATOM     24  C   UNK A   0      -7.433   4.695 130.398  0.00  0.00    +0.000 A 
ATOM     25  C   UNK A   0      -7.349   5.958 130.990  0.00  0.00    +0.000 A 
ATOM     26  C   UNK A   0      -8.539   6.735 130.823  0.00  0.00    +0.000 A 
ATOM     27  C   UNK A   0      -9.425   6.155 129.942  0.00  0.00    +0.000 A 
ATOM     28  S   UNK A   0      -8.871   4.641 129.439  0.00  0.00    +0.000 S 
BRANCH  27  29
ATOM     29  C   UNK A   0     -10.617   6.746 129.349  0.00  0.00    +0.000 A 
ATOM     30  C   UNK A   0     -10.517   8.043 128.860  0.00  0.00    +0.000 A 
ATOM     31  C   UNK A   0     -11.626   8.627 128.273  0.00  0.00    +0.000 A 
ATOM     32  C   UNK A   0     -12.805   7.899 128.194  0.00  0.00    +0.000 A 
ATOM     33  C   UNK A   0     -12.822   6.609 128.708  0.00  0.00    +0.000 A 
ATOM     34  N   UNK A   0     -11.753   6.012 129.286  0.00  0.00    +0.000 NA
ENDBRANCH  27  29
ENDBRANCH  23  24
BRANCH  23  35
ATOM     35  C   UNK A   0      -5.188   3.869 131.570  0.00  0.00    +0.000 C 
ATOM     36  O   UNK A   0      -4.783   3.203 132.523  0.00  0.00    +0.000 OA
ATOM     37  N   UNK A   0      -4.472   5.048 131.313  0.00  0.00    +0.000 N 
ATOM     38  H   UNK A   0      -4.353   5.317 130.346  0.00  0.00    +0.000 HD
BRANCH  37  39
ATOM     39  C   UNK A   0      -3.388   5.504 132.186  0.00  0.00    +0.000 C 
ATOM     40  C   UNK A   0      -2.134   5.285 131.385  0.00  0.00    +0.000 C 
ATOM     41  C   UNK A   0      -3.382   6.985 132.599  0.00  0.00    +0.000 C 
ENDBRANCH  37  39
ENDBRANCH  23  35
ENDBRANCH   8  23
TORSDOF 8
ENDMDL
