MODEL 1
REMARK VINA RESULT:      -9.0      0.000      0.000
REMARK  Name = CHEMBL457997
REMARK  10 active torsions:
REMARK  status: ('A' for Active; 'I' for Inactive)
REMARK    1  A    between atoms: C_1  and  O_2
REMARK    2  A    between atoms: O_2  and  C_3
REMARK    3  A    between atoms: C_6  and  S_7
REMARK    4  A    between atoms: S_7  and  N_10
REMARK    5  A    between atoms: N_10  and  C_11
REMARK    6  A    between atoms: N_10  and  C_24
REMARK    7  A    between atoms: C_11  and  C_12
REMARK    8  A    between atoms: C_15  and  C_16
REMARK    9  A    between atoms: C_27  and  O_28
REMARK   10  A    between atoms: O_28  and  C_29
REMARK                            x       y       z     vdW  Elec       q    Type
REMARK                         _______ _______ _______ _____ _____    ______ ____
ROOT
ATOM      1  N   UNL     1      -9.052   4.838 130.440  0.00  0.00    +0.000 N 
ENDROOT
BRANCH   1   2
ATOM      2  C   UNL     1     -10.083   5.861 130.473  0.00  0.00    +0.000 A 
ATOM      3  C   UNL     1     -10.836   6.137 131.605  0.00  0.00    +0.000 A 
ATOM      4  C   UNL     1     -11.842   7.103 131.540  0.00  0.00    +0.000 A 
ATOM      5  C   UNL     1     -12.052   7.808 130.363  0.00  0.00    +0.000 A 
ATOM      6  N   UNL     1     -11.297   7.601 129.264  0.00  0.00    +0.000 NA
ATOM      7  C   UNL     1     -10.346   6.636 129.345  0.00  0.00    +0.000 A 
BRANCH   5   8
ATOM      8  O   UNL     1     -13.020   8.769 130.216  0.00  0.00    +0.000 OA
ATOM      9  C   UNL     1     -12.991   9.504 128.994  0.00  0.00    +0.000 C 
ENDBRANCH   5   8
ENDBRANCH   1   2
BRANCH   1  10
ATOM     10  S   UNL     1      -9.665   3.216 130.353  0.00  0.00    +0.000 S 
ATOM     11  O   UNL     1      -8.923   2.462 129.368  0.00  0.00    +0.000 OA
ATOM     12  O   UNL     1     -11.112   3.329 130.256  0.00  0.00    +0.000 OA
BRANCH  10  16
ATOM     13  C   UNL     1      -6.839   0.261 133.543  0.00  0.00    +0.000 A 
ATOM     14  C   UNL     1      -7.227   2.038 133.776  0.00  0.00    +0.000 A 
ATOM     15  C   UNL     1      -8.428   2.919 132.932  0.00  0.00    +0.000 A 
ATOM     16  C   UNL     1      -9.295   2.323 131.832  0.00  0.00    +0.000 A 
ATOM     17  C   UNL     1      -9.227   0.748 131.548  0.00  0.00    +0.000 A 
ATOM     18  C   UNL     1      -7.888  -0.626 132.232  0.00  0.00    +0.000 A 
BRANCH  13  20
ATOM     19  C   UNL     1      -4.931  -0.600 134.048  0.00  0.00    +0.000 C 
ATOM     20  O   UNL     1      -6.109  -0.144 134.588  0.00  0.00    +0.000 OA
ENDBRANCH  13  20
ENDBRANCH  10  16
ENDBRANCH   1  10
BRANCH   1  21
ATOM     21  C   UNL     1      -7.625   5.422 130.388  0.00  0.00    +0.000 C 
BRANCH  21  22
ATOM     22  C   UNL     1      -7.057   6.667 131.286  0.00  0.00    +0.000 A 
ATOM     23  C   UNL     1      -6.728   5.897 132.826  0.00  0.00    +0.000 A 
ATOM     24  C   UNL     1      -5.026   5.742 133.287  0.00  0.00    +0.000 A 
ATOM     25  C   UNL     1      -3.568   6.642 132.079  0.00  0.00    +0.000 A 
ATOM     26  C   UNL     1      -4.242   7.550 130.653  0.00  0.00    +0.000 A 
ATOM     27  N   UNL     1      -5.923   7.586 130.312  0.00  0.00    +0.000 NA
BRANCH  25  28
ATOM     28  C   UNL     1      -2.356   7.787 132.392  0.00  0.00    +0.000 A 
ATOM     29  C   UNL     1      -2.406   9.089 133.002  0.00  0.00    +0.000 A 
ATOM     30  C   UNL     1      -1.158   9.629 133.360  0.00  0.00    +0.000 A 
ATOM     31  C   UNL     1       0.009   8.833 133.415  0.00  0.00    +0.000 A 
ATOM     32  C   UNL     1      -0.001   7.540 133.020  0.00  0.00    +0.000 A 
ATOM     33  C   UNL     1      -1.129   7.149 132.399  0.00  0.00    +0.000 A 
ENDBRANCH  25  28
ENDBRANCH  21  22
ENDBRANCH   1  21
TORSDOF 8
ENDMDL
MODEL 2
REMARK VINA RESULT:      -9.0      3.251      7.243
REMARK  Name = CHEMBL457997
REMARK  10 active torsions:
REMARK  status: ('A' for Active; 'I' for Inactive)
REMARK    1  A    between atoms: C_1  and  O_2
REMARK    2  A    between atoms: O_2  and  C_3
REMARK    3  A    between atoms: C_6  and  S_7
REMARK    4  A    between atoms: S_7  and  N_10
REMARK    5  A    between atoms: N_10  and  C_11
REMARK    6  A    between atoms: N_10  and  C_24
REMARK    7  A    between atoms: C_11  and  C_12
REMARK    8  A    between atoms: C_15  and  C_16
REMARK    9  A    between atoms: C_27  and  O_28
REMARK   10  A    between atoms: O_28  and  C_29
REMARK                            x       y       z     vdW  Elec       q    Type
REMARK                         _______ _______ _______ _____ _____    ______ ____
ROOT
ATOM      1  N   UNL     1      -6.972   1.917 131.618  0.00  0.00    +0.000 N 
ENDROOT
BRANCH   1   2
ATOM      2  C   UNL     1      -6.483   3.231 131.236  0.00  0.00    +0.000 A 
ATOM      3  C   UNL     1      -5.659   3.994 132.049  0.00  0.00    +0.000 A 
ATOM      4  C   UNL     1      -5.271   5.268 131.629  0.00  0.00    +0.000 A 
ATOM      5  C   UNL     1      -5.676   5.743 130.388  0.00  0.00    +0.000 A 
ATOM      6  N   UNL     1      -6.431   4.999 129.553  0.00  0.00    +0.000 NA
ATOM      7  C   UNL     1      -6.817   3.777 129.998  0.00  0.00    +0.000 A 
BRANCH   5   8
ATOM      8  O   UNL     1      -5.342   6.981 129.903  0.00  0.00    +0.000 OA
ATOM      9  C   UNL     1      -4.216   7.610 130.512  0.00  0.00    +0.000 C 
ENDBRANCH   5   8
ENDBRANCH   1   2
BRANCH   1  10
ATOM     10  S   UNL     1      -6.304   0.612 130.687  0.00  0.00    +0.000 S 
ATOM     11  O   UNL     1      -5.828  -0.428 131.570  0.00  0.00    +0.000 OA
ATOM     12  O   UNL     1      -5.409   1.219 129.714  0.00  0.00    +0.000 OA
BRANCH  10  16
ATOM     13  C   UNL     1      -8.362  -2.101 126.776  0.00  0.00    +0.000 A 
ATOM     14  C   UNL     1      -8.053  -2.719 128.474  0.00  0.00    +0.000 A 
ATOM     15  C   UNL     1      -7.710  -1.751 129.845  0.00  0.00    +0.000 A 
ATOM     16  C   UNL     1      -7.571  -0.236 129.795  0.00  0.00    +0.000 A 
ATOM     17  C   UNL     1      -7.932   0.539 128.439  0.00  0.00    +0.000 A 
ATOM     18  C   UNL     1      -8.273  -0.215 126.578  0.00  0.00    +0.000 A 
BRANCH  13  20
ATOM     19  C   UNL     1      -7.979  -3.443 125.137  0.00  0.00    +0.000 C 
ATOM     20  O   UNL     1      -8.922  -3.090 126.071  0.00  0.00    +0.000 OA
ENDBRANCH  13  20
ENDBRANCH  10  16
ENDBRANCH   1  10
BRANCH   1  21
ATOM     21  C   UNL     1      -7.909   1.957 132.843  0.00  0.00    +0.000 C 
BRANCH  21  22
ATOM     22  C   UNL     1      -9.336   2.753 132.943  0.00  0.00    +0.000 A 
ATOM     23  C   UNL     1      -8.913   4.157 133.904  0.00  0.00    +0.000 A 
ATOM     24  C   UNL     1      -8.931   5.720 133.073  0.00  0.00    +0.000 A 
ATOM     25  C   UNL     1      -9.627   5.805 131.097  0.00  0.00    +0.000 A 
ATOM     26  C   UNL     1     -10.192   4.205 130.440  0.00  0.00    +0.000 A 
ATOM     27  N   UNL     1     -10.084   2.758 131.355  0.00  0.00    +0.000 NA
BRANCH  25  28
ATOM     28  C   UNL     1     -10.863   6.691 130.346  0.00  0.00    +0.000 A 
ATOM     29  C   UNL     1     -12.110   7.206 130.847  0.00  0.00    +0.000 A 
ATOM     30  C   UNL     1     -12.746   8.142 130.014  0.00  0.00    +0.000 A 
ATOM     31  C   UNL     1     -12.070   8.766 128.941  0.00  0.00    +0.000 A 
ATOM     32  C   UNL     1     -10.812   8.407 128.598  0.00  0.00    +0.000 A 
ATOM     33  C   UNL     1     -10.352   7.302 129.216  0.00  0.00    +0.000 A 
ENDBRANCH  25  28
ENDBRANCH  21  22
ENDBRANCH   1  21
TORSDOF 8
ENDMDL
MODEL 3
REMARK VINA RESULT:      -8.9      6.695      7.949
REMARK  Name = CHEMBL457997
REMARK  10 active torsions:
REMARK  status: ('A' for Active; 'I' for Inactive)
REMARK    1  A    between atoms: C_1  and  O_2
REMARK    2  A    between atoms: O_2  and  C_3
REMARK    3  A    between atoms: C_6  and  S_7
REMARK    4  A    between atoms: S_7  and  N_10
REMARK    5  A    between atoms: N_10  and  C_11
REMARK    6  A    between atoms: N_10  and  C_24
REMARK    7  A    between atoms: C_11  and  C_12
REMARK    8  A    between atoms: C_15  and  C_16
REMARK    9  A    between atoms: C_27  and  O_28
REMARK   10  A    between atoms: O_28  and  C_29
REMARK                            x       y       z     vdW  Elec       q    Type
REMARK                         _______ _______ _______ _____ _____    ______ ____
ROOT
ATOM      1  N   UNL     1      -8.446   2.308 123.868  0.00  0.00    +0.000 N 
ENDROOT
BRANCH   1   2
ATOM      2  C   UNL     1      -7.896   2.834 122.630  0.00  0.00    +0.000 A 
ATOM      3  C   UNL     1      -6.544   2.783 122.325  0.00  0.00    +0.000 A 
ATOM      4  C   UNL     1      -6.089   3.355 121.135  0.00  0.00    +0.000 A 
ATOM      5  C   UNL     1      -6.992   3.928 120.250  0.00  0.00    +0.000 A 
ATOM      6  N   UNL     1      -8.319   3.941 120.495  0.00  0.00    +0.000 NA
ATOM      7  C   UNL     1      -8.731   3.405 121.671  0.00  0.00    +0.000 A 
BRANCH   5   8
ATOM      8  O   UNL     1      -6.627   4.513 119.064  0.00  0.00    +0.000 OA
ATOM      9  C   UNL     1      -5.636   5.535 119.148  0.00  0.00    +0.000 C 
ENDBRANCH   5   8
ENDBRANCH   1   2
BRANCH   1  10
ATOM     10  S   UNL     1      -9.496   0.942 123.654  0.00  0.00    +0.000 S 
ATOM     11  O   UNL     1      -9.526   0.558 122.261  0.00  0.00    +0.000 OA
ATOM     12  O   UNL     1     -10.730   1.258 124.357  0.00  0.00    +0.000 OA
BRANCH  10  16
ATOM     13  C   UNL     1      -6.204  -1.781 126.593  0.00  0.00    +0.000 A 
ATOM     14  C   UNL     1      -7.977  -1.483 126.950  0.00  0.00    +0.000 A 
ATOM     15  C   UNL     1      -9.138  -0.897 125.836  0.00  0.00    +0.000 A 
ATOM     16  C   UNL     1      -8.808  -0.503 124.403  0.00  0.00    +0.000 A 
ATOM     17  C   UNL     1      -7.345  -0.806 123.824  0.00  0.00    +0.000 A 
ATOM     18  C   UNL     1      -5.662  -1.381 124.818  0.00  0.00    +0.000 A 
BRANCH  13  20
ATOM     19  C   UNL     1      -5.042  -1.674 128.403  0.00  0.00    +0.000 C 
ATOM     20  O   UNL     1      -5.706  -2.544 127.573  0.00  0.00    +0.000 OA
ENDBRANCH  13  20
ENDBRANCH  10  16
ENDBRANCH   1  10
BRANCH   1  21
ATOM     21  C   UNL     1      -7.895   3.019 125.121  0.00  0.00    +0.000 C 
BRANCH  21  22
ATOM     22  C   UNL     1      -7.205   2.295 126.417  0.00  0.00    +0.000 A 
ATOM     23  C   UNL     1      -5.578   1.979 125.845  0.00  0.00    +0.000 A 
ATOM     24  C   UNL     1      -4.279   2.919 126.594  0.00  0.00    +0.000 A 
ATOM     25  C   UNL     1      -4.741   4.174 128.208  0.00  0.00    +0.000 A 
ATOM     26  C   UNL     1      -6.491   4.130 128.704  0.00  0.00    +0.000 A 
ATOM     27  N   UNL     1      -7.652   3.190 127.859  0.00  0.00    +0.000 NA
BRANCH  25  28
ATOM     28  C   UNL     1      -4.164   4.267 129.800  0.00  0.00    +0.000 A 
ATOM     29  C   UNL     1      -4.023   3.268 130.826  0.00  0.00    +0.000 A 
ATOM     30  C   UNL     1      -3.235   3.649 131.925  0.00  0.00    +0.000 A 
ATOM     31  C   UNL     1      -2.392   4.782 131.881  0.00  0.00    +0.000 A 
ATOM     32  C   UNL     1      -2.389   5.616 130.816  0.00  0.00    +0.000 A 
ATOM     33  C   UNL     1      -3.372   5.394 129.923  0.00  0.00    +0.000 A 
ENDBRANCH  25  28
ENDBRANCH  21  22
ENDBRANCH   1  21
TORSDOF 8
ENDMDL
MODEL 4
REMARK VINA RESULT:      -8.8      4.149      8.029
REMARK  Name = CHEMBL457997
REMARK  10 active torsions:
REMARK  status: ('A' for Active; 'I' for Inactive)
REMARK    1  A    between atoms: C_1  and  O_2
REMARK    2  A    between atoms: O_2  and  C_3
REMARK    3  A    between atoms: C_6  and  S_7
REMARK    4  A    between atoms: S_7  and  N_10
REMARK    5  A    between atoms: N_10  and  C_11
REMARK    6  A    between atoms: N_10  and  C_24
REMARK    7  A    between atoms: C_11  and  C_12
REMARK    8  A    between atoms: C_15  and  C_16
REMARK    9  A    between atoms: C_27  and  O_28
REMARK   10  A    between atoms: O_28  and  C_29
REMARK                            x       y       z     vdW  Elec       q    Type
REMARK                         _______ _______ _______ _____ _____    ______ ____
ROOT
ATOM      1  N   UNL     1      -9.136   4.181 130.718  0.00  0.00    +0.000 N 
ENDROOT
BRANCH   1   2
ATOM      2  C   UNL     1      -9.925   5.341 130.339  0.00  0.00    +0.000 A 
ATOM      3  C   UNL     1      -9.358   6.520 129.880  0.00  0.00    +0.000 A 
ATOM      4  C   UNL     1     -10.184   7.607 129.583  0.00  0.00    +0.000 A 
ATOM      5  C   UNL     1     -11.562   7.487 129.708  0.00  0.00    +0.000 A 
ATOM      6  N   UNL     1     -12.143   6.333 130.099  0.00  0.00    +0.000 NA
ATOM      7  C   UNL     1     -11.317   5.303 130.409  0.00  0.00    +0.000 A 
BRANCH   5   8
ATOM      8  O   UNL     1     -12.441   8.505 129.441  0.00  0.00    +0.000 OA
ATOM      9  C   UNL     1     -13.294   8.315 128.314  0.00  0.00    +0.000 C 
ENDBRANCH   5   8
ENDBRANCH   1   2
BRANCH   1  10
ATOM     10  S   UNL     1      -8.408   4.300 132.290  0.00  0.00    +0.000 S 
ATOM     11  O   UNL     1      -8.132   2.978 132.805  0.00  0.00    +0.000 OA
ATOM     12  O   UNL     1      -9.227   5.230 133.051  0.00  0.00    +0.000 OA
BRANCH  10  16
ATOM     13  C   UNL     1      -4.133   6.043 129.929  0.00  0.00    +0.000 A 
ATOM     14  C   UNL     1      -5.349   7.059 130.849  0.00  0.00    +0.000 A 
ATOM     15  C   UNL     1      -6.552   6.463 131.912  0.00  0.00    +0.000 A 
ATOM     16  C   UNL     1      -6.783   4.983 132.180  0.00  0.00    +0.000 A 
ATOM     17  C   UNL     1      -5.750   3.910 131.589  0.00  0.00    +0.000 A 
ATOM     18  C   UNL     1      -4.271   4.170 130.213  0.00  0.00    +0.000 A 
BRANCH  13  20
ATOM     19  C   UNL     1      -3.128   6.665 128.129  0.00  0.00    +0.000 C 
ATOM     20  O   UNL     1      -3.163   6.852 129.489  0.00  0.00    +0.000 OA
ENDBRANCH  13  20
ENDBRANCH  10  16
ENDBRANCH   1  10
BRANCH   1  21
ATOM     21  C   UNL     1      -9.198   3.045 129.676  0.00  0.00    +0.000 C 
BRANCH  21  22
ATOM     22  C   UNL     1      -7.944   2.480 128.787  0.00  0.00    +0.000 A 
ATOM     23  C   UNL     1      -7.307   1.206 129.808  0.00  0.00    +0.000 A 
ATOM     24  C   UNL     1      -7.518  -0.454 129.228  0.00  0.00    +0.000 A 
ATOM     25  C   UNL     1      -8.323  -0.760 127.317  0.00  0.00    +0.000 A 
ATOM     26  C   UNL     1      -8.697   0.775 126.414  0.00  0.00    +0.000 A 
ATOM     27  N   UNL     1      -8.469   2.322 127.120  0.00  0.00    +0.000 NA
BRANCH  25  28
ATOM     28  C   UNL     1      -7.754  -1.576 125.943  0.00  0.00    +0.000 A 
ATOM     29  C   UNL     1      -6.454  -1.619 125.326  0.00  0.00    +0.000 A 
ATOM     30  C   UNL     1      -6.282  -2.633 124.368  0.00  0.00    +0.000 A 
ATOM     31  C   UNL     1      -7.187  -3.712 124.254  0.00  0.00    +0.000 A 
ATOM     32  C   UNL     1      -8.322  -3.760 124.989  0.00  0.00    +0.000 A 
ATOM     33  C   UNL     1      -8.605  -2.630 125.664  0.00  0.00    +0.000 A 
ENDBRANCH  25  28
ENDBRANCH  21  22
ENDBRANCH   1  21
TORSDOF 8
ENDMDL
MODEL 5
REMARK VINA RESULT:      -8.7      4.741      8.353
REMARK  Name = CHEMBL457997
REMARK  10 active torsions:
REMARK  status: ('A' for Active; 'I' for Inactive)
REMARK    1  A    between atoms: C_1  and  O_2
REMARK    2  A    between atoms: O_2  and  C_3
REMARK    3  A    between atoms: C_6  and  S_7
REMARK    4  A    between atoms: S_7  and  N_10
REMARK    5  A    between atoms: N_10  and  C_11
REMARK    6  A    between atoms: N_10  and  C_24
REMARK    7  A    between atoms: C_11  and  C_12
REMARK    8  A    between atoms: C_15  and  C_16
REMARK    9  A    between atoms: C_27  and  O_28
REMARK   10  A    between atoms: O_28  and  C_29
REMARK                            x       y       z     vdW  Elec       q    Type
REMARK                         _______ _______ _______ _____ _____    ______ ____
ROOT
ATOM      1  N   UNL     1      -6.929   1.669 131.573  0.00  0.00    +0.000 N 
ENDROOT
BRANCH   1   2
ATOM      2  C   UNL     1      -6.960   0.286 131.130  0.00  0.00    +0.000 A 
ATOM      3  C   UNL     1      -8.075  -0.291 130.539  0.00  0.00    +0.000 A 
ATOM      4  C   UNL     1      -8.040  -1.642 130.185  0.00  0.00    +0.000 A 
ATOM      5  C   UNL     1      -6.884  -2.383 130.386  0.00  0.00    +0.000 A 
ATOM      6  N   UNL     1      -5.766  -1.832 130.906  0.00  0.00    +0.000 NA
ATOM      7  C   UNL     1      -5.836  -0.527 131.268  0.00  0.00    +0.000 A 
BRANCH   5   8
ATOM      8  O   UNL     1      -6.769  -3.712 130.069  0.00  0.00    +0.000 OA
ATOM      9  C   UNL     1      -5.748  -4.434 130.755  0.00  0.00    +0.000 C 
ENDBRANCH   5   8
ENDBRANCH   1   2
BRANCH   1  10
ATOM     10  S   UNL     1      -6.108   2.745 130.484  0.00  0.00    +0.000 S 
ATOM     11  O   UNL     1      -4.690   2.470 130.498  0.00  0.00    +0.000 OA
ATOM     12  O   UNL     1      -6.603   4.081 130.778  0.00  0.00    +0.000 OA
BRANCH  10  16
ATOM     13  C   UNL     1      -7.815  -0.147 126.532  0.00  0.00    +0.000 A 
ATOM     14  C   UNL     1      -8.661   1.314 127.246  0.00  0.00    +0.000 A 
ATOM     15  C   UNL     1      -7.954   2.467 128.296  0.00  0.00    +0.000 A 
ATOM     16  C   UNL     1      -6.523   2.377 128.807  0.00  0.00    +0.000 A 
ATOM     17  C   UNL     1      -5.547   1.255 128.209  0.00  0.00    +0.000 A 
ATOM     18  C   UNL     1      -5.997  -0.353 127.043  0.00  0.00    +0.000 A 
BRANCH  13  20
ATOM     19  C   UNL     1      -8.819  -1.915 125.824  0.00  0.00    +0.000 C 
ATOM     20  O   UNL     1      -8.557  -0.602 125.517  0.00  0.00    +0.000 OA
ENDBRANCH  13  20
ENDBRANCH  10  16
ENDBRANCH   1  10
BRANCH   1  21
ATOM     21  C   UNL     1      -7.724   1.903 132.875  0.00  0.00    +0.000 C 
BRANCH  21  22
ATOM     22  C   UNL     1      -9.178   2.644 132.998  0.00  0.00    +0.000 A 
ATOM     23  C   UNL     1      -8.805   4.033 134.001  0.00  0.00    +0.000 A 
ATOM     24  C   UNL     1      -8.880   5.618 133.218  0.00  0.00    +0.000 A 
ATOM     25  C   UNL     1      -9.581   5.738 131.245  0.00  0.00    +0.000 A 
ATOM     26  C   UNL     1     -10.089   4.139 130.541  0.00  0.00    +0.000 A 
ATOM     27  N   UNL     1      -9.927   2.669 131.412  0.00  0.00    +0.000 NA
BRANCH  25  28
ATOM     28  C   UNL     1     -10.850   6.600 130.522  0.00  0.00    +0.000 A 
ATOM     29  C   UNL     1     -12.103   7.075 131.045  0.00  0.00    +0.000 A 
ATOM     30  C   UNL     1     -12.774   8.006 130.233  0.00  0.00    +0.000 A 
ATOM     31  C   UNL     1     -12.128   8.661 129.160  0.00  0.00    +0.000 A 
ATOM     32  C   UNL     1     -10.865   8.341 128.798  0.00  0.00    +0.000 A 
ATOM     33  C   UNL     1     -10.369   7.241 129.394  0.00  0.00    +0.000 A 
ENDBRANCH  25  28
ENDBRANCH  21  22
ENDBRANCH   1  21
TORSDOF 8
ENDMDL
MODEL 6
REMARK VINA RESULT:      -8.7      4.026      9.698
REMARK  Name = CHEMBL457997
REMARK  10 active torsions:
REMARK  status: ('A' for Active; 'I' for Inactive)
REMARK    1  A    between atoms: C_1  and  O_2
REMARK    2  A    between atoms: O_2  and  C_3
REMARK    3  A    between atoms: C_6  and  S_7
REMARK    4  A    between atoms: S_7  and  N_10
REMARK    5  A    between atoms: N_10  and  C_11
REMARK    6  A    between atoms: N_10  and  C_24
REMARK    7  A    between atoms: C_11  and  C_12
REMARK    8  A    between atoms: C_15  and  C_16
REMARK    9  A    between atoms: C_27  and  O_28
REMARK   10  A    between atoms: O_28  and  C_29
REMARK                            x       y       z     vdW  Elec       q    Type
REMARK                         _______ _______ _______ _____ _____    ______ ____
ROOT
ATOM      1  N   UNL     1      -8.406   4.489 130.984  0.00  0.00    +0.000 N 
ENDROOT
BRANCH   1   2
ATOM      2  C   UNL     1      -7.532   3.996 132.035  0.00  0.00    +0.000 A 
ATOM      3  C   UNL     1      -7.947   3.083 132.993  0.00  0.00    +0.000 A 
ATOM      4  C   UNL     1      -7.060   2.697 134.000  0.00  0.00    +0.000 A 
ATOM      5  C   UNL     1      -5.764   3.193 134.011  0.00  0.00    +0.000 A 
ATOM      6  N   UNL     1      -5.316   4.038 133.059  0.00  0.00    +0.000 NA
ATOM      7  C   UNL     1      -6.207   4.420 132.109  0.00  0.00    +0.000 A 
BRANCH   5   8
ATOM      8  O   UNL     1      -4.834   2.866 134.965  0.00  0.00    +0.000 OA
ATOM      9  C   UNL     1      -4.101   1.663 134.740  0.00  0.00    +0.000 C 
ENDBRANCH   5   8
ENDBRANCH   1   2
BRANCH   1  10
ATOM     10  S   UNL     1      -8.829   6.166 131.140  0.00  0.00    +0.000 S 
ATOM     11  O   UNL     1      -7.830   6.987 130.497  0.00  0.00    +0.000 OA
ATOM     12  O   UNL     1      -9.164   6.375 132.540  0.00  0.00    +0.000 OA
BRANCH  10  16
ATOM     13  C   UNL     1     -12.778   9.061 129.432  0.00  0.00    +0.000 A 
ATOM     14  C   UNL     1     -11.299   8.573 128.465  0.00  0.00    +0.000 A 
ATOM     15  C   UNL     1     -10.181   7.349 128.894  0.00  0.00    +0.000 A 
ATOM     16  C   UNL     1     -10.266   6.543 130.183  0.00  0.00    +0.000 A 
ATOM     17  C   UNL     1     -11.554   6.703 131.123  0.00  0.00    +0.000 A 
ATOM     18  C   UNL     1     -13.039   8.095 131.046  0.00  0.00    +0.000 A 
BRANCH  13  20
ATOM     19  C   UNL     1     -13.772  10.967 129.304  0.00  0.00    +0.000 C 
ATOM     20  O   UNL     1     -13.575   9.783 128.636  0.00  0.00    +0.000 OA
ENDBRANCH  13  20
ENDBRANCH  10  16
ENDBRANCH   1  10
BRANCH   1  21
ATOM     21  C   UNL     1      -8.689   3.435 129.893  0.00  0.00    +0.000 C 
BRANCH  21  22
ATOM     22  C   UNL     1      -7.612   2.859 128.804  0.00  0.00    +0.000 A 
ATOM     23  C   UNL     1      -6.815   1.584 129.705  0.00  0.00    +0.000 A 
ATOM     24  C   UNL     1      -7.133  -0.076 129.179  0.00  0.00    +0.000 A 
ATOM     25  C   UNL     1      -8.258  -0.385 127.437  0.00  0.00    +0.000 A 
ATOM     26  C   UNL     1      -8.774   1.149 126.605  0.00  0.00    +0.000 A 
ATOM     27  N   UNL     1      -8.419   2.698 127.254  0.00  0.00    +0.000 NA
BRANCH  25  28
ATOM     28  C   UNL     1      -7.941  -1.209 125.989  0.00  0.00    +0.000 A 
ATOM     29  C   UNL     1      -6.754  -1.297 125.179  0.00  0.00    +0.000 A 
ATOM     30  C   UNL     1      -6.772  -2.309 124.203  0.00  0.00    +0.000 A 
ATOM     31  C   UNL     1      -7.726  -3.351 124.228  0.00  0.00    +0.000 A 
ATOM     32  C   UNL     1      -8.735  -3.361 125.128  0.00  0.00    +0.000 A 
ATOM     33  C   UNL     1      -8.865  -2.227 125.842  0.00  0.00    +0.000 A 
ENDBRANCH  25  28
ENDBRANCH  21  22
ENDBRANCH   1  21
TORSDOF 8
ENDMDL
MODEL 7
REMARK VINA RESULT:      -8.7      3.550      7.421
REMARK  Name = CHEMBL457997
REMARK  10 active torsions:
REMARK  status: ('A' for Active; 'I' for Inactive)
REMARK    1  A    between atoms: C_1  and  O_2
REMARK    2  A    between atoms: O_2  and  C_3
REMARK    3  A    between atoms: C_6  and  S_7
REMARK    4  A    between atoms: S_7  and  N_10
REMARK    5  A    between atoms: N_10  and  C_11
REMARK    6  A    between atoms: N_10  and  C_24
REMARK    7  A    between atoms: C_11  and  C_12
REMARK    8  A    between atoms: C_15  and  C_16
REMARK    9  A    between atoms: C_27  and  O_28
REMARK   10  A    between atoms: O_28  and  C_29
REMARK                            x       y       z     vdW  Elec       q    Type
REMARK                         _______ _______ _______ _____ _____    ______ ____
ROOT
ATOM      1  N   UNL     1      -6.936   2.190 131.364  0.00  0.00    +0.000 N 
ENDROOT
BRANCH   1   2
ATOM      2  C   UNL     1      -6.497   3.562 131.172  0.00  0.00    +0.000 A 
ATOM      3  C   UNL     1      -5.777   4.264 132.128  0.00  0.00    +0.000 A 
ATOM      4  C   UNL     1      -5.435   5.596 131.886  0.00  0.00    +0.000 A 
ATOM      5  C   UNL     1      -5.778   6.193 130.681  0.00  0.00    +0.000 A 
ATOM      6  N   UNL     1      -6.429   5.516 129.710  0.00  0.00    +0.000 NA
ATOM      7  C   UNL     1      -6.775   4.233 129.983  0.00  0.00    +0.000 A 
BRANCH   5   8
ATOM      8  O   UNL     1      -5.483   7.494 130.367  0.00  0.00    +0.000 OA
ATOM      9  C   UNL     1      -4.099   7.841 130.366  0.00  0.00    +0.000 C 
ENDBRANCH   5   8
ENDBRANCH   1   2
BRANCH   1  10
ATOM     10  S   UNL     1      -6.176   1.047 130.301  0.00  0.00    +0.000 S 
ATOM     11  O   UNL     1      -6.716  -0.274 130.532  0.00  0.00    +0.000 OA
ATOM     12  O   UNL     1      -4.745   1.285 130.398  0.00  0.00    +0.000 OA
BRANCH  10  16
ATOM     13  C   UNL     1      -7.497  -0.223 125.449  0.00  0.00    +0.000 A 
ATOM     14  C   UNL     1      -8.606   0.504 126.715  0.00  0.00    +0.000 A 
ATOM     15  C   UNL     1      -8.107   1.241 128.178  0.00  0.00    +0.000 A 
ATOM     16  C   UNL     1      -6.655   1.334 128.624  0.00  0.00    +0.000 A 
ATOM     17  C   UNL     1      -5.495   0.885 127.614  0.00  0.00    +0.000 A 
ATOM     18  C   UNL     1      -5.644  -0.128 125.852  0.00  0.00    +0.000 A 
BRANCH  13  20
ATOM     19  C   UNL     1      -8.140  -1.728 124.050  0.00  0.00    +0.000 C 
ATOM     20  O   UNL     1      -8.202  -0.383 124.323  0.00  0.00    +0.000 OA
ENDBRANCH  13  20
ENDBRANCH  10  16
ENDBRANCH   1  10
BRANCH   1  21
ATOM     21  C   UNL     1      -7.913   2.030 132.547  0.00  0.00    +0.000 C 
BRANCH  21  22
ATOM     22  C   UNL     1      -9.371   2.759 132.700  0.00  0.00    +0.000 A 
ATOM     23  C   UNL     1      -9.005   4.110 133.755  0.00  0.00    +0.000 A 
ATOM     24  C   UNL     1      -9.089   5.724 133.032  0.00  0.00    +0.000 A 
ATOM     25  C   UNL     1      -9.793   5.914 131.066  0.00  0.00    +0.000 A 
ATOM     26  C   UNL     1     -10.293   4.341 130.302  0.00  0.00    +0.000 A 
ATOM     27  N   UNL     1     -10.123   2.840 131.117  0.00  0.00    +0.000 NA
BRANCH  25  28
ATOM     28  C   UNL     1     -11.067   6.797 130.377  0.00  0.00    +0.000 A 
ATOM     29  C   UNL     1     -12.311   7.267 130.926  0.00  0.00    +0.000 A 
ATOM     30  C   UNL     1     -12.988   8.217 130.142  0.00  0.00    +0.000 A 
ATOM     31  C   UNL     1     -12.353   8.891 129.075  0.00  0.00    +0.000 A 
ATOM     32  C   UNL     1     -11.097   8.573 128.689  0.00  0.00    +0.000 A 
ATOM     33  C   UNL     1     -10.598   7.458 129.257  0.00  0.00    +0.000 A 
ENDBRANCH  25  28
ENDBRANCH  21  22
ENDBRANCH   1  21
TORSDOF 8
ENDMDL
MODEL 8
REMARK VINA RESULT:      -8.7      4.560      9.584
REMARK  Name = CHEMBL457997
REMARK  10 active torsions:
REMARK  status: ('A' for Active; 'I' for Inactive)
REMARK    1  A    between atoms: C_1  and  O_2
REMARK    2  A    between atoms: O_2  and  C_3
REMARK    3  A    between atoms: C_6  and  S_7
REMARK    4  A    between atoms: S_7  and  N_10
REMARK    5  A    between atoms: N_10  and  C_11
REMARK    6  A    between atoms: N_10  and  C_24
REMARK    7  A    between atoms: C_11  and  C_12
REMARK    8  A    between atoms: C_15  and  C_16
REMARK    9  A    between atoms: C_27  and  O_28
REMARK   10  A    between atoms: O_28  and  C_29
REMARK                            x       y       z     vdW  Elec       q    Type
REMARK                         _______ _______ _______ _____ _____    ______ ____
ROOT
ATOM      1  N   UNL     1      -7.901   4.472 129.995  0.00  0.00    +0.000 N 
ENDROOT
BRANCH   1   2
ATOM      2  C   UNL     1      -7.934   3.253 130.786  0.00  0.00    +0.000 A 
ATOM      3  C   UNL     1      -9.083   2.492 130.949  0.00  0.00    +0.000 A 
ATOM      4  C   UNL     1      -9.043   1.360 131.765  0.00  0.00    +0.000 A 
ATOM      5  C   UNL     1      -7.853   0.982 132.371  0.00  0.00    +0.000 A 
ATOM      6  N   UNL     1      -6.708   1.672 132.185  0.00  0.00    +0.000 NA
ATOM      7  C   UNL     1      -6.780   2.784 131.411  0.00  0.00    +0.000 A 
BRANCH   5   8
ATOM      8  O   UNL     1      -7.731  -0.112 133.189  0.00  0.00    +0.000 OA
ATOM      9  C   UNL     1      -7.617  -1.374 132.534  0.00  0.00    +0.000 C 
ENDBRANCH   5   8
ENDBRANCH   1   2
BRANCH   1  10
ATOM     10  S   UNL     1      -8.632   5.842 130.771  0.00  0.00    +0.000 S 
ATOM     11  O   UNL     1      -7.804   7.012 130.587  0.00  0.00    +0.000 OA
ATOM     12  O   UNL     1      -9.003   5.406 132.109  0.00  0.00    +0.000 OA
BRANCH  10  16
ATOM     13  C   UNL     1     -12.636   8.915 129.579  0.00  0.00    +0.000 A 
ATOM     14  C   UNL     1     -11.214   8.523 128.491  0.00  0.00    +0.000 A 
ATOM     15  C   UNL     1     -10.087   7.257 128.733  0.00  0.00    +0.000 A 
ATOM     16  C   UNL     1     -10.112   6.323 129.935  0.00  0.00    +0.000 A 
ATOM     17  C   UNL     1     -11.348   6.390 130.953  0.00  0.00    +0.000 A 
ATOM     18  C   UNL     1     -12.822   7.789 131.097  0.00  0.00    +0.000 A 
BRANCH  13  20
ATOM     19  C   UNL     1     -13.554  10.861 129.663  0.00  0.00    +0.000 C 
ATOM     20  O   UNL     1     -13.465   9.719 128.905  0.00  0.00    +0.000 OA
ENDBRANCH  13  20
ENDBRANCH  10  16
ENDBRANCH   1  10
BRANCH   1  21
ATOM     21  C   UNL     1      -7.128   4.308 128.670  0.00  0.00    +0.000 C 
BRANCH  21  22
ATOM     22  C   UNL     1      -7.772   3.899 127.221  0.00  0.00    +0.000 A 
ATOM     23  C   UNL     1      -6.428   4.163 126.127  0.00  0.00    +0.000 A 
ATOM     24  C   UNL     1      -5.707   2.722 125.395  0.00  0.00    +0.000 A 
ATOM     25  C   UNL     1      -6.614   0.860 125.727  0.00  0.00    +0.000 A 
ATOM     26  C   UNL     1      -8.121   0.940 126.742  0.00  0.00    +0.000 A 
ATOM     27  N   UNL     1      -8.686   2.414 127.417  0.00  0.00    +0.000 NA
BRANCH  25  28
ATOM     28  C   UNL     1      -7.231  -0.325 124.683  0.00  0.00    +0.000 A 
ATOM     29  C   UNL     1      -8.389  -0.338 123.829  0.00  0.00    +0.000 A 
ATOM     30  C   UNL     1      -8.424  -1.381 122.887  0.00  0.00    +0.000 A 
ATOM     31  C   UNL     1      -7.278  -2.151 122.586  0.00  0.00    +0.000 A 
ATOM     32  C   UNL     1      -6.123  -1.993 123.271  0.00  0.00    +0.000 A 
ATOM     33  C   UNL     1      -6.217  -1.209 124.362  0.00  0.00    +0.000 A 
ENDBRANCH  25  28
ENDBRANCH  21  22
ENDBRANCH   1  21
TORSDOF 8
ENDMDL
MODEL 9
REMARK VINA RESULT:      -8.6      4.958      8.917
REMARK  Name = CHEMBL457997
REMARK  10 active torsions:
REMARK  status: ('A' for Active; 'I' for Inactive)
REMARK    1  A    between atoms: C_1  and  O_2
REMARK    2  A    between atoms: O_2  and  C_3
REMARK    3  A    between atoms: C_6  and  S_7
REMARK    4  A    between atoms: S_7  and  N_10
REMARK    5  A    between atoms: N_10  and  C_11
REMARK    6  A    between atoms: N_10  and  C_24
REMARK    7  A    between atoms: C_11  and  C_12
REMARK    8  A    between atoms: C_15  and  C_16
REMARK    9  A    between atoms: C_27  and  O_28
REMARK   10  A    between atoms: O_28  and  C_29
REMARK                            x       y       z     vdW  Elec       q    Type
REMARK                         _______ _______ _______ _____ _____    ______ ____
ROOT
ATOM      1  N   UNL     1      -7.301  -0.073 131.585  0.00  0.00    +0.000 N 
ENDROOT
BRANCH   1   2
ATOM      2  C   UNL     1      -8.171   0.969 131.067  0.00  0.00    +0.000 A 
ATOM      3  C   UNL     1      -8.041   1.494 129.790  0.00  0.00    +0.000 A 
ATOM      4  C   UNL     1      -8.887   2.529 129.385  0.00  0.00    +0.000 A 
ATOM      5  C   UNL     1      -9.875   2.993 130.243  0.00  0.00    +0.000 A 
ATOM      6  N   UNL     1     -10.060   2.463 131.470  0.00  0.00    +0.000 NA
ATOM      7  C   UNL     1      -9.206   1.479 131.849  0.00  0.00    +0.000 A 
BRANCH   5   8
ATOM      8  O   UNL     1     -10.743   4.006 129.925  0.00  0.00    +0.000 OA
ATOM      9  C   UNL     1     -10.751   5.126 130.808  0.00  0.00    +0.000 C 
ENDBRANCH   5   8
ENDBRANCH   1   2
BRANCH   1  10
ATOM     10  S   UNL     1      -6.098   0.496 132.701  0.00  0.00    +0.000 S 
ATOM     11  O   UNL     1      -4.987  -0.427 132.740  0.00  0.00    +0.000 OA
ATOM     12  O   UNL     1      -6.806   0.849 133.922  0.00  0.00    +0.000 OA
BRANCH  10  16
ATOM     13  C   UNL     1      -5.210   4.382 129.384  0.00  0.00    +0.000 A 
ATOM     14  C   UNL     1      -5.969   4.533 131.046  0.00  0.00    +0.000 A 
ATOM     15  C   UNL     1      -5.945   3.336 132.269  0.00  0.00    +0.000 A 
ATOM     16  C   UNL     1      -5.318   1.960 132.092  0.00  0.00    +0.000 A 
ATOM     17  C   UNL     1      -4.475   1.649 130.765  0.00  0.00    +0.000 A 
ATOM     18  C   UNL     1      -4.341   2.729 129.043  0.00  0.00    +0.000 A 
BRANCH  13  20
ATOM     19  C   UNL     1      -3.792   5.818 128.633  0.00  0.00    +0.000 C 
ATOM     20  O   UNL     1      -5.132   5.607 128.851  0.00  0.00    +0.000 OA
ENDBRANCH  13  20
ENDBRANCH  10  16
ENDBRANCH   1  10
BRANCH   1  21
ATOM     21  C   UNL     1      -7.699  -1.484 131.105  0.00  0.00    +0.000 C 
BRANCH  21  22
ATOM     22  C   UNL     1      -6.846  -2.433 130.079  0.00  0.00    +0.000 A 
ATOM     23  C   UNL     1      -8.095  -3.442 129.377  0.00  0.00    +0.000 A 
ATOM     24  C   UNL     1      -8.462  -3.173 127.666  0.00  0.00    +0.000 A 
ATOM     25  C   UNL     1      -7.272  -1.835 126.577  0.00  0.00    +0.000 A 
ATOM     26  C   UNL     1      -5.917  -1.095 127.539  0.00  0.00    +0.000 A 
ATOM     27  N   UNL     1      -5.703  -1.425 129.210  0.00  0.00    +0.000 NA
BRANCH  25  28
ATOM     28  C   UNL     1      -6.344  -2.000 125.166  0.00  0.00    +0.000 A 
ATOM     29  C   UNL     1      -5.420  -3.019 124.743  0.00  0.00    +0.000 A 
ATOM     30  C   UNL     1      -5.061  -2.972 123.385  0.00  0.00    +0.000 A 
ATOM     31  C   UNL     1      -5.786  -2.200 122.449  0.00  0.00    +0.000 A 
ATOM     32  C   UNL     1      -6.792  -1.385 122.837  0.00  0.00    +0.000 A 
ATOM     33  C   UNL     1      -6.905  -1.223 124.169  0.00  0.00    +0.000 A 
ENDBRANCH  25  28
ENDBRANCH  21  22
ENDBRANCH   1  21
TORSDOF 8
ENDMDL
