MODEL 1
REMARK VINA RESULT:      -8.5      0.000      0.000
REMARK  Name = CHEMBL4218211
REMARK  5 active torsions:
REMARK  status: ('A' for Active; 'I' for Inactive)
REMARK    1  A    between atoms: C_1  and  C_2
REMARK    2  A    between atoms: C_2  and  C_3
REMARK    3  A    between atoms: C_3  and  C_4
REMARK    4  A    between atoms: C_4  and  C_5
REMARK    5  A    between atoms: C_8  and  C_9
REMARK                            x       y       z     vdW  Elec       q    Type
REMARK                         _______ _______ _______ _____ _____    ______ ____
ROOT
ATOM      1  C   UNL     1      -8.878   1.410 131.352  0.00  0.00    +0.000 C 
ATOM      2  O   UNL     1      -8.770   1.897 132.612  0.00  0.00    +0.000 OA
ATOM      3  N   UNL     1      -8.322  -0.411 130.708  0.00  0.00    +0.000 N 
ATOM      4  C   UNL     1      -7.971   0.131 131.959  0.00  0.00    +0.000 C 
ATOM      5  C   UNL     1      -7.949  -0.009 130.332  0.00  0.00    +0.000 C 
ATOM      6  C   UNL     1      -7.170  -1.366 131.623  0.00  0.00    +0.000 C 
ATOM      7  C   UNL     1      -7.155  -2.157 129.682  0.00  0.00    +0.000 C 
ATOM      8  C   UNL     1      -6.576  -3.196 130.869  0.00  0.00    +0.000 A 
ATOM      9  C   UNL     1      -6.292  -3.666 132.166  0.00  0.00    +0.000 A 
ATOM     10  C   UNL     1      -5.529  -4.754 132.243  0.00  0.00    +0.000 A 
ATOM     11  C   UNL     1      -5.590  -5.274 131.040  0.00  0.00    +0.000 A 
ATOM     12  C   UNL     1      -6.463  -4.014 130.030  0.00  0.00    +0.000 A 
ATOM     13  C   UNL     1      -7.448  -2.347 130.203  0.00  0.00    +0.000 A 
ENDROOT
BRANCH   1  17
ATOM     14  C   UNL     1     -11.646   6.314 131.157  0.00  0.00    +0.000 A 
ATOM     15  C   UNL     1     -10.686   6.192 132.131  0.00  0.00    +0.000 A 
ATOM     16  C   UNL     1      -9.695   4.823 132.188  0.00  0.00    +0.000 A 
ATOM     17  C   UNL     1      -9.692   3.277 131.358  0.00  0.00    +0.000 A 
ATOM     18  C   UNL     1     -10.693   3.813 130.513  0.00  0.00    +0.000 A 
ATOM     19  C   UNL     1     -11.623   5.162 130.372  0.00  0.00    +0.000 A 
BRANCH  14  20
ATOM     20  C   UNL     1     -12.569   7.501 130.933  0.00  0.00    +0.000 C 
BRANCH  20  21
ATOM     21  C   UNL     1     -12.909   7.644 129.455  0.00  0.00    +0.000 C 
BRANCH  21  23
ATOM     22  C   UNL     1     -10.964   8.486 128.184  0.00  0.00    +0.000 C 
ATOM     23  C   UNL     1     -12.271   8.869 128.842  0.00  0.00    +0.000 C 
ENDBRANCH  21  23
ENDBRANCH  20  21
ENDBRANCH  14  20
ENDBRANCH   1  17
TORSDOF 4
ENDMDL
MODEL 2
REMARK VINA RESULT:      -8.1      1.998     10.471
REMARK  Name = CHEMBL4218211
REMARK  5 active torsions:
REMARK  status: ('A' for Active; 'I' for Inactive)
REMARK    1  A    between atoms: C_1  and  C_2
REMARK    2  A    between atoms: C_2  and  C_3
REMARK    3  A    between atoms: C_3  and  C_4
REMARK    4  A    between atoms: C_4  and  C_5
REMARK    5  A    between atoms: C_8  and  C_9
REMARK                            x       y       z     vdW  Elec       q    Type
REMARK                         _______ _______ _______ _____ _____    ______ ____
ROOT
ATOM      1  C   UNL     1     -10.078   4.651 131.210  0.00  0.00    +0.000 C 
ATOM      2  O   UNL     1      -9.794   4.808 132.525  0.00  0.00    +0.000 OA
ATOM      3  N   UNL     1     -10.944   5.995 129.990  0.00  0.00    +0.000 N 
ATOM      4  C   UNL     1     -10.890   6.112 131.393  0.00  0.00    +0.000 C 
ATOM      5  C   UNL     1     -11.369   5.485 129.963  0.00  0.00    +0.000 C 
ATOM      6  C   UNL     1     -11.879   7.324 130.650  0.00  0.00    +0.000 C 
ATOM      7  C   UNL     1     -12.493   7.127 128.656  0.00  0.00    +0.000 C 
ATOM      8  C   UNL     1     -12.812   8.626 129.345  0.00  0.00    +0.000 A 
ATOM      9  C   UNL     1     -12.768   9.657 130.304  0.00  0.00    +0.000 A 
ATOM     10  C   UNL     1     -13.571  10.696 130.086  0.00  0.00    +0.000 A 
ATOM     11  C   UNL     1     -13.887  10.596 128.817  0.00  0.00    +0.000 A 
ATOM     12  C   UNL     1     -13.220   8.967 128.295  0.00  0.00    +0.000 A 
ATOM     13  C   UNL     1     -12.086   7.521 128.926  0.00  0.00    +0.000 A 
ENDROOT
BRANCH   1  17
ATOM     14  C   UNL     1      -7.765  -0.323 132.496  0.00  0.00    +0.000 A 
ATOM     15  C   UNL     1      -7.006   0.790 132.758  0.00  0.00    +0.000 A 
ATOM     16  C   UNL     1      -7.656   2.338 132.548  0.00  0.00    +0.000 A 
ATOM     17  C   UNL     1      -9.136   2.959 131.839  0.00  0.00    +0.000 A 
ATOM     18  C   UNL     1      -9.579   1.616 131.772  0.00  0.00    +0.000 A 
ATOM     19  C   UNL     1      -9.014   0.095 132.038  0.00  0.00    +0.000 A 
BRANCH  14  20
ATOM     20  C   UNL     1      -7.352  -1.773 132.692  0.00  0.00    +0.000 C 
BRANCH  20  21
ATOM     21  C   UNL     1      -6.434  -2.225 131.563  0.00  0.00    +0.000 C 
BRANCH  21  23
ATOM     22  C   UNL     1      -6.913  -3.644 129.598  0.00  0.00    +0.000 C 
ATOM     23  C   UNL     1      -6.750  -3.629 131.102  0.00  0.00    +0.000 C 
ENDBRANCH  21  23
ENDBRANCH  20  21
ENDBRANCH  14  20
ENDBRANCH   1  17
TORSDOF 4
ENDMDL
MODEL 3
REMARK VINA RESULT:      -8.0      1.804     10.565
REMARK  Name = CHEMBL4218211
REMARK  5 active torsions:
REMARK  status: ('A' for Active; 'I' for Inactive)
REMARK    1  A    between atoms: C_1  and  C_2
REMARK    2  A    between atoms: C_2  and  C_3
REMARK    3  A    between atoms: C_3  and  C_4
REMARK    4  A    between atoms: C_4  and  C_5
REMARK    5  A    between atoms: C_8  and  C_9
REMARK                            x       y       z     vdW  Elec       q    Type
REMARK                         _______ _______ _______ _____ _____    ______ ____
ROOT
ATOM      1  C   UNL     1      -9.932   3.520 130.351  0.00  0.00    +0.000 C 
ATOM      2  O   UNL     1      -9.344   3.280 129.154  0.00  0.00    +0.000 OA
ATOM      3  N   UNL     1     -11.151   5.050 130.816  0.00  0.00    +0.000 N 
ATOM      4  C   UNL     1     -10.378   4.977 129.641  0.00  0.00    +0.000 C 
ATOM      5  C   UNL     1     -10.649   5.134 131.244  0.00  0.00    +0.000 C 
ATOM      6  C   UNL     1     -11.160   6.508 129.842  0.00  0.00    +0.000 C 
ATOM      7  C   UNL     1     -11.994   7.047 131.688  0.00  0.00    +0.000 C 
ATOM      8  C   UNL     1     -12.374   8.078 130.416  0.00  0.00    +0.000 A 
ATOM      9  C   UNL     1     -12.454   8.535 129.087  0.00  0.00    +0.000 A 
ATOM     10  C   UNL     1     -12.885   9.784 128.919  0.00  0.00    +0.000 A 
ATOM     11  C   UNL     1     -13.466  10.077 130.057  0.00  0.00    +0.000 A 
ATOM     12  C   UNL     1     -13.058   8.673 131.168  0.00  0.00    +0.000 A 
ATOM     13  C   UNL     1     -12.263   6.900 131.140  0.00  0.00    +0.000 A 
ENDROOT
BRANCH   1  17
ATOM     14  C   UNL     1      -7.542  -1.524 131.123  0.00  0.00    +0.000 A 
ATOM     15  C   UNL     1      -7.204  -0.857 129.972  0.00  0.00    +0.000 A 
ATOM     16  C   UNL     1      -7.747   0.723 129.708  0.00  0.00    +0.000 A 
ATOM     17  C   UNL     1      -8.894   1.775 130.518  0.00  0.00    +0.000 A 
ATOM     18  C   UNL     1      -8.935   0.811 131.553  0.00  0.00    +0.000 A 
ATOM     19  C   UNL     1      -8.364  -0.695 131.885  0.00  0.00    +0.000 A 
BRANCH  14  20
ATOM     20  C   UNL     1      -7.087  -2.915 131.536  0.00  0.00    +0.000 C 
BRANCH  20  21
ATOM     21  C   UNL     1      -6.767  -3.760 130.309  0.00  0.00    +0.000 C 
BRANCH  21  23
ATOM     22  C   UNL     1      -5.368  -4.941 131.968  0.00  0.00    +0.000 C 
ATOM     23  C   UNL     1      -5.524  -4.596 130.504  0.00  0.00    +0.000 C 
ENDBRANCH  21  23
ENDBRANCH  20  21
ENDBRANCH  14  20
ENDBRANCH   1  17
TORSDOF 4
ENDMDL
MODEL 4
REMARK VINA RESULT:      -8.0      6.759      9.356
REMARK  Name = CHEMBL4218211
REMARK  5 active torsions:
REMARK  status: ('A' for Active; 'I' for Inactive)
REMARK    1  A    between atoms: C_1  and  C_2
REMARK    2  A    between atoms: C_2  and  C_3
REMARK    3  A    between atoms: C_3  and  C_4
REMARK    4  A    between atoms: C_4  and  C_5
REMARK    5  A    between atoms: C_8  and  C_9
REMARK                            x       y       z     vdW  Elec       q    Type
REMARK                         _______ _______ _______ _____ _____    ______ ____
ROOT
ATOM      1  C   UNL     1      -7.722   2.677 125.644  0.00  0.00    +0.000 C 
ATOM      2  O   UNL     1      -9.019   2.457 125.966  0.00  0.00    +0.000 OA
ATOM      3  N   UNL     1      -7.007   3.336 123.884  0.00  0.00    +0.000 N 
ATOM      4  C   UNL     1      -8.329   2.895 124.092  0.00  0.00    +0.000 C 
ATOM      5  C   UNL     1      -6.709   2.745 123.945  0.00  0.00    +0.000 C 
ATOM      6  C   UNL     1      -7.973   3.203 122.425  0.00  0.00    +0.000 C 
ATOM      7  C   UNL     1      -5.991   3.432 121.782  0.00  0.00    +0.000 C 
ATOM      8  C   UNL     1      -7.154   3.823 120.633  0.00  0.00    +0.000 A 
ATOM      9  C   UNL     1      -8.434   4.089 120.111  0.00  0.00    +0.000 A 
ATOM     10  C   UNL     1      -8.515   4.221 118.789  0.00  0.00    +0.000 A 
ATOM     11  C   UNL     1      -7.276   4.434 118.413  0.00  0.00    +0.000 A 
ATOM     12  C   UNL     1      -6.272   4.147 119.923  0.00  0.00    +0.000 A 
ATOM     13  C   UNL     1      -6.459   3.846 121.834  0.00  0.00    +0.000 A 
ENDROOT
BRANCH   1  17
ATOM     14  C   UNL     1      -8.126   1.619 131.164  0.00  0.00    +0.000 A 
ATOM     15  C   UNL     1      -8.230   0.537 130.324  0.00  0.00    +0.000 A 
ATOM     16  C   UNL     1      -7.977   0.717 128.662  0.00  0.00    +0.000 A 
ATOM     17  C   UNL     1      -7.777   2.097 127.596  0.00  0.00    +0.000 A 
ATOM     18  C   UNL     1      -7.685   2.892 128.763  0.00  0.00    +0.000 A 
ATOM     19  C   UNL     1      -7.843   2.746 130.394  0.00  0.00    +0.000 A 
BRANCH  14  20
ATOM     20  C   UNL     1      -8.261   1.612 132.678  0.00  0.00    +0.000 C 
BRANCH  20  21
ATOM     21  C   UNL     1      -9.208   2.714 133.136  0.00  0.00    +0.000 C 
BRANCH  21  23
ATOM     22  C   UNL     1      -8.708   5.106 133.504  0.00  0.00    +0.000 C 
ATOM     23  C   UNL     1      -8.527   3.706 134.049  0.00  0.00    +0.000 C 
ENDBRANCH  21  23
ENDBRANCH  20  21
ENDBRANCH  14  20
ENDBRANCH   1  17
TORSDOF 4
ENDMDL
MODEL 5
REMARK VINA RESULT:      -7.7      6.487     10.455
REMARK  Name = CHEMBL4218211
REMARK  5 active torsions:
REMARK  status: ('A' for Active; 'I' for Inactive)
REMARK    1  A    between atoms: C_1  and  C_2
REMARK    2  A    between atoms: C_2  and  C_3
REMARK    3  A    between atoms: C_3  and  C_4
REMARK    4  A    between atoms: C_4  and  C_5
REMARK    5  A    between atoms: C_8  and  C_9
REMARK                            x       y       z     vdW  Elec       q    Type
REMARK                         _______ _______ _______ _____ _____    ______ ____
ROOT
ATOM      1  C   UNL     1      -7.944   1.246 125.510  0.00  0.00    +0.000 C 
ATOM      2  O   UNL     1      -9.222   0.861 125.747  0.00  0.00    +0.000 OA
ATOM      3  N   UNL     1      -7.279   2.348 123.966  0.00  0.00    +0.000 N 
ATOM      4  C   UNL     1      -8.564   1.775 124.040  0.00  0.00    +0.000 C 
ATOM      5  C   UNL     1      -6.937   1.783 123.894  0.00  0.00    +0.000 C 
ATOM      6  C   UNL     1      -8.229   2.489 122.498  0.00  0.00    +0.000 C 
ATOM      7  C   UNL     1      -6.269   3.007 121.964  0.00  0.00    +0.000 C 
ATOM      8  C   UNL     1      -7.457   3.569 120.915  0.00  0.00    +0.000 A 
ATOM      9  C   UNL     1      -8.753   3.853 120.445  0.00  0.00    +0.000 A 
ATOM     10  C   UNL     1      -8.840   4.284 119.188  0.00  0.00    +0.000 A 
ATOM     11  C   UNL     1      -7.622   4.670 118.896  0.00  0.00    +0.000 A 
ATOM     12  C   UNL     1      -6.601   4.114 120.317  0.00  0.00    +0.000 A 
ATOM     13  C   UNL     1      -6.768   3.363 122.102  0.00  0.00    +0.000 A 
ENDROOT
BRANCH   1  17
ATOM     14  C   UNL     1      -7.594  -1.975 130.120  0.00  0.00    +0.000 A 
ATOM     15  C   UNL     1      -7.812  -0.635 130.325  0.00  0.00    +0.000 A 
ATOM     16  C   UNL     1      -8.080   0.399 129.014  0.00  0.00    +0.000 A 
ATOM     17  C   UNL     1      -7.959   0.224 127.272  0.00  0.00    +0.000 A 
ATOM     18  C   UNL     1      -7.790  -1.163 127.497  0.00  0.00    +0.000 A 
ATOM     19  C   UNL     1      -7.606  -2.216 128.747  0.00  0.00    +0.000 A 
BRANCH  14  20
ATOM     20  C   UNL     1      -7.401  -3.040 131.188  0.00  0.00    +0.000 C 
BRANCH  20  21
ATOM     21  C   UNL     1      -6.188  -2.717 132.052  0.00  0.00    +0.000 C 
BRANCH  21  23
ATOM     22  C   UNL     1      -7.909  -2.756 133.825  0.00  0.00    +0.000 C 
ATOM     23  C   UNL     1      -6.583  -2.164 133.402  0.00  0.00    +0.000 C 
ENDBRANCH  21  23
ENDBRANCH  20  21
ENDBRANCH  14  20
ENDBRANCH   1  17
TORSDOF 4
ENDMDL
MODEL 6
REMARK VINA RESULT:      -7.7      5.890      6.946
REMARK  Name = CHEMBL4218211
REMARK  5 active torsions:
REMARK  status: ('A' for Active; 'I' for Inactive)
REMARK    1  A    between atoms: C_1  and  C_2
REMARK    2  A    between atoms: C_2  and  C_3
REMARK    3  A    between atoms: C_3  and  C_4
REMARK    4  A    between atoms: C_4  and  C_5
REMARK    5  A    between atoms: C_8  and  C_9
REMARK                            x       y       z     vdW  Elec       q    Type
REMARK                         _______ _______ _______ _____ _____    ______ ____
ROOT
ATOM      1  C   UNL     1      -6.225  -0.535 127.542  0.00  0.00    +0.000 C 
ATOM      2  O   UNL     1      -6.890   0.583 127.921  0.00  0.00    +0.000 OA
ATOM      3  N   UNL     1      -5.945  -2.203 128.629  0.00  0.00    +0.000 N 
ATOM      4  C   UNL     1      -6.429  -0.987 129.149  0.00  0.00    +0.000 C 
ATOM      5  C   UNL     1      -5.322  -2.005 128.512  0.00  0.00    +0.000 C 
ATOM      6  C   UNL     1      -6.108  -2.167 130.375  0.00  0.00    +0.000 C 
ATOM      7  C   UNL     1      -4.976  -3.877 129.941  0.00  0.00    +0.000 C 
ATOM      8  C   UNL     1      -5.729  -3.893 131.444  0.00  0.00    +0.000 A 
ATOM      9  C   UNL     1      -6.585  -3.470 132.479  0.00  0.00    +0.000 A 
ATOM     10  C   UNL     1      -6.458  -4.103 133.643  0.00  0.00    +0.000 A 
ATOM     11  C   UNL     1      -5.811  -5.203 133.340  0.00  0.00    +0.000 A 
ATOM     12  C   UNL     1      -5.309  -4.984 131.587  0.00  0.00    +0.000 A 
ATOM     13  C   UNL     1      -5.587  -3.806 130.067  0.00  0.00    +0.000 A 
ENDROOT
BRANCH   1  17
ATOM     14  C   UNL     1      -6.727   2.752 122.993  0.00  0.00    +0.000 A 
ATOM     15  C   UNL     1      -6.094   3.303 124.079  0.00  0.00    +0.000 A 
ATOM     16  C   UNL     1      -5.758   2.361 125.443  0.00  0.00    +0.000 A 
ATOM     17  C   UNL     1      -6.216   0.748 125.960  0.00  0.00    +0.000 A 
ATOM     18  C   UNL     1      -6.745   0.562 124.661  0.00  0.00    +0.000 A 
ATOM     19  C   UNL     1      -7.018   1.420 123.285  0.00  0.00    +0.000 A 
BRANCH  14  20
ATOM     20  C   UNL     1      -7.043   3.443 121.676  0.00  0.00    +0.000 C 
BRANCH  20  21
ATOM     21  C   UNL     1      -5.847   3.374 120.735  0.00  0.00    +0.000 C 
BRANCH  21  23
ATOM     22  C   UNL     1      -5.481   5.449 119.444  0.00  0.00    +0.000 C 
ATOM     23  C   UNL     1      -5.087   4.679 120.686  0.00  0.00    +0.000 C 
ENDBRANCH  21  23
ENDBRANCH  20  21
ENDBRANCH  14  20
ENDBRANCH   1  17
TORSDOF 4
ENDMDL
MODEL 7
REMARK VINA RESULT:      -7.7      1.717      9.988
REMARK  Name = CHEMBL4218211
REMARK  5 active torsions:
REMARK  status: ('A' for Active; 'I' for Inactive)
REMARK    1  A    between atoms: C_1  and  C_2
REMARK    2  A    between atoms: C_2  and  C_3
REMARK    3  A    between atoms: C_3  and  C_4
REMARK    4  A    between atoms: C_4  and  C_5
REMARK    5  A    between atoms: C_8  and  C_9
REMARK                            x       y       z     vdW  Elec       q    Type
REMARK                         _______ _______ _______ _____ _____    ______ ____
ROOT
ATOM      1  C   UNL     1      -9.243   1.917 131.041  0.00  0.00    +0.000 C 
ATOM      2  O   UNL     1     -10.099   1.176 131.786  0.00  0.00    +0.000 OA
ATOM      3  N   UNL     1      -9.438   3.855 130.545  0.00  0.00    +0.000 N 
ATOM      4  C   UNL     1     -10.462   3.072 131.110  0.00  0.00    +0.000 C 
ATOM      5  C   UNL     1      -9.420   3.558 129.950  0.00  0.00    +0.000 C 
ATOM      6  C   UNL     1     -11.006   4.638 130.611  0.00  0.00    +0.000 C 
ATOM      7  C   UNL     1      -9.825   5.826 129.350  0.00  0.00    +0.000 C 
ATOM      8  C   UNL     1     -11.157   6.610 130.011  0.00  0.00    +0.000 A 
ATOM      9  C   UNL     1     -12.277   6.802 130.842  0.00  0.00    +0.000 A 
ATOM     10  C   UNL     1     -13.018   7.879 130.590  0.00  0.00    +0.000 A 
ATOM     11  C   UNL     1     -12.238   8.641 129.861  0.00  0.00    +0.000 A 
ATOM     12  C   UNL     1     -10.780   7.592 129.483  0.00  0.00    +0.000 A 
ATOM     13  C   UNL     1      -9.974   5.888 129.956  0.00  0.00    +0.000 A 
ENDROOT
BRANCH   1  17
ATOM     14  C   UNL     1      -6.716  -3.120 131.060  0.00  0.00    +0.000 A 
ATOM     15  C   UNL     1      -6.943  -2.544 132.285  0.00  0.00    +0.000 A 
ATOM     16  C   UNL     1      -7.823  -1.105 132.406  0.00  0.00    +0.000 A 
ATOM     17  C   UNL     1      -8.429   0.061 131.243  0.00  0.00    +0.000 A 
ATOM     18  C   UNL     1      -8.063  -0.864 130.236  0.00  0.00    +0.000 A 
ATOM     19  C   UNL     1      -7.281  -2.303 130.081  0.00  0.00    +0.000 A 
BRANCH  14  20
ATOM     20  C   UNL     1      -6.002  -4.434 130.789  0.00  0.00    +0.000 C 
BRANCH  20  21
ATOM     21  C   UNL     1      -4.498  -4.272 130.967  0.00  0.00    +0.000 C 
BRANCH  21  23
ATOM     22  C   UNL     1      -3.251  -2.324 130.097  0.00  0.00    +0.000 C 
ATOM     23  C   UNL     1      -3.842  -3.672 129.745  0.00  0.00    +0.000 C 
ENDBRANCH  21  23
ENDBRANCH  20  21
ENDBRANCH  14  20
ENDBRANCH   1  17
TORSDOF 4
ENDMDL
MODEL 8
REMARK VINA RESULT:      -7.6      7.999     10.157
REMARK  Name = CHEMBL4218211
REMARK  5 active torsions:
REMARK  status: ('A' for Active; 'I' for Inactive)
REMARK    1  A    between atoms: C_1  and  C_2
REMARK    2  A    between atoms: C_2  and  C_3
REMARK    3  A    between atoms: C_3  and  C_4
REMARK    4  A    between atoms: C_4  and  C_5
REMARK    5  A    between atoms: C_8  and  C_9
REMARK                            x       y       z     vdW  Elec       q    Type
REMARK                         _______ _______ _______ _____ _____    ______ ____
ROOT
ATOM      1  C   UNL     1      -3.929   5.073 128.542  0.00  0.00    +0.000 C 
ATOM      2  O   UNL     1      -3.151   4.041 128.136  0.00  0.00    +0.000 OA
ATOM      3  N   UNL     1      -3.466   6.471 129.911  0.00  0.00    +0.000 N 
ATOM      4  C   UNL     1      -2.730   5.289 129.701  0.00  0.00    +0.000 C 
ATOM      5  C   UNL     1      -4.008   6.190 130.174  0.00  0.00    +0.000 C 
ATOM      6  C   UNL     1      -2.195   6.182 131.084  0.00  0.00    +0.000 C 
ATOM      7  C   UNL     1      -3.374   7.719 131.885  0.00  0.00    +0.000 C 
ATOM      8  C   UNL     1      -1.820   7.623 132.517  0.00  0.00    +0.000 A 
ATOM      9  C   UNL     1      -0.485   7.192 132.636  0.00  0.00    +0.000 A 
ATOM     10  C   UNL     1       0.170   7.598 133.722  0.00  0.00    +0.000 A 
ATOM     11  C   UNL     1      -0.544   8.604 134.168  0.00  0.00    +0.000 A 
ATOM     12  C   UNL     1      -2.068   8.587 133.145  0.00  0.00    +0.000 A 
ATOM     13  C   UNL     1      -2.830   7.736 131.573  0.00  0.00    +0.000 A 
ENDROOT
BRANCH   1  17
ATOM     14  C   UNL     1      -6.463   2.701 124.103  0.00  0.00    +0.000 A 
ATOM     15  C   UNL     1      -6.207   1.879 125.173  0.00  0.00    +0.000 A 
ATOM     16  C   UNL     1      -5.585   2.516 126.611  0.00  0.00    +0.000 A 
ATOM     17  C   UNL     1      -4.944   4.080 127.082  0.00  0.00    +0.000 A 
ATOM     18  C   UNL     1      -5.409   4.563 125.835  0.00  0.00    +0.000 A 
ATOM     19  C   UNL     1      -6.088   3.999 124.448  0.00  0.00    +0.000 A 
BRANCH  14  20
ATOM     20  C   UNL     1      -7.075   2.297 122.772  0.00  0.00    +0.000 C 
BRANCH  20  21
ATOM     21  C   UNL     1      -6.955   3.430 121.761  0.00  0.00    +0.000 C 
BRANCH  21  23
ATOM     22  C   UNL     1      -4.882   4.572 121.049  0.00  0.00    +0.000 C 
ATOM     23  C   UNL     1      -5.706   3.310 120.918  0.00  0.00    +0.000 C 
ENDBRANCH  21  23
ENDBRANCH  20  21
ENDBRANCH  14  20
ENDBRANCH   1  17
TORSDOF 4
ENDMDL
MODEL 9
REMARK VINA RESULT:      -7.5      7.026      9.847
REMARK  Name = CHEMBL4218211
REMARK  5 active torsions:
REMARK  status: ('A' for Active; 'I' for Inactive)
REMARK    1  A    between atoms: C_1  and  C_2
REMARK    2  A    between atoms: C_2  and  C_3
REMARK    3  A    between atoms: C_3  and  C_4
REMARK    4  A    between atoms: C_4  and  C_5
REMARK    5  A    between atoms: C_8  and  C_9
REMARK                            x       y       z     vdW  Elec       q    Type
REMARK                         _______ _______ _______ _____ _____    ______ ____
ROOT
ATOM      1  C   UNL     1      -4.419   1.988 127.692  0.00  0.00    +0.000 C 
ATOM      2  O   UNL     1      -4.846   0.920 128.407  0.00  0.00    +0.000 OA
ATOM      3  N   UNL     1      -3.412   3.585 128.384  0.00  0.00    +0.000 N 
ATOM      4  C   UNL     1      -4.040   2.625 129.201  0.00  0.00    +0.000 C 
ATOM      5  C   UNL     1      -3.963   3.862 128.137  0.00  0.00    +0.000 C 
ATOM      6  C   UNL     1      -3.436   3.980 130.093  0.00  0.00    +0.000 C 
ATOM      7  C   UNL     1      -2.866   5.739 129.106  0.00  0.00    +0.000 C 
ATOM      8  C   UNL     1      -2.449   5.678 130.733  0.00  0.00    +0.000 A 
ATOM      9  C   UNL     1      -2.268   5.120 132.013  0.00  0.00    +0.000 A 
ATOM     10  C   UNL     1      -1.943   5.971 132.985  0.00  0.00    +0.000 A 
ATOM     11  C   UNL     1      -1.522   7.038 132.349  0.00  0.00    +0.000 A 
ATOM     12  C   UNL     1      -1.912   6.716 130.584  0.00  0.00    +0.000 A 
ATOM     13  C   UNL     1      -2.525   5.302 129.400  0.00  0.00    +0.000 A 
ENDROOT
BRANCH   1  17
ATOM     14  C   UNL     1      -6.915  -1.123 123.712  0.00  0.00    +0.000 A 
ATOM     15  C   UNL     1      -5.988  -1.763 124.497  0.00  0.00    +0.000 A 
ATOM     16  C   UNL     1      -5.286  -0.967 125.814  0.00  0.00    +0.000 A 
ATOM     17  C   UNL     1      -5.296   0.691 126.390  0.00  0.00    +0.000 A 
ATOM     18  C   UNL     1      -6.304   0.941 125.428  0.00  0.00    +0.000 A 
ATOM     19  C   UNL     1      -7.069   0.178 124.188  0.00  0.00    +0.000 A 
BRANCH  14  20
ATOM     20  C   UNL     1      -7.678  -1.716 122.538  0.00  0.00    +0.000 C 
BRANCH  20  21
ATOM     21  C   UNL     1      -9.145  -1.912 122.897  0.00  0.00    +0.000 C 
BRANCH  21  23
ATOM     22  C   UNL     1      -9.394  -3.182 125.002  0.00  0.00    +0.000 C 
ATOM     23  C   UNL     1      -9.407  -3.276 123.492  0.00  0.00    +0.000 C 
ENDBRANCH  21  23
ENDBRANCH  20  21
ENDBRANCH  14  20
ENDBRANCH   1  17
TORSDOF 4
ENDMDL
