MODEL 1
REMARK VINA RESULT:      -8.7      0.000      0.000
REMARK  Name = CHEMBL1790728
REMARK  25 active torsions:
REMARK  status: ('A' for Active; 'I' for Inactive)
REMARK    1  A    between atoms: C_1  and  C_2
REMARK    2  A    between atoms: C_2  and  C_3
REMARK    3  A    between atoms: C_3  and  C_4
REMARK    4  A    between atoms: C_3  and  C_5
REMARK    5  A    between atoms: C_9  and  C_10
REMARK    6  A    between atoms: C_13  and  O_14
REMARK    7  A    between atoms: C_25  and  C_26
REMARK    8  A    between atoms: C_32  and  C_33
REMARK    9  A    between atoms: N_35  and  C_36
REMARK   10  A    between atoms: C_36  and  C_37
REMARK   11  A    between atoms: C_36  and  C_69
REMARK   12  A    between atoms: C_37  and  C_38
REMARK   13  A    between atoms: C_38  and  C_39
REMARK   14  A    between atoms: C_39  and  C_40
REMARK   15  A    between atoms: C_40  and  N_41
REMARK   16  A    between atoms: C_42  and  C_44
REMARK   17  A    between atoms: C_57  and  O_58
REMARK   18  A    between atoms: C_64  and  O_65
REMARK   19  A    between atoms: N_71  and  C_72
REMARK   20  A    between atoms: C_72  and  N_73
REMARK   21  A    between atoms: C_77  and  C_78
REMARK   22  A    between atoms: C_78  and  C_79
REMARK   23  A    between atoms: C_85  and  C_86
REMARK   24  A    between atoms: C_86  and  C_87
REMARK   25  A    between atoms: C_86  and  O_88
REMARK                            x       y       z     vdW  Elec       q    Type
REMARK                         _______ _______ _______ _____ _____    ______ ____
ROOT
ATOM      1  C   UNL     1      -6.566   1.233 133.091  0.00  0.00    +0.000 C 
ATOM      2  O   UNL     1      -6.287   1.324 134.288  0.00  0.00    +0.000 OA
ATOM      3  N   UNL     1      -7.224   2.229 132.456  0.00  0.00    +0.000 N 
ATOM      4  C   UNL     1      -8.008   2.159 131.236  0.00  0.00    +0.000 C 
ATOM      5  C   UNL     1      -7.512   3.360 130.536  0.00  0.00    +0.000 C 
ATOM      6  C   UNL     1      -7.490   4.361 131.676  0.00  0.00    +0.000 C 
ATOM      7  C   UNL     1      -7.129   3.581 132.960  0.00  0.00    +0.000 C 
ENDROOT
BRANCH   1  21
ATOM      8  C   UNL     1      -7.384  -4.323 138.287  0.00  0.00    +0.000 C 
ATOM      9  N   UNL     1      -5.603  -4.454 137.511  0.00  0.00    +0.000 N 
ATOM     10  C   UNL     1      -4.123  -4.085 137.147  0.00  0.00    +0.000 C 
ATOM     11  O   UNL     1      -3.655  -4.679 136.129  0.00  0.00    +0.000 OA
ATOM     12  C   UNL     1      -2.923  -3.266 138.062  0.00  0.00    +0.000 C 
ATOM     13  N   UNL     1      -1.423  -3.771 138.088  0.00  0.00    +0.000 N 
ATOM     14  C   UNL     1      -0.269  -3.506 137.345  0.00  0.00    +0.000 C 
ATOM     15  O   UNL     1       0.839  -3.821 137.803  0.00  0.00    +0.000 OA
ATOM     16  C   UNL     1      -0.264  -2.791 136.009  0.00  0.00    +0.000 C 
ATOM     17  C   UNL     1      -1.586  -2.303 135.605  0.00  0.00    +0.000 C 
ATOM     18  S   UNL     1      -1.646  -2.018 133.916  0.00  0.00    +0.000 S 
ATOM     19  S   UNL     1      -4.033  -2.414 133.782  0.00  0.00    +0.000 S 
ATOM     20  C   UNL     1      -5.032  -0.671 132.213  0.00  0.00    +0.000 C 
ATOM     21  C   UNL     1      -6.303  -0.026 132.209  0.00  0.00    +0.000 C 
ATOM     22  N   UNL     1      -7.080  -1.148 132.396  0.00  0.00    +0.000 N 
ATOM     23  C   UNL     1      -7.236  -1.618 133.656  0.00  0.00    +0.000 C 
ATOM     24  O   UNL     1      -8.233  -2.342 133.786  0.00  0.00    +0.000 OA
ATOM     25  C   UNL     1      -6.092  -1.454 134.747  0.00  0.00    +0.000 C 
ATOM     26  N   UNL     1      -6.807  -1.456 135.937  0.00  0.00    +0.000 N 
ATOM     27  C   UNL     1      -7.509  -2.550 136.303  0.00  0.00    +0.000 C 
ATOM     28  O   UNL     1      -8.245  -2.231 137.247  0.00  0.00    +0.000 OA
ATOM     29  C   UNL     1      -7.427  -4.146 135.493  0.00  0.00    +0.000 C 
ATOM     30  N   UNL     1      -7.337  -5.540 136.300  0.00  0.00    +0.000 N 
ATOM     31  C   UNL     1      -7.393  -5.676 137.700  0.00  0.00    +0.000 C 
ATOM     32  O   UNL     1      -7.118  -6.662 138.370  0.00  0.00    +0.000 OA
ATOM     33  H   UNL     1      -5.370  -5.289 136.941  0.00  0.00    +0.000 HD
ATOM     34  H   UNL     1      -1.139  -4.109 139.003  0.00  0.00    +0.000 HD
ATOM     35  H   UNL     1      -7.414  -1.637 131.581  0.00  0.00    +0.000 HD
ATOM     36  H   UNL     1      -6.886  -0.626 136.492  0.00  0.00    +0.000 HD
ATOM     37  H   UNL     1      -6.427  -5.910 136.136  0.00  0.00    +0.000 HD
BRANCH  12  38
ATOM     38  C   UNL     1      -2.866  -1.720 138.011  0.00  0.00    +0.000 A 
ATOM     39  C   UNL     1      -1.661  -1.107 138.280  0.00  0.00    +0.000 A 
ATOM     40  C   UNL     1      -1.566   0.293 138.400  0.00  0.00    +0.000 A 
ATOM     41  C   UNL     1      -2.694   1.095 138.436  0.00  0.00    +0.000 A 
ATOM     42  C   UNL     1      -3.929   0.526 138.242  0.00  0.00    +0.000 A 
ATOM     43  C   UNL     1      -4.011  -0.848 137.953  0.00  0.00    +0.000 A 
BRANCH  41  44
ATOM     44  O   UNL     1      -2.636   2.438 138.636  0.00  0.00    +0.000 OA
ATOM     45  H   UNL     1      -1.781   2.789 138.337  0.00  0.00    +0.000 HD
ENDBRANCH  41  44
ENDBRANCH  12  38
BRANCH   8  46
ATOM     46  C   UNL     1      -9.193  -4.684 138.943  0.00  0.00    +0.000 C 
ATOM     47  C   UNL     1      -9.726  -3.833 140.114  0.00  0.00    +0.000 C 
BRANCH  46  49
ATOM     48  C   UNL     1     -11.023  -3.205 138.191  0.00  0.00    +0.000 C 
ATOM     49  C   UNL     1     -10.447  -4.532 137.846  0.00  0.00    +0.000 C 
ENDBRANCH  46  49
ENDBRANCH   8  46
BRANCH  29  50
ATOM     50  C   UNL     1      -6.335  -4.287 134.327  0.00  0.00    +0.000 C 
ATOM     51  C   UNL     1      -5.698  -5.611 134.258  0.00  0.00    +0.000 C 
BRANCH  50  52
ATOM     52  O   UNL     1      -6.592  -4.240 132.914  0.00  0.00    +0.000 OA
ATOM     53  H   UNL     1      -6.481  -3.318 132.616  0.00  0.00    +0.000 HD
ENDBRANCH  50  52
ENDBRANCH  29  50
BRANCH  25  54
ATOM     54  C   UNL     1      -4.950  -0.315 134.496  0.00  0.00    +0.000 C 
BRANCH  54  55
ATOM     55  C   UNL     1      -4.429   1.371 135.468  0.00  0.00    +0.000 C 
ATOM     56  N   UNL     1      -3.031   2.301 134.680  0.00  0.00    +0.000 N 
ATOM     57  O   UNL     1      -5.108   1.924 136.263  0.00  0.00    +0.000 OA
ATOM     58  H   UNL     1      -2.558   1.607 133.874  0.00  0.00    +0.000 HD
ATOM     59  H   UNL     1      -2.308   2.964 134.679  0.00  0.00    +0.000 HD
ENDBRANCH  54  55
ENDBRANCH  25  54
ENDBRANCH   1  21
BRANCH   7  60
ATOM     60  C   UNL     1      -5.754   3.977 133.535  0.00  0.00    +0.000 C 
ATOM     61  O   UNL     1      -4.680   3.820 132.969  0.00  0.00    +0.000 OA
ATOM     62  N   UNL     1      -5.832   4.546 134.771  0.00  0.00    +0.000 N 
ATOM     63  H   UNL     1      -6.619   4.306 135.353  0.00  0.00    +0.000 HD
BRANCH  62  64
ATOM     64  C   UNL     1      -4.815   5.334 135.436  0.00  0.00    +0.000 C 
BRANCH  64  65
ATOM     65  C   UNL     1      -5.311   5.537 136.907  0.00  0.00    +0.000 C 
ATOM     66  O   UNL     1      -5.971   6.534 137.220  0.00  0.00    +0.000 OA
ATOM     67  N   UNL     1      -4.985   4.555 137.825  0.00  0.00    +0.000 N 
ATOM     68  H   UNL     1      -4.413   3.767 137.567  0.00  0.00    +0.000 HD
BRANCH  67  69
ATOM     69  C   UNL     1      -5.390   4.672 139.195  0.00  0.00    +0.000 C 
BRANCH  69  70
ATOM     70  N   UNL     1      -4.196   4.679 140.009  0.00  0.00    +0.000 NA
ATOM     71  H   UNL     1      -4.440   4.631 140.996  0.00  0.00    +0.000 HD
ATOM     72  H   UNL     1      -3.756   5.599 139.907  0.00  0.00    +0.000 HD
ENDBRANCH  69  70
ENDBRANCH  67  69
ENDBRANCH  64  65
BRANCH  64  73
ATOM     73  C   UNL     1      -4.642   6.691 134.743  0.00  0.00    +0.000 C 
BRANCH  73  74
ATOM     74  C   UNL     1      -3.466   6.719 133.767  0.00  0.00    +0.000 C 
BRANCH  74  75
ATOM     75  C   UNL     1      -3.798   7.219 132.380  0.00  0.00    +0.000 C 
BRANCH  75  76
ATOM     76  C   UNL     1      -3.111   6.372 131.286  0.00  0.00    +0.000 C 
BRANCH  76  77
ATOM     77  N   UNL     1      -4.032   5.310 130.688  0.00  0.00    +0.000 N 
ATOM     78  C   UNL     1      -3.857   4.886 129.335  0.00  0.00    +0.000 C 
ATOM     79  O   UNL     1      -2.958   5.501 128.739  0.00  0.00    +0.000 OA
ATOM     80  H   UNL     1      -4.783   5.028 131.296  0.00  0.00    +0.000 HD
BRANCH  78  81
ATOM     81  C   UNL     1      -4.589   3.845 128.349  0.00  0.00    +0.000 A 
ATOM     82  C   UNL     1      -5.272   4.514 127.411  0.00  0.00    +0.000 A 
ATOM     83  C   UNL     1      -6.404   3.902 126.921  0.00  0.00    +0.000 A 
ATOM     84  C   UNL     1      -6.066   3.139 125.891  0.00  0.00    +0.000 A 
ATOM     85  C   UNL     1      -5.519   2.000 126.299  0.00  0.00    +0.000 A 
ATOM     86  C   UNL     1      -4.806   2.494 127.860  0.00  0.00    +0.000 A 
ATOM     87  C   UNL     1      -7.060   1.460 125.205  0.00  0.00    +0.000 C 
ATOM     88  O   UNL     1      -6.191   2.029 124.116  0.00  0.00    +0.000 OA
ATOM     89  C   UNL     1      -5.823   3.281 124.532  0.00  0.00    +0.000 C 
ATOM     90  O   UNL     1      -5.216   4.243 124.117  0.00  0.00    +0.000 OA
ATOM     91  C   UNL     1      -7.814   0.210 124.012  0.00  0.00    +0.000 A 
ATOM     92  C   UNL     1      -9.019   0.152 123.081  0.00  0.00    +0.000 A 
ATOM     93  C   UNL     1      -9.809  -1.114 122.746  0.00  0.00    +0.000 A 
ATOM     94  C   UNL     1      -9.456  -2.316 123.332  0.00  0.00    +0.000 A 
ATOM     95  C   UNL     1      -8.305  -2.294 124.101  0.00  0.00    +0.000 A 
ATOM     96  C   UNL     1      -7.510  -1.115 124.340  0.00  0.00    +0.000 A 
ATOM     97  O   UNL     1      -6.370  -1.298 125.061  0.00  0.00    +0.000 OA
ATOM     98  C   UNL     1      -6.444  -0.622 126.234  0.00  0.00    +0.000 A 
ATOM     99  C   UNL     1      -5.357  -0.676 127.053  0.00  0.00    +0.000 A 
ATOM    100  C   UNL     1      -5.459  -0.026 128.266  0.00  0.00    +0.000 A 
ATOM    101  C   UNL     1      -6.699   0.701 128.614  0.00  0.00    +0.000 A 
ATOM    102  C   UNL     1      -7.688   0.943 127.639  0.00  0.00    +0.000 A 
ATOM    103  C   UNL     1      -7.331   0.446 126.385  0.00  0.00    +0.000 A 
BRANCH 100 104
ATOM    104  O   UNL     1      -4.234   0.217 128.908  0.00  0.00    +0.000 OA
ATOM    105  H   UNL     1      -4.334   0.727 129.750  0.00  0.00    +0.000 HD
ENDBRANCH 100 104
BRANCH  94 106
ATOM    106  O   UNL     1     -10.110  -3.514 123.238  0.00  0.00    +0.000 OA
ATOM    107  H   UNL     1      -9.693  -4.244 123.727  0.00  0.00    +0.000 HD
ENDBRANCH  94 106
ENDBRANCH  78  81
ENDBRANCH  76  77
ENDBRANCH  75  76
ENDBRANCH  74  75
ENDBRANCH  73  74
ENDBRANCH  64  73
ENDBRANCH  62  64
ENDBRANCH   7  60
TORSDOF 22
ENDMDL
MODEL 2
REMARK VINA RESULT:      -8.3      5.898     12.133
REMARK  Name = CHEMBL1790728
REMARK  25 active torsions:
REMARK  status: ('A' for Active; 'I' for Inactive)
REMARK    1  A    between atoms: C_1  and  C_2
REMARK    2  A    between atoms: C_2  and  C_3
REMARK    3  A    between atoms: C_3  and  C_4
REMARK    4  A    between atoms: C_3  and  C_5
REMARK    5  A    between atoms: C_9  and  C_10
REMARK    6  A    between atoms: C_13  and  O_14
REMARK    7  A    between atoms: C_25  and  C_26
REMARK    8  A    between atoms: C_32  and  C_33
REMARK    9  A    between atoms: N_35  and  C_36
REMARK   10  A    between atoms: C_36  and  C_37
REMARK   11  A    between atoms: C_36  and  C_69
REMARK   12  A    between atoms: C_37  and  C_38
REMARK   13  A    between atoms: C_38  and  C_39
REMARK   14  A    between atoms: C_39  and  C_40
REMARK   15  A    between atoms: C_40  and  N_41
REMARK   16  A    between atoms: C_42  and  C_44
REMARK   17  A    between atoms: C_57  and  O_58
REMARK   18  A    between atoms: C_64  and  O_65
REMARK   19  A    between atoms: N_71  and  C_72
REMARK   20  A    between atoms: C_72  and  N_73
REMARK   21  A    between atoms: C_77  and  C_78
REMARK   22  A    between atoms: C_78  and  C_79
REMARK   23  A    between atoms: C_85  and  C_86
REMARK   24  A    between atoms: C_86  and  C_87
REMARK   25  A    between atoms: C_86  and  O_88
REMARK                            x       y       z     vdW  Elec       q    Type
REMARK                         _______ _______ _______ _____ _____    ______ ____
ROOT
ATOM      1  C   UNL     1      -2.070   6.359 139.060  0.00  0.00    +0.000 C 
ATOM      2  O   UNL     1      -1.995   6.348 137.830  0.00  0.00    +0.000 OA
ATOM      3  N   UNL     1      -3.198   5.958 139.689  0.00  0.00    +0.000 N 
ATOM      4  C   UNL     1      -3.650   6.288 141.029  0.00  0.00    +0.000 C 
ATOM      5  C   UNL     1      -4.082   4.956 141.495  0.00  0.00    +0.000 C 
ATOM      6  C   UNL     1      -4.818   4.454 140.268  0.00  0.00    +0.000 C 
ATOM      7  C   UNL     1      -4.089   5.029 139.033  0.00  0.00    +0.000 C 
ENDROOT
BRANCH   1  21
ATOM      8  C   UNL     1      -3.858  13.798 139.161  0.00  0.00    +0.000 C 
ATOM      9  N   UNL     1      -2.026  13.606 138.528  0.00  0.00    +0.000 N 
ATOM     10  C   UNL     1      -0.817  13.217 137.609  0.00  0.00    +0.000 C 
ATOM     11  O   UNL     1       0.307  13.159 138.193  0.00  0.00    +0.000 OA
ATOM     12  C   UNL     1      -0.693  13.165 135.897  0.00  0.00    +0.000 C 
ATOM     13  N   UNL     1       0.590  13.714 135.150  0.00  0.00    +0.000 N 
ATOM     14  C   UNL     1       1.801  13.167 134.716  0.00  0.00    +0.000 C 
ATOM     15  O   UNL     1       2.480  13.775 133.876  0.00  0.00    +0.000 OA
ATOM     16  C   UNL     1       2.335  11.822 135.164  0.00  0.00    +0.000 C 
ATOM     17  C   UNL     1       1.407  11.085 136.027  0.00  0.00    +0.000 C 
ATOM     18  S   UNL     1       2.231   9.885 136.933  0.00  0.00    +0.000 S 
ATOM     19  S   UNL     1       0.627   9.940 138.748  0.00  0.00    +0.000 S 
ATOM     20  C   UNL     1       0.203   7.539 139.495  0.00  0.00    +0.000 C 
ATOM     21  C   UNL     1      -0.964   6.908 140.014  0.00  0.00    +0.000 C 
ATOM     22  N   UNL     1      -1.298   7.869 140.942  0.00  0.00    +0.000 N 
ATOM     23  C   UNL     1      -1.981   8.958 140.521  0.00  0.00    +0.000 C 
ATOM     24  O   UNL     1      -2.577   9.544 141.435  0.00  0.00    +0.000 OA
ATOM     25  C   UNL     1      -1.789   9.539 139.053  0.00  0.00    +0.000 C 
ATOM     26  N   UNL     1      -3.006  10.160 138.812  0.00  0.00    +0.000 N 
ATOM     27  C   UNL     1      -3.393  11.207 139.573  0.00  0.00    +0.000 C 
ATOM     28  O   UNL     1      -4.590  11.425 139.338  0.00  0.00    +0.000 OA
ATOM     29  C   UNL     1      -2.358  12.057 140.761  0.00  0.00    +0.000 C 
ATOM     30  N   UNL     1      -2.300  13.665 140.889  0.00  0.00    +0.000 N 
ATOM     31  C   UNL     1      -3.095  14.569 140.160  0.00  0.00    +0.000 C 
ATOM     32  O   UNL     1      -2.951  15.780 140.055  0.00  0.00    +0.000 OA
ATOM     33  H   UNL     1      -1.257  13.983 139.114  0.00  0.00    +0.000 HD
ATOM     34  H   UNL     1       0.393  14.535 134.584  0.00  0.00    +0.000 HD
ATOM     35  H   UNL     1      -0.929   7.778 141.876  0.00  0.00    +0.000 HD
ATOM     36  H   UNL     1      -3.649   9.792 138.138  0.00  0.00    +0.000 HD
ATOM     37  H   UNL     1      -1.399  13.947 140.573  0.00  0.00    +0.000 HD
BRANCH  12  38
ATOM     38  C   UNL     1      -1.118  11.876 135.152  0.00  0.00    +0.000 A 
ATOM     39  C   UNL     1      -0.471  11.564 133.976  0.00  0.00    +0.000 A 
ATOM     40  C   UNL     1      -0.903  10.495 133.168  0.00  0.00    +0.000 A 
ATOM     41  C   UNL     1      -2.092   9.831 133.419  0.00  0.00    +0.000 A 
ATOM     42  C   UNL     1      -2.813  10.149 134.543  0.00  0.00    +0.000 A 
ATOM     43  C   UNL     1      -2.297  11.101 135.441  0.00  0.00    +0.000 A 
BRANCH  41  44
ATOM     44  O   UNL     1      -2.573   8.853 132.608  0.00  0.00    +0.000 OA
ATOM     45  H   UNL     1      -2.325   7.978 132.947  0.00  0.00    +0.000 HD
ENDBRANCH  41  44
ENDBRANCH  12  38
BRANCH   8  46
ATOM     46  C   UNL     1      -5.484  14.321 140.117  0.00  0.00    +0.000 C 
ATOM     47  C   UNL     1      -6.167  15.646 139.721  0.00  0.00    +0.000 C 
BRANCH  46  49
ATOM     48  C   UNL     1      -7.951  14.185 140.063  0.00  0.00    +0.000 C 
ATOM     49  C   UNL     1      -6.781  13.265 140.051  0.00  0.00    +0.000 C 
ENDBRANCH  46  49
ENDBRANCH   8  46
BRANCH  29  50
ATOM     50  C   UNL     1      -0.823  11.597 140.812  0.00  0.00    +0.000 C 
ATOM     51  C   UNL     1       0.126  12.695 141.051  0.00  0.00    +0.000 C 
BRANCH  50  52
ATOM     52  O   UNL     1      -0.224  10.747 141.805  0.00  0.00    +0.000 OA
ATOM     53  H   UNL     1      -0.043   9.881 141.394  0.00  0.00    +0.000 HD
ENDBRANCH  50  52
ENDBRANCH  29  50
BRANCH  25  54
ATOM     54  C   UNL     1      -1.147   8.556 137.918  0.00  0.00    +0.000 C 
BRANCH  54  55
ATOM     55  C   UNL     1      -1.847   7.780 136.195  0.00  0.00    +0.000 C 
ATOM     56  N   UNL     1      -0.577   6.853 135.210  0.00  0.00    +0.000 N 
ATOM     57  O   UNL     1      -2.992   7.619 135.947  0.00  0.00    +0.000 OA
ATOM     58  H   UNL     1       0.466   7.085 135.674  0.00  0.00    +0.000 HD
ATOM     59  H   UNL     1      -0.232   6.440 134.390  0.00  0.00    +0.000 HD
ENDBRANCH  54  55
ENDBRANCH  25  54
ENDBRANCH   1  21
BRANCH   7  60
ATOM     60  C   UNL     1      -3.400   3.941 138.183  0.00  0.00    +0.000 C 
ATOM     61  O   UNL     1      -2.680   3.053 138.622  0.00  0.00    +0.000 OA
ATOM     62  N   UNL     1      -3.673   4.046 136.852  0.00  0.00    +0.000 N 
ATOM     63  H   UNL     1      -3.909   4.955 136.488  0.00  0.00    +0.000 HD
BRANCH  62  64
ATOM     64  C   UNL     1      -3.494   3.025 135.841  0.00  0.00    +0.000 C 
BRANCH  64  65
ATOM     65  C   UNL     1      -3.871   3.691 134.475  0.00  0.00    +0.000 C 
ATOM     66  O   UNL     1      -3.643   3.114 133.406  0.00  0.00    +0.000 OA
ATOM     67  N   UNL     1      -4.469   4.937 134.523  0.00  0.00    +0.000 N 
ATOM     68  H   UNL     1      -4.612   5.415 135.398  0.00  0.00    +0.000 HD
BRANCH  67  69
ATOM     69  C   UNL     1      -4.832   5.621 133.317  0.00  0.00    +0.000 C 
BRANCH  69  70
ATOM     70  N   UNL     1      -3.616   6.095 132.695  0.00  0.00    +0.000 NA
ATOM     71  H   UNL     1      -3.832   6.612 131.845  0.00  0.00    +0.000 HD
ATOM     72  H   UNL     1      -3.098   5.276 132.362  0.00  0.00    +0.000 HD
ENDBRANCH  69  70
ENDBRANCH  67  69
ENDBRANCH  64  65
BRANCH  64  73
ATOM     73  C   UNL     1      -4.407   1.824 136.114  0.00  0.00    +0.000 C 
BRANCH  73  74
ATOM     74  C   UNL     1      -3.670   0.485 136.054  0.00  0.00    +0.000 C 
BRANCH  74  75
ATOM     75  C   UNL     1      -4.492  -0.674 135.541  0.00  0.00    +0.000 C 
BRANCH  75  76
ATOM     76  C   UNL     1      -4.383  -0.821 134.008  0.00  0.00    +0.000 C 
BRANCH  76  77
ATOM     77  N   UNL     1      -4.864   0.418 133.254  0.00  0.00    +0.000 N 
ATOM     78  C   UNL     1      -6.221   0.848 133.369  0.00  0.00    +0.000 C 
ATOM     79  O   UNL     1      -6.918   0.093 134.067  0.00  0.00    +0.000 OA
ATOM     80  H   UNL     1      -4.175   0.816 132.637  0.00  0.00    +0.000 HD
BRANCH  78  81
ATOM     81  C   UNL     1      -7.108   2.044 132.757  0.00  0.00    +0.000 A 
ATOM     82  C   UNL     1      -7.816   2.627 133.733  0.00  0.00    +0.000 A 
ATOM     83  C   UNL     1      -9.027   3.173 133.371  0.00  0.00    +0.000 A 
ATOM     84  C   UNL     1      -8.834   4.428 132.991  0.00  0.00    +0.000 A 
ATOM     85  C   UNL     1      -8.341   4.483 131.759  0.00  0.00    +0.000 A 
ATOM     86  C   UNL     1      -7.466   2.930 131.663  0.00  0.00    +0.000 A 
ATOM     87  C   UNL     1     -10.005   5.528 131.688  0.00  0.00    +0.000 C 
ATOM     88  O   UNL     1      -9.190   6.449 132.556  0.00  0.00    +0.000 OA
ATOM     89  C   UNL     1      -8.696   5.679 133.576  0.00  0.00    +0.000 C 
ATOM     90  O   UNL     1      -8.057   5.809 134.595  0.00  0.00    +0.000 OA
ATOM     91  C   UNL     1     -10.948   6.985 130.950  0.00  0.00    +0.000 A 
ATOM     92  C   UNL     1     -12.227   7.751 131.263  0.00  0.00    +0.000 A 
ATOM     93  C   UNL     1     -13.134   8.405 130.220  0.00  0.00    +0.000 A 
ATOM     94  C   UNL     1     -12.824   8.295 128.877  0.00  0.00    +0.000 A 
ATOM     95  C   UNL     1     -11.614   7.688 128.588  0.00  0.00    +0.000 A 
ATOM     96  C   UNL     1     -10.716   7.152 129.581  0.00  0.00    +0.000 A 
ATOM     97  O   UNL     1      -9.537   6.657 129.117  0.00  0.00    +0.000 OA
ATOM     98  C   UNL     1      -9.461   5.325 129.357  0.00  0.00    +0.000 A 
ATOM     99  C   UNL     1      -8.316   4.689 128.982  0.00  0.00    +0.000 A 
ATOM    100  C   UNL     1      -8.268   3.325 129.185  0.00  0.00    +0.000 A 
ATOM    101  C   UNL     1      -9.417   2.626 129.801  0.00  0.00    +0.000 A 
ATOM    102  C   UNL     1     -10.464   3.356 130.401  0.00  0.00    +0.000 A 
ATOM    103  C   UNL     1     -10.251   4.733 130.346  0.00  0.00    +0.000 A 
BRANCH 100 104
ATOM    104  O   UNL     1      -6.979   2.769 129.144  0.00  0.00    +0.000 OA
ATOM    105  H   UNL     1      -6.966   1.849 128.781  0.00  0.00    +0.000 HD
ENDBRANCH 100 104
BRANCH  94 106
ATOM    106  O   UNL     1     -13.572   8.716 127.810  0.00  0.00    +0.000 OA
ATOM    107  H   UNL     1     -13.327   9.591 127.464  0.00  0.00    +0.000 HD
ENDBRANCH  94 106
ENDBRANCH  78  81
ENDBRANCH  76  77
ENDBRANCH  75  76
ENDBRANCH  74  75
ENDBRANCH  73  74
ENDBRANCH  64  73
ENDBRANCH  62  64
ENDBRANCH   7  60
TORSDOF 22
ENDMDL
MODEL 3
REMARK VINA RESULT:      -8.3      3.727     11.164
REMARK  Name = CHEMBL1790728
REMARK  25 active torsions:
REMARK  status: ('A' for Active; 'I' for Inactive)
REMARK    1  A    between atoms: C_1  and  C_2
REMARK    2  A    between atoms: C_2  and  C_3
REMARK    3  A    between atoms: C_3  and  C_4
REMARK    4  A    between atoms: C_3  and  C_5
REMARK    5  A    between atoms: C_9  and  C_10
REMARK    6  A    between atoms: C_13  and  O_14
REMARK    7  A    between atoms: C_25  and  C_26
REMARK    8  A    between atoms: C_32  and  C_33
REMARK    9  A    between atoms: N_35  and  C_36
REMARK   10  A    between atoms: C_36  and  C_37
REMARK   11  A    between atoms: C_36  and  C_69
REMARK   12  A    between atoms: C_37  and  C_38
REMARK   13  A    between atoms: C_38  and  C_39
REMARK   14  A    between atoms: C_39  and  C_40
REMARK   15  A    between atoms: C_40  and  N_41
REMARK   16  A    between atoms: C_42  and  C_44
REMARK   17  A    between atoms: C_57  and  O_58
REMARK   18  A    between atoms: C_64  and  O_65
REMARK   19  A    between atoms: N_71  and  C_72
REMARK   20  A    between atoms: C_72  and  N_73
REMARK   21  A    between atoms: C_77  and  C_78
REMARK   22  A    between atoms: C_78  and  C_79
REMARK   23  A    between atoms: C_85  and  C_86
REMARK   24  A    between atoms: C_86  and  C_87
REMARK   25  A    between atoms: C_86  and  O_88
REMARK                            x       y       z     vdW  Elec       q    Type
REMARK                         _______ _______ _______ _____ _____    ______ ____
ROOT
ATOM      1  C   UNL     1      -4.907   6.481 132.334  0.00  0.00    +0.000 C 
ATOM      2  O   UNL     1      -4.338   6.530 131.242  0.00  0.00    +0.000 OA
ATOM      3  N   UNL     1      -4.200   6.491 133.485  0.00  0.00    +0.000 N 
ATOM      4  C   UNL     1      -4.604   6.017 134.798  0.00  0.00    +0.000 C 
ATOM      5  C   UNL     1      -4.129   7.134 135.637  0.00  0.00    +0.000 C 
ATOM      6  C   UNL     1      -2.765   7.389 135.022  0.00  0.00    +0.000 C 
ATOM      7  C   UNL     1      -2.886   7.093 133.511  0.00  0.00    +0.000 C 
ENDROOT
BRANCH   1  21
ATOM      8  C   UNL     1      -5.522  -1.132 131.885  0.00  0.00    +0.000 C 
ATOM      9  N   UNL     1      -6.643  -0.335 130.507  0.00  0.00    +0.000 N 
ATOM     10  C   UNL     1      -7.056   0.451 129.214  0.00  0.00    +0.000 C 
ATOM     11  O   UNL     1      -8.256   0.861 129.194  0.00  0.00    +0.000 OA
ATOM     12  C   UNL     1      -6.272   0.580 127.693  0.00  0.00    +0.000 C 
ATOM     13  N   UNL     1      -7.089   0.500 126.339  0.00  0.00    +0.000 N 
ATOM     14  C   UNL     1      -7.708   1.425 125.493  0.00  0.00    +0.000 C 
ATOM     15  O   UNL     1      -8.000   1.093 124.334  0.00  0.00    +0.000 OA
ATOM     16  C   UNL     1      -8.006   2.860 125.875  0.00  0.00    +0.000 C 
ATOM     17  C   UNL     1      -7.487   3.231 127.195  0.00  0.00    +0.000 C 
ATOM     18  S   UNL     1      -8.295   4.614 127.806  0.00  0.00    +0.000 S 
ATOM     19  S   UNL     1      -7.925   3.994 130.119  0.00  0.00    +0.000 S 
ATOM     20  C   UNL     1      -7.306   6.103 131.409  0.00  0.00    +0.000 C 
ATOM     21  C   UNL     1      -6.446   6.305 132.527  0.00  0.00    +0.000 C 
ATOM     22  N   UNL     1      -6.907   5.265 133.305  0.00  0.00    +0.000 N 
ATOM     23  C   UNL     1      -6.431   4.022 133.065  0.00  0.00    +0.000 C 
ATOM     24  O   UNL     1      -6.569   3.252 134.025  0.00  0.00    +0.000 OA
ATOM     25  C   UNL     1      -5.998   3.571 131.602  0.00  0.00    +0.000 C 
ATOM     26  N   UNL     1      -5.050   2.590 131.857  0.00  0.00    +0.000 N 
ATOM     27  C   UNL     1      -5.406   1.457 132.500  0.00  0.00    +0.000 C 
ATOM     28  O   UNL     1      -4.369   0.863 132.826  0.00  0.00    +0.000 OA
ATOM     29  C   UNL     1      -7.088   0.967 132.873  0.00  0.00    +0.000 C 
ATOM     30  N   UNL     1      -7.638  -0.535 132.657  0.00  0.00    +0.000 N 
ATOM     31  C   UNL     1      -6.863  -1.633 132.239  0.00  0.00    +0.000 C 
ATOM     32  O   UNL     1      -7.256  -2.726 131.855  0.00  0.00    +0.000 OA
ATOM     33  H   UNL     1      -7.672  -0.452 130.575  0.00  0.00    +0.000 HD
ATOM     34  H   UNL     1      -6.863  -0.327 125.793  0.00  0.00    +0.000 HD
ATOM     35  H   UNL     1      -7.658   5.452 133.951  0.00  0.00    +0.000 HD
ATOM     36  H   UNL     1      -4.082   2.742 131.651  0.00  0.00    +0.000 HD
ATOM     37  H   UNL     1      -8.289  -0.497 131.905  0.00  0.00    +0.000 HD
BRANCH  12  38
ATOM     38  C   UNL     1      -5.196   1.674 127.493  0.00  0.00    +0.000 A 
ATOM     39  C   UNL     1      -5.035   2.203 126.230  0.00  0.00    +0.000 A 
ATOM     40  C   UNL     1      -3.980   3.088 125.940  0.00  0.00    +0.000 A 
ATOM     41  C   UNL     1      -2.960   3.323 126.847  0.00  0.00    +0.000 A 
ATOM     42  C   UNL     1      -3.035   2.766 128.100  0.00  0.00    +0.000 A 
ATOM     43  C   UNL     1      -4.174   2.017 128.449  0.00  0.00    +0.000 A 
BRANCH  41  44
ATOM     44  O   UNL     1      -1.887   4.107 126.562  0.00  0.00    +0.000 OA
ATOM     45  H   UNL     1      -1.467   4.419 127.379  0.00  0.00    +0.000 HD
ENDBRANCH  41  44
ENDBRANCH  12  38
BRANCH   8  46
ATOM     46  C   UNL     1      -4.823  -2.183 133.382  0.00  0.00    +0.000 C 
ATOM     47  C   UNL     1      -3.353  -2.646 133.322  0.00  0.00    +0.000 C 
BRANCH  46  49
ATOM     48  C   UNL     1      -3.443  -1.504 135.315  0.00  0.00    +0.000 C 
ATOM     49  C   UNL     1      -4.871  -1.476 134.898  0.00  0.00    +0.000 C 
ENDBRANCH  46  49
ENDBRANCH   8  46
BRANCH  29  50
ATOM     50  C   UNL     1      -8.242   1.905 132.274  0.00  0.00    +0.000 C 
ATOM     51  C   UNL     1      -9.447   1.178 131.847  0.00  0.00    +0.000 C 
BRANCH  50  52
ATOM     52  O   UNL     1      -8.992   2.896 132.998  0.00  0.00    +0.000 OA
ATOM     53  H   UNL     1      -8.422   3.248 133.708  0.00  0.00    +0.000 HD
ENDBRANCH  50  52
ENDBRANCH  29  50
BRANCH  25  54
ATOM     54  C   UNL     1      -5.677   4.736 130.504  0.00  0.00    +0.000 C 
BRANCH  54  55
ATOM     55  C   UNL     1      -3.997   5.342 129.571  0.00  0.00    +0.000 C 
ATOM     56  N   UNL     1      -2.429   4.768 130.382  0.00  0.00    +0.000 N 
ATOM     57  O   UNL     1      -3.953   5.737 128.458  0.00  0.00    +0.000 OA
ATOM     58  H   UNL     1      -2.711   4.340 131.428  0.00  0.00    +0.000 HD
ATOM     59  H   UNL     1      -1.463   4.800 130.543  0.00  0.00    +0.000 HD
ENDBRANCH  54  55
ENDBRANCH  25  54
ENDBRANCH   1  21
BRANCH   7  60
ATOM     60  C   UNL     1      -2.721   8.355 132.638  0.00  0.00    +0.000 C 
ATOM     61  O   UNL     1      -3.011   8.434 131.451  0.00  0.00    +0.000 OA
ATOM     62  N   UNL     1      -2.216   9.419 133.323  0.00  0.00    +0.000 N 
ATOM     63  H   UNL     1      -1.640   9.233 134.128  0.00  0.00    +0.000 HD
BRANCH  62  64
ATOM     64  C   UNL     1      -2.263  10.812 132.928  0.00  0.00    +0.000 C 
BRANCH  64  65
ATOM     65  C   UNL     1      -0.788  11.222 132.600  0.00  0.00    +0.000 C 
ATOM     66  O   UNL     1       0.161  10.522 132.972  0.00  0.00    +0.000 OA
ATOM     67  N   UNL     1      -0.600  12.385 131.876  0.00  0.00    +0.000 N 
ATOM     68  H   UNL     1      -1.379  12.969 131.612  0.00  0.00    +0.000 HD
BRANCH  67  69
ATOM     69  C   UNL     1       0.719  12.837 131.547  0.00  0.00    +0.000 C 
BRANCH  69  70
ATOM     70  N   UNL     1       1.378  13.212 132.777  0.00  0.00    +0.000 NA
ATOM     71  H   UNL     1       0.794  12.980 133.577  0.00  0.00    +0.000 HD
ATOM     72  H   UNL     1       1.434  14.236 132.799  0.00  0.00    +0.000 HD
ENDBRANCH  69  70
ENDBRANCH  67  69
ENDBRANCH  64  65
BRANCH  64  73
ATOM     73  C   UNL     1      -2.813  11.680 134.066  0.00  0.00    +0.000 C 
BRANCH  73  74
ATOM     74  C   UNL     1      -2.380  11.197 135.450  0.00  0.00    +0.000 C 
BRANCH  74  75
ATOM     75  C   UNL     1      -1.218  11.950 136.055  0.00  0.00    +0.000 C 
BRANCH  75  76
ATOM     76  C   UNL     1      -0.815  11.374 137.431  0.00  0.00    +0.000 C 
BRANCH  76  77
ATOM     77  N   UNL     1      -1.933  10.567 138.089  0.00  0.00    +0.000 N 
ATOM     78  C   UNL     1      -1.807   9.152 138.235  0.00  0.00    +0.000 C 
ATOM     79  O   UNL     1      -0.766   8.696 137.734  0.00  0.00    +0.000 OA
ATOM     80  H   UNL     1      -2.753  11.106 138.312  0.00  0.00    +0.000 HD
BRANCH  78  81
ATOM     81  C   UNL     1      -2.720   7.967 138.833  0.00  0.00    +0.000 A 
ATOM     82  C   UNL     1      -2.058   6.805 138.759  0.00  0.00    +0.000 A 
ATOM     83  C   UNL     1      -2.824   5.672 138.604  0.00  0.00    +0.000 A 
ATOM     84  C   UNL     1      -3.156   5.213 139.802  0.00  0.00    +0.000 A 
ATOM     85  C   UNL     1      -4.151   5.920 140.326  0.00  0.00    +0.000 A 
ATOM     86  C   UNL     1      -3.897   7.508 139.548  0.00  0.00    +0.000 A 
ATOM     87  C   UNL     1      -4.811   4.069 140.283  0.00  0.00    +0.000 C 
ATOM     88  O   UNL     1      -3.749   3.912 141.337  0.00  0.00    +0.000 OA
ATOM     89  C   UNL     1      -2.598   4.431 140.805  0.00  0.00    +0.000 C 
ATOM     90  O   UNL     1      -1.428   4.547 141.090  0.00  0.00    +0.000 OA
ATOM     91  C   UNL     1      -5.869   2.730 141.085  0.00  0.00    +0.000 A 
ATOM     92  C   UNL     1      -6.030   1.220 140.960  0.00  0.00    +0.000 A 
ATOM     93  C   UNL     1      -7.338   0.457 141.176  0.00  0.00    +0.000 A 
ATOM     94  C   UNL     1      -8.493   1.152 141.482  0.00  0.00    +0.000 A 
ATOM     95  C   UNL     1      -8.338   2.511 141.695  0.00  0.00    +0.000 A 
ATOM     96  C   UNL     1      -7.084   3.213 141.580  0.00  0.00    +0.000 A 
ATOM     97  O   UNL     1      -7.109   4.536 141.898  0.00  0.00    +0.000 OA
ATOM     98  C   UNL     1      -6.815   5.286 140.808  0.00  0.00    +0.000 A 
ATOM     99  C   UNL     1      -6.763   6.637 140.976  0.00  0.00    +0.000 A 
ATOM    100  C   UNL     1      -6.512   7.394 139.851  0.00  0.00    +0.000 A 
ATOM    101  C   UNL     1      -6.297   6.733 138.545  0.00  0.00    +0.000 A 
ATOM    102  C   UNL     1      -6.109   5.338 138.469  0.00  0.00    +0.000 A 
ATOM    103  C   UNL     1      -6.133   4.729 139.723  0.00  0.00    +0.000 A 
BRANCH 100 104
ATOM    104  O   UNL     1      -6.099   8.712 140.108  0.00  0.00    +0.000 OA
ATOM    105  H   UNL     1      -6.828   9.372 140.009  0.00  0.00    +0.000 HD
ENDBRANCH 100 104
BRANCH  94 106
ATOM    106  O   UNL     1      -9.762   0.651 141.598  0.00  0.00    +0.000 OA
ATOM    107  H   UNL     1     -10.057   0.501 142.512  0.00  0.00    +0.000 HD
ENDBRANCH  94 106
ENDBRANCH  78  81
ENDBRANCH  76  77
ENDBRANCH  75  76
ENDBRANCH  74  75
ENDBRANCH  73  74
ENDBRANCH  64  73
ENDBRANCH  62  64
ENDBRANCH   7  60
TORSDOF 22
ENDMDL
MODEL 4
REMARK VINA RESULT:      -8.3      6.250     11.895
REMARK  Name = CHEMBL1790728
REMARK  25 active torsions:
REMARK  status: ('A' for Active; 'I' for Inactive)
REMARK    1  A    between atoms: C_1  and  C_2
REMARK    2  A    between atoms: C_2  and  C_3
REMARK    3  A    between atoms: C_3  and  C_4
REMARK    4  A    between atoms: C_3  and  C_5
REMARK    5  A    between atoms: C_9  and  C_10
REMARK    6  A    between atoms: C_13  and  O_14
REMARK    7  A    between atoms: C_25  and  C_26
REMARK    8  A    between atoms: C_32  and  C_33
REMARK    9  A    between atoms: N_35  and  C_36
REMARK   10  A    between atoms: C_36  and  C_37
REMARK   11  A    between atoms: C_36  and  C_69
REMARK   12  A    between atoms: C_37  and  C_38
REMARK   13  A    between atoms: C_38  and  C_39
REMARK   14  A    between atoms: C_39  and  C_40
REMARK   15  A    between atoms: C_40  and  N_41
REMARK   16  A    between atoms: C_42  and  C_44
REMARK   17  A    between atoms: C_57  and  O_58
REMARK   18  A    between atoms: C_64  and  O_65
REMARK   19  A    between atoms: N_71  and  C_72
REMARK   20  A    between atoms: C_72  and  N_73
REMARK   21  A    between atoms: C_77  and  C_78
REMARK   22  A    between atoms: C_78  and  C_79
REMARK   23  A    between atoms: C_85  and  C_86
REMARK   24  A    between atoms: C_86  and  C_87
REMARK   25  A    between atoms: C_86  and  O_88
REMARK                            x       y       z     vdW  Elec       q    Type
REMARK                         _______ _______ _______ _____ _____    ______ ____
ROOT
ATOM      1  C   UNL     1      -3.426   6.830 138.320  0.00  0.00    +0.000 C 
ATOM      2  O   UNL     1      -2.441   6.331 138.867  0.00  0.00    +0.000 OA
ATOM      3  N   UNL     1      -3.927   6.304 137.180  0.00  0.00    +0.000 N 
ATOM      4  C   UNL     1      -4.754   6.948 136.175  0.00  0.00    +0.000 C 
ATOM      5  C   UNL     1      -5.763   5.895 135.952  0.00  0.00    +0.000 C 
ATOM      6  C   UNL     1      -4.878   4.663 135.904  0.00  0.00    +0.000 C 
ATOM      7  C   UNL     1      -3.707   4.906 136.882  0.00  0.00    +0.000 C 
ENDROOT
BRANCH   1  21
ATOM      8  C   UNL     1       1.043  12.116 135.063  0.00  0.00    +0.000 C 
ATOM      9  N   UNL     1       1.020  12.421 136.986  0.00  0.00    +0.000 N 
ATOM     10  C   UNL     1       1.259  12.189 138.518  0.00  0.00    +0.000 C 
ATOM     11  O   UNL     1       0.501  12.854 139.288  0.00  0.00    +0.000 OA
ATOM     12  C   UNL     1       2.568  11.441 139.339  0.00  0.00    +0.000 C 
ATOM     13  N   UNL     1       3.173  12.067 140.661  0.00  0.00    +0.000 N 
ATOM     14  C   UNL     1       2.936  11.924 142.031  0.00  0.00    +0.000 C 
ATOM     15  O   UNL     1       3.789  12.313 142.843  0.00  0.00    +0.000 OA
ATOM     16  C   UNL     1       1.707  11.259 142.616  0.00  0.00    +0.000 C 
ATOM     17  C   UNL     1       0.823  10.677 141.603  0.00  0.00    +0.000 C 
ATOM     18  S   UNL     1      -0.758  10.447 142.226  0.00  0.00    +0.000 S 
ATOM     19  S   UNL     1      -1.807  10.648 140.051  0.00  0.00    +0.000 S 
ATOM     20  C   UNL     1      -3.641   8.884 139.897  0.00  0.00    +0.000 C 
ATOM     21  C   UNL     1      -4.138   8.137 138.790  0.00  0.00    +0.000 C 
ATOM     22  N   UNL     1      -4.267   9.184 137.903  0.00  0.00    +0.000 N 
ATOM     23  C   UNL     1      -3.167   9.595 137.231  0.00  0.00    +0.000 C 
ATOM     24  O   UNL     1      -3.434  10.229 136.201  0.00  0.00    +0.000 OA
ATOM     25  C   UNL     1      -1.717   9.489 137.874  0.00  0.00    +0.000 C 
ATOM     26  N   UNL     1      -0.898   9.390 136.758  0.00  0.00    +0.000 N 
ATOM     27  C   UNL     1      -0.833  10.409 135.874  0.00  0.00    +0.000 C 
ATOM     28  O   UNL     1      -0.249   9.998 134.862  0.00  0.00    +0.000 OA
ATOM     29  C   UNL     1      -1.548  12.033 136.119  0.00  0.00    +0.000 C 
ATOM     30  N   UNL     1      -0.769  13.402 135.765  0.00  0.00    +0.000 N 
ATOM     31  C   UNL     1       0.499  13.484 135.160  0.00  0.00    +0.000 C 
ATOM     32  O   UNL     1       1.223  14.466 135.065  0.00  0.00    +0.000 OA
ATOM     33  H   UNL     1       0.585  13.292 137.345  0.00  0.00    +0.000 HD
ATOM     34  H   UNL     1       4.127  12.396 140.537  0.00  0.00    +0.000 HD
ATOM     35  H   UNL     1      -5.148   9.671 137.868  0.00  0.00    +0.000 HD
ATOM     36  H   UNL     1      -0.416   8.538 136.545  0.00  0.00    +0.000 HD
ATOM     37  H   UNL     1      -0.568  13.851 136.631  0.00  0.00    +0.000 HD
BRANCH  12  38
ATOM     38  C   UNL     1       2.543   9.908 139.550  0.00  0.00    +0.000 A 
ATOM     39  C   UNL     1       3.106   9.403 140.703  0.00  0.00    +0.000 A 
ATOM     40  C   UNL     1       3.255   8.016 140.894  0.00  0.00    +0.000 A 
ATOM     41  C   UNL     1       3.017   7.113 139.871  0.00  0.00    +0.000 A 
ATOM     42  C   UNL     1       2.520   7.570 138.676  0.00  0.00    +0.000 A 
ATOM     43  C   UNL     1       2.210   8.936 138.540  0.00  0.00    +0.000 A 
BRANCH  41  44
ATOM     44  O   UNL     1       3.234   5.778 140.003  0.00  0.00    +0.000 OA
ATOM     45  H   UNL     1       3.079   5.498 140.919  0.00  0.00    +0.000 HD
ENDBRANCH  41  44
ENDBRANCH  12  38
BRANCH   8  46
ATOM     46  C   UNL     1       0.946  12.304 133.116  0.00  0.00    +0.000 C 
ATOM     47  C   UNL     1       1.856  11.406 132.253  0.00  0.00    +0.000 C 
BRANCH  46  49
ATOM     48  C   UNL     1      -0.682  13.205 131.491  0.00  0.00    +0.000 C 
ATOM     49  C   UNL     1      -0.541  12.033 132.397  0.00  0.00    +0.000 C 
ENDBRANCH  46  49
ENDBRANCH   8  46
BRANCH  29  50
ATOM     50  C   UNL     1      -2.199  12.305 137.559  0.00  0.00    +0.000 C 
ATOM     51  C   UNL     1      -2.033  13.684 138.043  0.00  0.00    +0.000 C 
BRANCH  50  52
ATOM     52  O   UNL     1      -3.600  12.269 137.877  0.00  0.00    +0.000 OA
ATOM     53  H   UNL     1      -4.098  12.556 137.089  0.00  0.00    +0.000 HD
ENDBRANCH  50  52
ENDBRANCH  29  50
BRANCH  25  54
ATOM     54  C   UNL     1      -1.505   8.457 139.122  0.00  0.00    +0.000 C 
BRANCH  54  55
ATOM     55  C   UNL     1      -0.434   6.768 139.364  0.00  0.00    +0.000 C 
ATOM     56  N   UNL     1       0.111   5.981 137.775  0.00  0.00    +0.000 N 
ATOM     57  O   UNL     1       0.095   6.447 140.372  0.00  0.00    +0.000 OA
ATOM     58  H   UNL     1      -0.468   6.502 136.909  0.00  0.00    +0.000 HD
ATOM     59  H   UNL     1       0.449   5.235 137.236  0.00  0.00    +0.000 HD
ENDBRANCH  54  55
ENDBRANCH  25  54
ENDBRANCH   1  21
BRANCH   7  60
ATOM     60  C   UNL     1      -3.737   3.960 138.100  0.00  0.00    +0.000 C 
ATOM     61  O   UNL     1      -4.654   3.875 138.906  0.00  0.00    +0.000 OA
ATOM     62  N   UNL     1      -2.619   3.188 138.208  0.00  0.00    +0.000 N 
ATOM     63  H   UNL     1      -1.762   3.539 137.809  0.00  0.00    +0.000 HD
BRANCH  62  64
ATOM     64  C   UNL     1      -2.463   1.980 138.992  0.00  0.00    +0.000 C 
BRANCH  64  65
ATOM     65  C   UNL     1      -1.069   2.092 139.696  0.00  0.00    +0.000 C 
ATOM     66  O   UNL     1      -0.904   1.663 140.843  0.00  0.00    +0.000 OA
ATOM     67  N   UNL     1      -0.044   2.680 138.978  0.00  0.00    +0.000 N 
ATOM     68  H   UNL     1      -0.201   3.062 138.059  0.00  0.00    +0.000 HD
BRANCH  67  69
ATOM     69  C   UNL     1       1.259   2.834 139.556  0.00  0.00    +0.000 C 
BRANCH  69  70
ATOM     70  N   UNL     1       1.140   3.730 140.684  0.00  0.00    +0.000 NA
ATOM     71  H   UNL     1       0.249   3.590 141.155  0.00  0.00    +0.000 HD
ATOM     72  H   UNL     1       1.077   4.685 140.315  0.00  0.00    +0.000 HD
ENDBRANCH  69  70
ENDBRANCH  67  69
ENDBRANCH  64  65
BRANCH  64  73
ATOM     73  C   UNL     1      -2.504   0.740 138.091  0.00  0.00    +0.000 C 
BRANCH  73  74
ATOM     74  C   UNL     1      -3.729   0.704 137.177  0.00  0.00    +0.000 C 
BRANCH  74  75
ATOM     75  C   UNL     1      -3.715  -0.387 136.132  0.00  0.00    +0.000 C 
BRANCH  75  76
ATOM     76  C   UNL     1      -3.723   0.190 134.700  0.00  0.00    +0.000 C 
BRANCH  76  77
ATOM     77  N   UNL     1      -4.955   1.046 134.409  0.00  0.00    +0.000 N 
ATOM     78  C   UNL     1      -5.119   1.658 133.129  0.00  0.00    +0.000 C 
ATOM     79  O   UNL     1      -4.161   1.461 132.363  0.00  0.00    +0.000 OA
ATOM     80  H   UNL     1      -5.552   1.190 135.206  0.00  0.00    +0.000 HD
BRANCH  78  81
ATOM     81  C   UNL     1      -6.216   2.613 132.438  0.00  0.00    +0.000 A 
ATOM     82  C   UNL     1      -6.063   2.589 131.108  0.00  0.00    +0.000 A 
ATOM     83  C   UNL     1      -6.417   3.734 130.429  0.00  0.00    +0.000 A 
ATOM     84  C   UNL     1      -7.702   3.665 130.113  0.00  0.00    +0.000 A 
ATOM     85  C   UNL     1      -8.467   3.945 131.162  0.00  0.00    +0.000 A 
ATOM     86  C   UNL     1      -7.413   3.433 132.510  0.00  0.00    +0.000 A 
ATOM     87  C   UNL     1      -8.991   5.249 129.788  0.00  0.00    +0.000 C 
ATOM     88  O   UNL     1      -9.529   4.001 129.141  0.00  0.00    +0.000 OA
ATOM     89  C   UNL     1      -8.499   3.099 129.127  0.00  0.00    +0.000 C 
ATOM     90  O   UNL     1      -8.258   1.989 128.710  0.00  0.00    +0.000 OA
ATOM     91  C   UNL     1     -10.356   6.294 129.013  0.00  0.00    +0.000 A 
ATOM     92  C   UNL     1     -10.549   7.094 127.731  0.00  0.00    +0.000 A 
ATOM     93  C   UNL     1     -11.397   8.360 127.606  0.00  0.00    +0.000 A 
ATOM     94  C   UNL     1     -12.034   8.870 128.722  0.00  0.00    +0.000 A 
ATOM     95  C   UNL     1     -11.948   8.097 129.868  0.00  0.00    +0.000 A 
ATOM     96  C   UNL     1     -11.221   6.855 129.958  0.00  0.00    +0.000 A 
ATOM     97  O   UNL     1     -11.308   6.196 131.145  0.00  0.00    +0.000 OA
ATOM     98  C   UNL     1     -10.089   6.130 131.734  0.00  0.00    +0.000 A 
ATOM     99  C   UNL     1     -10.005   5.463 132.919  0.00  0.00    +0.000 A 
ATOM    100  C   UNL     1      -8.771   5.444 133.536  0.00  0.00    +0.000 A 
ATOM    101  C   UNL     1      -7.614   6.111 132.900  0.00  0.00    +0.000 A 
ATOM    102  C   UNL     1      -7.690   6.563 131.567  0.00  0.00    +0.000 A 
ATOM    103  C   UNL     1      -8.923   6.283 130.979  0.00  0.00    +0.000 A 
BRANCH 100 104
ATOM    104  O   UNL     1      -8.625   4.463 134.530  0.00  0.00    +0.000 OA
ATOM    105  H   UNL     1      -7.737   4.481 134.965  0.00  0.00    +0.000 HD
ENDBRANCH 100 104
BRANCH  94 106
ATOM    106  O   UNL     1     -12.736  10.041 128.821  0.00  0.00    +0.000 OA
ATOM    107  H   UNL     1     -12.486  10.720 128.172  0.00  0.00    +0.000 HD
ENDBRANCH  94 106
ENDBRANCH  78  81
ENDBRANCH  76  77
ENDBRANCH  75  76
ENDBRANCH  74  75
ENDBRANCH  73  74
ENDBRANCH  64  73
ENDBRANCH  62  64
ENDBRANCH   7  60
TORSDOF 22
ENDMDL
MODEL 5
REMARK VINA RESULT:      -8.2      2.490      5.985
REMARK  Name = CHEMBL1790728
REMARK  25 active torsions:
REMARK  status: ('A' for Active; 'I' for Inactive)
REMARK    1  A    between atoms: C_1  and  C_2
REMARK    2  A    between atoms: C_2  and  C_3
REMARK    3  A    between atoms: C_3  and  C_4
REMARK    4  A    between atoms: C_3  and  C_5
REMARK    5  A    between atoms: C_9  and  C_10
REMARK    6  A    between atoms: C_13  and  O_14
REMARK    7  A    between atoms: C_25  and  C_26
REMARK    8  A    between atoms: C_32  and  C_33
REMARK    9  A    between atoms: N_35  and  C_36
REMARK   10  A    between atoms: C_36  and  C_37
REMARK   11  A    between atoms: C_36  and  C_69
REMARK   12  A    between atoms: C_37  and  C_38
REMARK   13  A    between atoms: C_38  and  C_39
REMARK   14  A    between atoms: C_39  and  C_40
REMARK   15  A    between atoms: C_40  and  N_41
REMARK   16  A    between atoms: C_42  and  C_44
REMARK   17  A    between atoms: C_57  and  O_58
REMARK   18  A    between atoms: C_64  and  O_65
REMARK   19  A    between atoms: N_71  and  C_72
REMARK   20  A    between atoms: C_72  and  N_73
REMARK   21  A    between atoms: C_77  and  C_78
REMARK   22  A    between atoms: C_78  and  C_79
REMARK   23  A    between atoms: C_85  and  C_86
REMARK   24  A    between atoms: C_86  and  C_87
REMARK   25  A    between atoms: C_86  and  O_88
REMARK                            x       y       z     vdW  Elec       q    Type
REMARK                         _______ _______ _______ _____ _____    ______ ____
ROOT
ATOM      1  C   UNL     1      -4.867   3.114 138.232  0.00  0.00    +0.000 C 
ATOM      2  O   UNL     1      -4.947   2.682 137.081  0.00  0.00    +0.000 OA
ATOM      3  N   UNL     1      -4.331   4.330 138.480  0.00  0.00    +0.000 N 
ATOM      4  C   UNL     1      -3.757   4.828 139.717  0.00  0.00    +0.000 C 
ATOM      5  C   UNL     1      -4.371   6.169 139.770  0.00  0.00    +0.000 C 
ATOM      6  C   UNL     1      -4.215   6.608 138.326  0.00  0.00    +0.000 C 
ATOM      7  C   UNL     1      -4.353   5.343 137.449  0.00  0.00    +0.000 C 
ENDROOT
BRANCH   1  21
ATOM      8  C   UNL     1       1.381  -1.202 139.169  0.00  0.00    +0.000 C 
ATOM      9  N   UNL     1      -0.164  -2.374 138.991  0.00  0.00    +0.000 N 
ATOM     10  C   UNL     1      -1.395  -3.102 138.349  0.00  0.00    +0.000 C 
ATOM     11  O   UNL     1      -2.230  -3.580 139.177  0.00  0.00    +0.000 OA
ATOM     12  C   UNL     1      -1.653  -3.644 136.741  0.00  0.00    +0.000 C 
ATOM     13  N   UNL     1      -2.309  -5.055 136.445  0.00  0.00    +0.000 N 
ATOM     14  C   UNL     1      -3.608  -5.526 136.239  0.00  0.00    +0.000 C 
ATOM     15  O   UNL     1      -3.780  -6.636 135.714  0.00  0.00    +0.000 OA
ATOM     16  C   UNL     1      -4.860  -4.738 136.567  0.00  0.00    +0.000 C 
ATOM     17  C   UNL     1      -4.585  -3.375 137.029  0.00  0.00    +0.000 C 
ATOM     18  S   UNL     1      -5.923  -2.737 137.890  0.00  0.00    +0.000 S 
ATOM     19  S   UNL     1      -4.549  -1.257 139.229  0.00  0.00    +0.000 S 
ATOM     20  C   UNL     1      -5.756   0.981 139.418  0.00  0.00    +0.000 C 
ATOM     21  C   UNL     1      -5.260   2.313 139.512  0.00  0.00    +0.000 C 
ATOM     22  N   UNL     1      -4.305   2.087 140.479  0.00  0.00    +0.000 N 
ATOM     23  C   UNL     1      -3.109   1.587 140.096  0.00  0.00    +0.000 C 
ATOM     24  O   UNL     1      -2.207   1.793 140.920  0.00  0.00    +0.000 OA
ATOM     25  C   UNL     1      -2.982   0.612 138.846  0.00  0.00    +0.000 C 
ATOM     26  N   UNL     1      -1.680   0.834 138.419  0.00  0.00    +0.000 N 
ATOM     27  C   UNL     1      -0.642   0.530 139.229  0.00  0.00    +0.000 C 
ATOM     28  O   UNL     1       0.379   1.037 138.744  0.00  0.00    +0.000 OA
ATOM     29  C   UNL     1      -0.766  -0.379 140.767  0.00  0.00    +0.000 C 
ATOM     30  N   UNL     1       0.260  -1.553 141.182  0.00  0.00    +0.000 N 
ATOM     31  C   UNL     1       1.395  -1.941 140.445  0.00  0.00    +0.000 C 
ATOM     32  O   UNL     1       2.078  -2.946 140.591  0.00  0.00    +0.000 OA
ATOM     33  H   UNL     1      -0.446  -2.950 139.806  0.00  0.00    +0.000 HD
ATOM     34  H   UNL     1      -1.663  -5.701 135.999  0.00  0.00    +0.000 HD
ATOM     35  H   UNL     1      -4.570   2.203 141.445  0.00  0.00    +0.000 HD
ATOM     36  H   UNL     1      -1.494   1.301 137.553  0.00  0.00    +0.000 HD
ATOM     37  H   UNL     1      -0.252  -2.407 141.155  0.00  0.00    +0.000 HD
BRANCH  12  38
ATOM     38  C   UNL     1      -2.242  -2.659 135.702  0.00  0.00    +0.000 A 
ATOM     39  C   UNL     1      -3.175  -3.140 134.809  0.00  0.00    +0.000 A 
ATOM     40  C   UNL     1      -3.641  -2.346 133.744  0.00  0.00    +0.000 A 
ATOM     41  C   UNL     1      -3.057  -1.128 133.438  0.00  0.00    +0.000 A 
ATOM     42  C   UNL     1      -2.074  -0.631 134.258  0.00  0.00    +0.000 A 
ATOM     43  C   UNL     1      -1.724  -1.345 135.418  0.00  0.00    +0.000 A 
BRANCH  41  44
ATOM     44  O   UNL     1      -3.432  -0.381 132.367  0.00  0.00    +0.000 OA
ATOM     45  H   UNL     1      -3.945   0.391 132.653  0.00  0.00    +0.000 HD
ENDBRANCH  41  44
ENDBRANCH  12  38
BRANCH   8  46
ATOM     46  C   UNL     1       3.016  -0.303 139.764  0.00  0.00    +0.000 C 
ATOM     47  C   UNL     1       3.761   0.595 138.755  0.00  0.00    +0.000 C 
BRANCH  46  49
ATOM     48  C   UNL     1       3.606   1.944 140.602  0.00  0.00    +0.000 C 
ATOM     49  C   UNL     1       2.885   0.731 141.073  0.00  0.00    +0.000 C 
ENDBRANCH  46  49
ENDBRANCH   8  46
BRANCH  29  50
ATOM     50  C   UNL     1      -2.214  -0.971 141.119  0.00  0.00    +0.000 C 
ATOM     51  C   UNL     1      -2.182  -2.289 141.772  0.00  0.00    +0.000 C 
BRANCH  50  52
ATOM     52  O   UNL     1      -3.145  -0.426 142.070  0.00  0.00    +0.000 OA
ATOM     53  H   UNL     1      -3.737   0.188 141.597  0.00  0.00    +0.000 HD
ENDBRANCH  50  52
ENDBRANCH  29  50
BRANCH  25  54
ATOM     54  C   UNL     1      -4.197   0.603 137.755  0.00  0.00    +0.000 C 
BRANCH  54  55
ATOM     55  C   UNL     1      -4.291   0.970 135.776  0.00  0.00    +0.000 C 
ATOM     56  N   UNL     1      -5.843   0.360 134.963  0.00  0.00    +0.000 N 
ATOM     57  O   UNL     1      -3.621   1.762 135.208  0.00  0.00    +0.000 OA
ATOM     58  H   UNL     1      -6.388  -0.333 135.724  0.00  0.00    +0.000 HD
ATOM     59  H   UNL     1      -6.385   0.104 134.187  0.00  0.00    +0.000 HD
ENDBRANCH  54  55
ENDBRANCH  25  54
ENDBRANCH   1  21
BRANCH   7  60
ATOM     60  C   UNL     1      -5.620   5.360 136.568  0.00  0.00    +0.000 C 
ATOM     61  O   UNL     1      -6.746   5.642 136.956  0.00  0.00    +0.000 OA
ATOM     62  N   UNL     1      -5.373   5.032 135.268  0.00  0.00    +0.000 N 
ATOM     63  H   UNL     1      -4.579   4.444 135.071  0.00  0.00    +0.000 HD
BRANCH  62  64
ATOM     64  C   UNL     1      -6.229   5.283 134.127  0.00  0.00    +0.000 C 
BRANCH  64  65
ATOM     65  C   UNL     1      -6.724   3.881 133.634  0.00  0.00    +0.000 C 
ATOM     66  O   UNL     1      -7.143   3.041 134.438  0.00  0.00    +0.000 OA
ATOM     67  N   UNL     1      -6.677   3.636 132.275  0.00  0.00    +0.000 N 
ATOM     68  H   UNL     1      -6.296   4.313 131.633  0.00  0.00    +0.000 HD
BRANCH  67  69
ATOM     69  C   UNL     1      -7.098   2.372 131.745  0.00  0.00    +0.000 C 
BRANCH  69  70
ATOM     70  N   UNL     1      -6.116   1.383 132.126  0.00  0.00    +0.000 NA
ATOM     71  H   UNL     1      -6.111   1.260 133.136  0.00  0.00    +0.000 HD
ATOM     72  H   UNL     1      -5.190   1.770 131.919  0.00  0.00    +0.000 HD
ENDBRANCH  69  70
ENDBRANCH  67  69
ENDBRANCH  64  65
BRANCH  64  73
ATOM     73  C   UNL     1      -5.452   5.993 133.012  0.00  0.00    +0.000 C 
BRANCH  73  74
ATOM     74  C   UNL     1      -4.021   6.351 133.414  0.00  0.00    +0.000 C 
BRANCH  74  75
ATOM     75  C   UNL     1      -3.114   6.740 132.270  0.00  0.00    +0.000 C 
BRANCH  75  76
ATOM     76  C   UNL     1      -2.328   5.528 131.723  0.00  0.00    +0.000 C 
BRANCH  76  77
ATOM     77  N   UNL     1      -2.901   4.988 130.414  0.00  0.00    +0.000 N 
ATOM     78  C   UNL     1      -3.668   3.783 130.407  0.00  0.00    +0.000 C 
ATOM     79  O   UNL     1      -3.746   3.243 131.523  0.00  0.00    +0.000 OA
ATOM     80  H   UNL     1      -2.615   5.503 129.598  0.00  0.00    +0.000 HD
BRANCH  78  81
ATOM     81  C   UNL     1      -4.411   2.894 129.288  0.00  0.00    +0.000 A 
ATOM     82  C   UNL     1      -5.016   3.696 128.403  0.00  0.00    +0.000 A 
ATOM     83  C   UNL     1      -6.156   3.203 127.809  0.00  0.00    +0.000 A 
ATOM     84  C   UNL     1      -5.815   2.535 126.716  0.00  0.00    +0.000 A 
ATOM     85  C   UNL     1      -5.347   1.330 127.020  0.00  0.00    +0.000 A 
ATOM     86  C   UNL     1      -4.677   1.617 128.650  0.00  0.00    +0.000 A 
ATOM     87  C   UNL     1      -6.866   0.996 125.818  0.00  0.00    +0.000 C 
ATOM     88  O   UNL     1      -5.922   1.625 124.829  0.00  0.00    +0.000 OA
ATOM     89  C   UNL     1      -5.507   2.804 125.390  0.00  0.00    +0.000 C 
ATOM     90  O   UNL     1      -4.833   3.768 125.103  0.00  0.00    +0.000 OA
ATOM     91  C   UNL     1      -7.634  -0.077 124.471  0.00  0.00    +0.000 A 
ATOM     92  C   UNL     1      -8.798   0.032 123.495  0.00  0.00    +0.000 A 
ATOM     93  C   UNL     1      -9.639  -1.145 122.998  0.00  0.00    +0.000 A 
ATOM     94  C   UNL     1      -9.376  -2.420 123.465  0.00  0.00    +0.000 A 
ATOM     95  C   UNL     1      -8.259  -2.544 124.274  0.00  0.00    +0.000 A 
ATOM     96  C   UNL     1      -7.414  -1.444 124.667  0.00  0.00    +0.000 A 
ATOM     97  O   UNL     1      -6.318  -1.767 125.406  0.00  0.00    +0.000 OA
ATOM     98  C   UNL     1      -6.406  -1.214 126.641  0.00  0.00    +0.000 A 
ATOM     99  C   UNL     1      -5.359  -1.415 127.489  0.00  0.00    +0.000 A 
ATOM    100  C   UNL     1      -5.479  -0.890 128.760  0.00  0.00    +0.000 A 
ATOM    101  C   UNL     1      -6.693  -0.134 129.138  0.00  0.00    +0.000 A 
ATOM    102  C   UNL     1      -7.625   0.264 128.158  0.00  0.00    +0.000 A 
ATOM    103  C   UNL     1      -7.242  -0.118 126.872  0.00  0.00    +0.000 A 
BRANCH 100 104
ATOM    104  O   UNL     1      -4.272  -0.786 129.470  0.00  0.00    +0.000 OA
ATOM    105  H   UNL     1      -3.509  -1.202 128.998  0.00  0.00    +0.000 HD
ENDBRANCH 100 104
BRANCH  94 106
ATOM    106  O   UNL     1     -10.088  -3.563 123.219  0.00  0.00    +0.000 OA
ATOM    107  H   UNL     1     -10.831  -3.717 123.827  0.00  0.00    +0.000 HD
ENDBRANCH  94 106
ENDBRANCH  78  81
ENDBRANCH  76  77
ENDBRANCH  75  76
ENDBRANCH  74  75
ENDBRANCH  73  74
ENDBRANCH  64  73
ENDBRANCH  62  64
ENDBRANCH   7  60
TORSDOF 22
ENDMDL
MODEL 6
REMARK VINA RESULT:      -8.2      5.113     12.413
REMARK  Name = CHEMBL1790728
REMARK  25 active torsions:
REMARK  status: ('A' for Active; 'I' for Inactive)
REMARK    1  A    between atoms: C_1  and  C_2
REMARK    2  A    between atoms: C_2  and  C_3
REMARK    3  A    between atoms: C_3  and  C_4
REMARK    4  A    between atoms: C_3  and  C_5
REMARK    5  A    between atoms: C_9  and  C_10
REMARK    6  A    between atoms: C_13  and  O_14
REMARK    7  A    between atoms: C_25  and  C_26
REMARK    8  A    between atoms: C_32  and  C_33
REMARK    9  A    between atoms: N_35  and  C_36
REMARK   10  A    between atoms: C_36  and  C_37
REMARK   11  A    between atoms: C_36  and  C_69
REMARK   12  A    between atoms: C_37  and  C_38
REMARK   13  A    between atoms: C_38  and  C_39
REMARK   14  A    between atoms: C_39  and  C_40
REMARK   15  A    between atoms: C_40  and  N_41
REMARK   16  A    between atoms: C_42  and  C_44
REMARK   17  A    between atoms: C_57  and  O_58
REMARK   18  A    between atoms: C_64  and  O_65
REMARK   19  A    between atoms: N_71  and  C_72
REMARK   20  A    between atoms: C_72  and  N_73
REMARK   21  A    between atoms: C_77  and  C_78
REMARK   22  A    between atoms: C_78  and  C_79
REMARK   23  A    between atoms: C_85  and  C_86
REMARK   24  A    between atoms: C_86  and  C_87
REMARK   25  A    between atoms: C_86  and  O_88
REMARK                            x       y       z     vdW  Elec       q    Type
REMARK                         _______ _______ _______ _____ _____    ______ ____
ROOT
ATOM      1  C   UNL     1      -5.469   5.608 134.050  0.00  0.00    +0.000 C 
ATOM      2  O   UNL     1      -4.886   6.254 133.177  0.00  0.00    +0.000 OA
ATOM      3  N   UNL     1      -4.775   4.965 135.015  0.00  0.00    +0.000 N 
ATOM      4  C   UNL     1      -5.197   3.842 135.835  0.00  0.00    +0.000 C 
ATOM      5  C   UNL     1      -4.728   4.294 137.159  0.00  0.00    +0.000 C 
ATOM      6  C   UNL     1      -3.356   4.835 136.803  0.00  0.00    +0.000 C 
ATOM      7  C   UNL     1      -3.459   5.436 135.383  0.00  0.00    +0.000 C 
ENDROOT
BRANCH   1  21
ATOM      8  C   UNL     1      -5.940  -1.271 130.734  0.00  0.00    +0.000 C 
ATOM      9  N   UNL     1      -7.023  -0.013 129.715  0.00  0.00    +0.000 N 
ATOM     10  C   UNL     1      -7.401   1.202 128.800  0.00  0.00    +0.000 C 
ATOM     11  O   UNL     1      -8.606   1.589 128.887  0.00  0.00    +0.000 OA
ATOM     12  C   UNL     1      -6.563   1.898 127.472  0.00  0.00    +0.000 C 
ATOM     13  N   UNL     1      -7.328   2.335 126.157  0.00  0.00    +0.000 N 
ATOM     14  C   UNL     1      -7.930   3.510 125.699  0.00  0.00    +0.000 C 
ATOM     15  O   UNL     1      -8.174   3.641 124.490  0.00  0.00    +0.000 OA
ATOM     16  C   UNL     1      -8.266   4.694 126.582  0.00  0.00    +0.000 C 
ATOM     17  C   UNL     1      -7.803   4.539 127.964  0.00  0.00    +0.000 C 
ATOM     18  S   UNL     1      -8.655   5.587 129.019  0.00  0.00    +0.000 S 
ATOM     19  S   UNL     1      -8.361   4.139 130.939  0.00  0.00    +0.000 S 
ATOM     20  C   UNL     1      -7.825   5.605 132.955  0.00  0.00    +0.000 C 
ATOM     21  C   UNL     1      -7.010   5.370 134.100  0.00  0.00    +0.000 C 
ATOM     22  N   UNL     1      -7.483   4.113 134.409  0.00  0.00    +0.000 N 
ATOM     23  C   UNL     1      -6.977   3.054 133.736  0.00  0.00    +0.000 C 
ATOM     24  O   UNL     1      -7.139   1.978 134.328  0.00  0.00    +0.000 OA
ATOM     25  C   UNL     1      -6.484   3.190 132.230  0.00  0.00    +0.000 C 
ATOM     26  N   UNL     1      -5.530   2.186 132.134  0.00  0.00    +0.000 N 
ATOM     27  C   UNL     1      -5.891   0.893 132.286  0.00  0.00    +0.000 C 
ATOM     28  O   UNL     1      -4.856   0.222 132.406  0.00  0.00    +0.000 OA
ATOM     29  C   UNL     1      -7.577   0.297 132.378  0.00  0.00    +0.000 C 
ATOM     30  N   UNL     1      -8.093  -1.012 131.589  0.00  0.00    +0.000 N 
ATOM     31  C   UNL     1      -7.286  -1.870 130.819  0.00  0.00    +0.000 C 
ATOM     32  O   UNL     1      -7.646  -2.738 130.035  0.00  0.00    +0.000 OA
ATOM     33  H   UNL     1      -8.052  -0.148 129.693  0.00  0.00    +0.000 HD
ATOM     34  H   UNL     1      -7.069   1.776 125.349  0.00  0.00    +0.000 HD
ATOM     35  H   UNL     1      -8.260   4.041 135.046  0.00  0.00    +0.000 HD
ATOM     36  H   UNL     1      -4.557   2.406 132.039  0.00  0.00    +0.000 HD
ATOM     37  H   UNL     1      -8.717  -0.694 130.881  0.00  0.00    +0.000 HD
BRANCH  12  38
ATOM     38  C   UNL     1      -5.498   2.988 127.745  0.00  0.00    +0.000 A 
ATOM     39  C   UNL     1      -5.332   3.981 126.804  0.00  0.00    +0.000 A 
ATOM     40  C   UNL     1      -4.285   4.917 126.909  0.00  0.00    +0.000 A 
ATOM     41  C   UNL     1      -3.277   4.774 127.848  0.00  0.00    +0.000 A 
ATOM     42  C   UNL     1      -3.357   3.759 128.769  0.00  0.00    +0.000 A 
ATOM     43  C   UNL     1      -4.490   2.925 128.772  0.00  0.00    +0.000 A 
BRANCH  41  44
ATOM     44  O   UNL     1      -2.211   5.614 127.916  0.00  0.00    +0.000 OA
ATOM     45  H   UNL     1      -1.759   5.661 127.059  0.00  0.00    +0.000 HD
ENDBRANCH  41  44
ENDBRANCH  12  38
BRANCH   8  46
ATOM     46  C   UNL     1      -5.280  -2.808 131.751  0.00  0.00    +0.000 C 
ATOM     47  C   UNL     1      -3.808  -3.227 131.562  0.00  0.00    +0.000 C 
BRANCH  46  49
ATOM     48  C   UNL     1      -3.962  -2.941 133.836  0.00  0.00    +0.000 C 
ATOM     49  C   UNL     1      -5.373  -2.716 133.419  0.00  0.00    +0.000 C 
ENDBRANCH  46  49
ENDBRANCH   8  46
BRANCH  29  50
ATOM     50  C   UNL     1      -8.724   1.391 132.132  0.00  0.00    +0.000 C 
ATOM     51  C   UNL     1      -9.945   0.852 131.516  0.00  0.00    +0.000 C 
BRANCH  50  52
ATOM     52  O   UNL     1      -9.446   2.106 133.148  0.00  0.00    +0.000 OA
ATOM     53  H   UNL     1     -10.226   1.575 133.396  0.00  0.00    +0.000 HD
ENDBRANCH  50  52
ENDBRANCH  29  50
BRANCH  25  54
ATOM     54  C   UNL     1      -6.141   4.684 131.667  0.00  0.00    +0.000 C 
BRANCH  54  55
ATOM     55  C   UNL     1      -4.438   5.599 131.099  0.00  0.00    +0.000 C 
ATOM     56  N   UNL     1      -2.893   4.786 131.728  0.00  0.00    +0.000 N 
ATOM     57  O   UNL     1      -4.356   6.369 130.206  0.00  0.00    +0.000 OA
ATOM     58  H   UNL     1      -3.210   4.007 132.534  0.00  0.00    +0.000 HD
ATOM     59  H   UNL     1      -1.936   4.765 131.938  0.00  0.00    +0.000 HD
ENDBRANCH  54  55
ENDBRANCH  25  54
ENDBRANCH   1  21
BRANCH   7  60
ATOM     60  C   UNL     1      -3.279   6.969 135.367  0.00  0.00    +0.000 C 
ATOM     61  O   UNL     1      -4.009   7.771 135.932  0.00  0.00    +0.000 OA
ATOM     62  N   UNL     1      -2.192   7.373 134.652  0.00  0.00    +0.000 N 
ATOM     63  H   UNL     1      -1.867   6.777 133.907  0.00  0.00    +0.000 HD
BRANCH  62  64
ATOM     64  C   UNL     1      -1.536   8.663 134.715  0.00  0.00    +0.000 C 
BRANCH  64  65
ATOM     65  C   UNL     1      -1.944   9.425 133.410  0.00  0.00    +0.000 C 
ATOM     66  O   UNL     1      -2.539   8.841 132.497  0.00  0.00    +0.000 OA
ATOM     67  N   UNL     1      -1.619  10.767 133.332  0.00  0.00    +0.000 N 
ATOM     68  H   UNL     1      -1.098  11.222 134.065  0.00  0.00    +0.000 HD
BRANCH  67  69
ATOM     69  C   UNL     1      -1.945  11.533 132.165  0.00  0.00    +0.000 C 
BRANCH  69  70
ATOM     70  N   UNL     1      -2.188  12.894 132.583  0.00  0.00    +0.000 NA
ATOM     71  H   UNL     1      -1.724  13.546 131.955  0.00  0.00    +0.000 HD
ATOM     72  H   UNL     1      -1.712  13.033 133.480  0.00  0.00    +0.000 HD
ENDBRANCH  69  70
ENDBRANCH  67  69
ENDBRANCH  64  65
BRANCH  64  73
ATOM     73  C   UNL     1      -0.013   8.495 134.776  0.00  0.00    +0.000 C 
BRANCH  73  74
ATOM     74  C   UNL     1       0.539   8.554 136.201  0.00  0.00    +0.000 C 
BRANCH  74  75
ATOM     75  C   UNL     1       0.611   7.223 136.913  0.00  0.00    +0.000 C 
BRANCH  75  76
ATOM     76  C   UNL     1      -0.409   7.135 138.069  0.00  0.00    +0.000 C 
BRANCH  76  77
ATOM     77  N   UNL     1      -1.281   8.384 138.191  0.00  0.00    +0.000 N 
ATOM     78  C   UNL     1      -2.530   8.324 138.880  0.00  0.00    +0.000 C 
ATOM     79  O   UNL     1      -2.816   7.184 139.283  0.00  0.00    +0.000 OA
ATOM     80  H   UNL     1      -0.931   9.179 137.683  0.00  0.00    +0.000 HD
BRANCH  78  81
ATOM     81  C   UNL     1      -3.716   9.362 139.212  0.00  0.00    +0.000 A 
ATOM     82  C   UNL     1      -3.195  10.532 139.604  0.00  0.00    +0.000 A 
ATOM     83  C   UNL     1      -3.945  11.270 140.493  0.00  0.00    +0.000 A 
ATOM     84  C   UNL     1      -4.766  12.055 139.811  0.00  0.00    +0.000 A 
ATOM     85  C   UNL     1      -5.812  11.375 139.359  0.00  0.00    +0.000 A 
ATOM     86  C   UNL     1      -5.119   9.737 139.195  0.00  0.00    +0.000 A 
ATOM     87  C   UNL     1      -6.580  12.816 140.452  0.00  0.00    +0.000 C 
ATOM     88  O   UNL     1      -6.040  13.647 139.319  0.00  0.00    +0.000 OA
ATOM     89  C   UNL     1      -4.729  13.284 139.165  0.00  0.00    +0.000 C 
ATOM     90  O   UNL     1      -3.761  13.600 138.511  0.00  0.00    +0.000 OA
ATOM     91  C   UNL     1      -7.993  14.033 140.730  0.00  0.00    +0.000 A 
ATOM     92  C   UNL     1      -8.238  15.273 141.580  0.00  0.00    +0.000 A 
ATOM     93  C   UNL     1      -9.593  15.687 142.158  0.00  0.00    +0.000 A 
ATOM     94  C   UNL     1     -10.701  14.889 141.942  0.00  0.00    +0.000 A 
ATOM     95  C   UNL     1     -10.511  13.815 141.090  0.00  0.00    +0.000 A 
ATOM     96  C   UNL     1      -9.252  13.480 140.473  0.00  0.00    +0.000 A 
ATOM     97  O   UNL     1      -9.271  12.432 139.606  0.00  0.00    +0.000 OA
ATOM     98  C   UNL     1      -8.499  11.421 140.077  0.00  0.00    +0.000 A 
ATOM     99  C   UNL     1      -8.385  10.309 139.297  0.00  0.00    +0.000 A 
ATOM    100  C   UNL     1      -7.638   9.267 139.806  0.00  0.00    +0.000 A 
ATOM    101  C   UNL     1      -6.990   9.396 141.130  0.00  0.00    +0.000 A 
ATOM    102  C   UNL     1      -6.925  10.647 141.778  0.00  0.00    +0.000 A 
ATOM    103  C   UNL     1      -7.501  11.668 141.023  0.00  0.00    +0.000 A 
BRANCH 100 104
ATOM    104  O   UNL     1      -7.234   8.314 138.857  0.00  0.00    +0.000 OA
ATOM    105  H   UNL     1      -6.468   7.767 139.160  0.00  0.00    +0.000 HD
ENDBRANCH 100 104
BRANCH  94 106
ATOM    106  O   UNL     1     -11.955  15.042 142.470  0.00  0.00    +0.000 OA
ATOM    107  H   UNL     1     -12.078  14.639 143.346  0.00  0.00    +0.000 HD
ENDBRANCH  94 106
ENDBRANCH  78  81
ENDBRANCH  76  77
ENDBRANCH  75  76
ENDBRANCH  74  75
ENDBRANCH  73  74
ENDBRANCH  64  73
ENDBRANCH  62  64
ENDBRANCH   7  60
TORSDOF 22
ENDMDL
MODEL 7
REMARK VINA RESULT:      -8.2      2.021      3.104
REMARK  Name = CHEMBL1790728
REMARK  25 active torsions:
REMARK  status: ('A' for Active; 'I' for Inactive)
REMARK    1  A    between atoms: C_1  and  C_2
REMARK    2  A    between atoms: C_2  and  C_3
REMARK    3  A    between atoms: C_3  and  C_4
REMARK    4  A    between atoms: C_3  and  C_5
REMARK    5  A    between atoms: C_9  and  C_10
REMARK    6  A    between atoms: C_13  and  O_14
REMARK    7  A    between atoms: C_25  and  C_26
REMARK    8  A    between atoms: C_32  and  C_33
REMARK    9  A    between atoms: N_35  and  C_36
REMARK   10  A    between atoms: C_36  and  C_37
REMARK   11  A    between atoms: C_36  and  C_69
REMARK   12  A    between atoms: C_37  and  C_38
REMARK   13  A    between atoms: C_38  and  C_39
REMARK   14  A    between atoms: C_39  and  C_40
REMARK   15  A    between atoms: C_40  and  N_41
REMARK   16  A    between atoms: C_42  and  C_44
REMARK   17  A    between atoms: C_57  and  O_58
REMARK   18  A    between atoms: C_64  and  O_65
REMARK   19  A    between atoms: N_71  and  C_72
REMARK   20  A    between atoms: C_72  and  N_73
REMARK   21  A    between atoms: C_77  and  C_78
REMARK   22  A    between atoms: C_78  and  C_79
REMARK   23  A    between atoms: C_85  and  C_86
REMARK   24  A    between atoms: C_86  and  C_87
REMARK   25  A    between atoms: C_86  and  O_88
REMARK                            x       y       z     vdW  Elec       q    Type
REMARK                         _______ _______ _______ _____ _____    ______ ____
ROOT
ATOM      1  C   UNL     1      -4.460   2.037 135.330  0.00  0.00    +0.000 C 
ATOM      2  O   UNL     1      -3.778   1.917 136.349  0.00  0.00    +0.000 OA
ATOM      3  N   UNL     1      -5.538   2.852 135.310  0.00  0.00    +0.000 N 
ATOM      4  C   UNL     1      -6.683   2.813 134.417  0.00  0.00    +0.000 C 
ATOM      5  C   UNL     1      -6.812   4.247 134.094  0.00  0.00    +0.000 C 
ATOM      6  C   UNL     1      -6.612   4.864 135.465  0.00  0.00    +0.000 C 
ATOM      7  C   UNL     1      -5.605   3.971 136.223  0.00  0.00    +0.000 C 
ENDROOT
BRANCH   1  21
ATOM      8  C   UNL     1      -7.928  -4.538 137.138  0.00  0.00    +0.000 C 
ATOM      9  N   UNL     1      -6.075  -4.919 136.675  0.00  0.00    +0.000 N 
ATOM     10  C   UNL     1      -4.510  -4.939 136.757  0.00  0.00    +0.000 C 
ATOM     11  O   UNL     1      -3.916  -5.191 135.665  0.00  0.00    +0.000 OA
ATOM     12  C   UNL     1      -3.468  -4.995 138.121  0.00  0.00    +0.000 C 
ATOM     13  N   UNL     1      -2.188  -5.926 138.138  0.00  0.00    +0.000 N 
ATOM     14  C   UNL     1      -0.842  -5.776 137.792  0.00  0.00    +0.000 C 
ATOM     15  O   UNL     1      -0.008  -6.590 138.214  0.00  0.00    +0.000 OA
ATOM     16  C   UNL     1      -0.300  -4.630 136.962  0.00  0.00    +0.000 C 
ATOM     17  C   UNL     1      -1.310  -3.620 136.636  0.00  0.00    +0.000 C 
ATOM     18  S   UNL     1      -0.824  -2.679 135.287  0.00  0.00    +0.000 S 
ATOM     19  S   UNL     1      -3.101  -2.187 134.620  0.00  0.00    +0.000 S 
ATOM     20  C   UNL     1      -3.202   0.260 133.913  0.00  0.00    +0.000 C 
ATOM     21  C   UNL     1      -4.244   1.227 134.014  0.00  0.00    +0.000 C 
ATOM     22  N   UNL     1      -5.271   0.444 133.535  0.00  0.00    +0.000 N 
ATOM     23  C   UNL     1      -5.878  -0.413 134.388  0.00  0.00    +0.000 C 
ATOM     24  O   UNL     1      -7.005  -0.761 134.011  0.00  0.00    +0.000 OA
ATOM     25  C   UNL     1      -5.083  -1.083 135.591  0.00  0.00    +0.000 C 
ATOM     26  N   UNL     1      -6.087  -1.328 136.517  0.00  0.00    +0.000 N 
ATOM     27  C   UNL     1      -7.089  -2.184 136.217  0.00  0.00    +0.000 C 
ATOM     28  O   UNL     1      -7.973  -2.050 137.075  0.00  0.00    +0.000 OA
ATOM     29  C   UNL     1      -7.137  -3.252 134.780  0.00  0.00    +0.000 C 
ATOM     30  N   UNL     1      -7.591  -4.799 134.847  0.00  0.00    +0.000 N 
ATOM     31  C   UNL     1      -8.070  -5.459 135.994  0.00  0.00    +0.000 C 
ATOM     32  O   UNL     1      -8.222  -6.662 136.160  0.00  0.00    +0.000 OA
ATOM     33  H   UNL     1      -5.882  -5.481 135.824  0.00  0.00    +0.000 HD
ATOM     34  H   UNL     1      -2.257  -6.675 138.821  0.00  0.00    +0.000 HD
ATOM     35  H   UNL     1      -5.460   0.461 132.545  0.00  0.00    +0.000 HD
ATOM     36  H   UNL     1      -6.135  -0.815 137.376  0.00  0.00    +0.000 HD
ATOM     37  H   UNL     1      -6.777  -5.346 134.671  0.00  0.00    +0.000 HD
BRANCH  12  38
ATOM     38  C   UNL     1      -3.057  -3.669 138.806  0.00  0.00    +0.000 A 
ATOM     39  C   UNL     1      -1.785  -3.578 139.330  0.00  0.00    +0.000 A 
ATOM     40  C   UNL     1      -1.392  -2.465 140.097  0.00  0.00    +0.000 A 
ATOM     41  C   UNL     1      -2.306  -1.510 140.511  0.00  0.00    +0.000 A 
ATOM     42  C   UNL     1      -3.605  -1.590 140.073  0.00  0.00    +0.000 A 
ATOM     43  C   UNL     1      -3.960  -2.608 139.169  0.00  0.00    +0.000 A 
BRANCH  41  44
ATOM     44  O   UNL     1      -1.969  -0.472 141.321  0.00  0.00    +0.000 OA
ATOM     45  H   UNL     1      -2.762  -0.089 141.730  0.00  0.00    +0.000 HD
ENDBRANCH  41  44
ENDBRANCH  12  38
BRANCH   8  46
ATOM     46  C   UNL     1      -9.882  -4.522 137.263  0.00  0.00    +0.000 C 
ATOM     47  C   UNL     1     -10.559  -5.539 138.204  0.00  0.00    +0.000 C 
BRANCH  46  49
ATOM     48  C   UNL     1     -11.809  -3.581 138.490  0.00  0.00    +0.000 C 
ATOM     49  C   UNL     1     -10.602  -3.097 137.766  0.00  0.00    +0.000 C 
ENDBRANCH  46  49
ENDBRANCH   8  46
BRANCH  29  50
ATOM     50  C   UNL     1      -5.819  -3.261 133.867  0.00  0.00    +0.000 C 
ATOM     51  C   UNL     1      -5.494  -4.576 133.294  0.00  0.00    +0.000 C 
BRANCH  50  52
ATOM     52  O   UNL     1      -5.651  -2.576 132.614  0.00  0.00    +0.000 OA
ATOM     53  H   UNL     1      -4.993  -1.867 132.742  0.00  0.00    +0.000 HD
ENDBRANCH  50  52
ENDBRANCH  29  50
BRANCH  25  54
ATOM     54  C   UNL     1      -3.693  -0.378 136.079  0.00  0.00    +0.000 C 
BRANCH  54  55
ATOM     55  C   UNL     1      -3.104   0.491 137.799  0.00  0.00    +0.000 C 
ATOM     56  N   UNL     1      -4.500   1.071 138.874  0.00  0.00    +0.000 N 
ATOM     57  O   UNL     1      -2.026   0.379 138.272  0.00  0.00    +0.000 OA
ATOM     58  H   UNL     1      -5.476   1.021 138.240  0.00  0.00    +0.000 HD
ATOM     59  H   UNL     1      -4.883   1.599 139.606  0.00  0.00    +0.000 HD
ENDBRANCH  54  55
ENDBRANCH  25  54
ENDBRANCH   1  21
BRANCH   7  60
ATOM     60  C   UNL     1      -4.262   4.679 136.497  0.00  0.00    +0.000 C 
ATOM     61  O   UNL     1      -3.502   4.419 137.421  0.00  0.00    +0.000 OA
ATOM     62  N   UNL     1      -3.972   5.651 135.587  0.00  0.00    +0.000 N 
ATOM     63  H   UNL     1      -4.740   6.101 135.114  0.00  0.00    +0.000 HD
BRANCH  62  64
ATOM     64  C   UNL     1      -2.679   6.254 135.334  0.00  0.00    +0.000 C 
BRANCH  64  65
ATOM     65  C   UNL     1      -2.665   7.605 136.125  0.00  0.00    +0.000 C 
ATOM     66  O   UNL     1      -2.395   7.629 137.331  0.00  0.00    +0.000 OA
ATOM     67  N   UNL     1      -2.959   8.756 135.416  0.00  0.00    +0.000 N 
ATOM     68  H   UNL     1      -3.217   8.719 134.443  0.00  0.00    +0.000 HD
BRANCH  67  69
ATOM     69  C   UNL     1      -2.981  10.031 136.070  0.00  0.00    +0.000 C 
BRANCH  69  70
ATOM     70  N   UNL     1      -4.057  10.016 137.034  0.00  0.00    +0.000 NA
ATOM     71  H   UNL     1      -4.812   9.413 136.712  0.00  0.00    +0.000 HD
ATOM     72  H   UNL     1      -4.475  10.952 137.047  0.00  0.00    +0.000 HD
ENDBRANCH  69  70
ENDBRANCH  67  69
ENDBRANCH  64  65
BRANCH  64  73
ATOM     73  C   UNL     1      -2.485   6.514 133.835  0.00  0.00    +0.000 C 
BRANCH  73  74
ATOM     74  C   UNL     1      -1.022   6.441 133.400  0.00  0.00    +0.000 C 
BRANCH  74  75
ATOM     75  C   UNL     1      -0.805   6.205 131.923  0.00  0.00    +0.000 C 
BRANCH  75  76
ATOM     76  C   UNL     1      -2.022   6.656 131.086  0.00  0.00    +0.000 C 
BRANCH  76  77
ATOM     77  N   UNL     1      -2.514   5.578 130.122  0.00  0.00    +0.000 N 
ATOM     78  C   UNL     1      -3.819   5.017 130.276  0.00  0.00    +0.000 C 
ATOM     79  O   UNL     1      -4.428   5.454 131.267  0.00  0.00    +0.000 OA
ATOM     80  H   UNL     1      -1.819   5.268 129.463  0.00  0.00    +0.000 HD
BRANCH  78  81
ATOM     81  C   UNL     1      -4.689   3.893 129.519  0.00  0.00    +0.000 A 
ATOM     82  C   UNL     1      -4.686   2.762 130.235  0.00  0.00    +0.000 A 
ATOM     83  C   UNL     1      -4.791   1.586 129.525  0.00  0.00    +0.000 A 
ATOM     84  C   UNL     1      -6.074   1.290 129.375  0.00  0.00    +0.000 A 
ATOM     85  C   UNL     1      -6.624   2.022 128.414  0.00  0.00    +0.000 A 
ATOM     86  C   UNL     1      -5.611   3.491 128.471  0.00  0.00    +0.000 A 
ATOM     87  C   UNL     1      -6.923   0.158 127.866  0.00  0.00    +0.000 C 
ATOM     88  O   UNL     1      -7.836   0.198 129.062  0.00  0.00    +0.000 OA
ATOM     89  C   UNL     1      -7.089   0.683 130.102  0.00  0.00    +0.000 C 
ATOM     90  O   UNL     1      -7.197   0.888 131.290  0.00  0.00    +0.000 OA
ATOM     91  C   UNL     1      -8.034  -1.096 127.001  0.00  0.00    +0.000 A 
ATOM     92  C   UNL     1      -8.138  -2.613 126.917  0.00  0.00    +0.000 A 
ATOM     93  C   UNL     1      -8.628  -3.392 125.695  0.00  0.00    +0.000 A 
ATOM     94  C   UNL     1      -8.989  -2.710 124.548  0.00  0.00    +0.000 A 
ATOM     95  C   UNL     1      -8.993  -1.329 124.647  0.00  0.00    +0.000 A 
ATOM     96  C   UNL     1      -8.616  -0.598 125.832  0.00  0.00    +0.000 A 
ATOM     97  O   UNL     1      -8.752   0.754 125.768  0.00  0.00    +0.000 OA
ATOM     98  C   UNL     1      -7.540   1.352 125.875  0.00  0.00    +0.000 A 
ATOM     99  C   UNL     1      -7.515   2.714 125.868  0.00  0.00    +0.000 A 
ATOM    100  C   UNL     1      -6.273   3.313 125.928  0.00  0.00    +0.000 A 
ATOM    101  C   UNL     1      -5.052   2.482 126.015  0.00  0.00    +0.000 A 
ATOM    102  C   UNL     1      -5.142   1.099 126.276  0.00  0.00    +0.000 A 
ATOM    103  C   UNL     1      -6.460   0.675 126.448  0.00  0.00    +0.000 A 
BRANCH 100 104
ATOM    104  O   UNL     1      -6.291   4.670 126.290  0.00  0.00    +0.000 OA
ATOM    105  H   UNL     1      -5.633   5.213 125.789  0.00  0.00    +0.000 HD
ENDBRANCH 100 104
BRANCH  94 106
ATOM    106  O   UNL     1      -9.340  -3.241 123.337  0.00  0.00    +0.000 OA
ATOM    107  H   UNL     1     -10.294  -3.226 123.148  0.00  0.00    +0.000 HD
ENDBRANCH  94 106
ENDBRANCH  78  81
ENDBRANCH  76  77
ENDBRANCH  75  76
ENDBRANCH  74  75
ENDBRANCH  73  74
ENDBRANCH  64  73
ENDBRANCH  62  64
ENDBRANCH   7  60
TORSDOF 22
ENDMDL
MODEL 8
REMARK VINA RESULT:      -8.1      2.478      6.142
REMARK  Name = CHEMBL1790728
REMARK  25 active torsions:
REMARK  status: ('A' for Active; 'I' for Inactive)
REMARK    1  A    between atoms: C_1  and  C_2
REMARK    2  A    between atoms: C_2  and  C_3
REMARK    3  A    between atoms: C_3  and  C_4
REMARK    4  A    between atoms: C_3  and  C_5
REMARK    5  A    between atoms: C_9  and  C_10
REMARK    6  A    between atoms: C_13  and  O_14
REMARK    7  A    between atoms: C_25  and  C_26
REMARK    8  A    between atoms: C_32  and  C_33
REMARK    9  A    between atoms: N_35  and  C_36
REMARK   10  A    between atoms: C_36  and  C_37
REMARK   11  A    between atoms: C_36  and  C_69
REMARK   12  A    between atoms: C_37  and  C_38
REMARK   13  A    between atoms: C_38  and  C_39
REMARK   14  A    between atoms: C_39  and  C_40
REMARK   15  A    between atoms: C_40  and  N_41
REMARK   16  A    between atoms: C_42  and  C_44
REMARK   17  A    between atoms: C_57  and  O_58
REMARK   18  A    between atoms: C_64  and  O_65
REMARK   19  A    between atoms: N_71  and  C_72
REMARK   20  A    between atoms: C_72  and  N_73
REMARK   21  A    between atoms: C_77  and  C_78
REMARK   22  A    between atoms: C_78  and  C_79
REMARK   23  A    between atoms: C_85  and  C_86
REMARK   24  A    between atoms: C_86  and  C_87
REMARK   25  A    between atoms: C_86  and  O_88
REMARK                            x       y       z     vdW  Elec       q    Type
REMARK                         _______ _______ _______ _____ _____    ______ ____
ROOT
ATOM      1  C   UNL     1      -4.591   3.028 138.133  0.00  0.00    +0.000 C 
ATOM      2  O   UNL     1      -4.762   2.722 136.952  0.00  0.00    +0.000 OA
ATOM      3  N   UNL     1      -3.767   4.044 138.473  0.00  0.00    +0.000 N 
ATOM      4  C   UNL     1      -3.102   4.281 139.742  0.00  0.00    +0.000 C 
ATOM      5  C   UNL     1      -3.356   5.726 139.904  0.00  0.00    +0.000 C 
ATOM      6  C   UNL     1      -3.072   6.221 138.498  0.00  0.00    +0.000 C 
ATOM      7  C   UNL     1      -3.515   5.106 137.525  0.00  0.00    +0.000 C 
ENDROOT
BRANCH   1  21
ATOM      8  C   UNL     1       0.778  -2.314 139.218  0.00  0.00    +0.000 C 
ATOM      9  N   UNL     1      -0.926  -3.201 138.895  0.00  0.00    +0.000 N 
ATOM     10  C   UNL     1      -2.217  -3.686 138.149  0.00  0.00    +0.000 C 
ATOM     11  O   UNL     1      -3.171  -4.046 138.903  0.00  0.00    +0.000 OA
ATOM     12  C   UNL     1      -2.457  -4.115 136.504  0.00  0.00    +0.000 C 
ATOM     13  N   UNL     1      -3.317  -5.382 136.103  0.00  0.00    +0.000 N 
ATOM     14  C   UNL     1      -4.661  -5.618 135.801  0.00  0.00    +0.000 C 
ATOM     15  O   UNL     1      -4.981  -6.662 135.213  0.00  0.00    +0.000 OA
ATOM     16  C   UNL     1      -5.783  -4.643 136.093  0.00  0.00    +0.000 C 
ATOM     17  C   UNL     1      -5.315  -3.365 136.636  0.00  0.00    +0.000 C 
ATOM     18  S   UNL     1      -6.582  -2.543 137.449  0.00  0.00    +0.000 S 
ATOM     19  S   UNL     1      -5.070  -1.368 138.934  0.00  0.00    +0.000 S 
ATOM     20  C   UNL     1      -5.898   1.032 139.162  0.00  0.00    +0.000 C 
ATOM     21  C   UNL     1      -5.194   2.257 139.348  0.00  0.00    +0.000 C 
ATOM     22  N   UNL     1      -4.355   1.837 140.356  0.00  0.00    +0.000 N 
ATOM     23  C   UNL     1      -3.236   1.156 140.019  0.00  0.00    +0.000 C 
ATOM     24  O   UNL     1      -2.368   1.175 140.902  0.00  0.00    +0.000 OA
ATOM     25  C   UNL     1      -3.193   0.222 138.733  0.00  0.00    +0.000 C 
ATOM     26  N   UNL     1      -1.847   0.237 138.393  0.00  0.00    +0.000 N 
ATOM     27  C   UNL     1      -0.929  -0.269 139.245  0.00  0.00    +0.000 C 
ATOM     28  O   UNL     1       0.191   0.077 138.845  0.00  0.00    +0.000 OA
ATOM     29  C   UNL     1      -1.302  -1.202 140.728  0.00  0.00    +0.000 C 
ATOM     30  N   UNL     1      -0.514  -2.547 141.144  0.00  0.00    +0.000 N 
ATOM     31  C   UNL     1       0.586  -3.093 140.455  0.00  0.00    +0.000 C 
ATOM     32  O   UNL     1       1.081  -4.204 140.592  0.00  0.00    +0.000 OA
ATOM     33  H   UNL     1      -1.352  -3.752 139.664  0.00  0.00    +0.000 HD
ATOM     34  H   UNL     1      -2.761  -6.110 135.665  0.00  0.00    +0.000 HD
ATOM     35  H   UNL     1      -4.659   1.959 141.310  0.00  0.00    +0.000 HD
ATOM     36  H   UNL     1      -1.530   0.698 137.562  0.00  0.00    +0.000 HD
ATOM     37  H   UNL     1      -1.159  -3.300 141.046  0.00  0.00    +0.000 HD
BRANCH  12  38
ATOM     38  C   UNL     1      -2.805  -3.006 135.482  0.00  0.00    +0.000 A 
ATOM     39  C   UNL     1      -3.675  -3.317 134.459  0.00  0.00    +0.000 A 
ATOM     40  C   UNL     1      -3.921  -2.410 133.411  0.00  0.00    +0.000 A 
ATOM     41  C   UNL     1      -3.172  -1.255 133.261  0.00  0.00    +0.000 A 
ATOM     42  C   UNL     1      -2.241  -0.930 134.217  0.00  0.00    +0.000 A 
ATOM     43  C   UNL     1      -2.113  -1.749 135.353  0.00  0.00    +0.000 A 
BRANCH  41  44
ATOM     44  O   UNL     1      -3.331  -0.406 132.212  0.00  0.00    +0.000 OA
ATOM     45  H   UNL     1      -2.578   0.204 132.150  0.00  0.00    +0.000 HD
ENDBRANCH  41  44
ENDBRANCH  12  38
BRANCH   8  46
ATOM     46  C   UNL     1       2.497  -1.728 139.948  0.00  0.00    +0.000 C 
ATOM     47  C   UNL     1       3.780  -2.398 139.416  0.00  0.00    +0.000 C 
BRANCH  46  49
ATOM     48  C   UNL     1       4.344  -0.160 139.469  0.00  0.00    +0.000 C 
ATOM     49  C   UNL     1       2.889  -0.110 139.774  0.00  0.00    +0.000 C 
ENDBRANCH  46  49
ENDBRANCH   8  46
BRANCH  29  50
ATOM     50  C   UNL     1      -2.848  -1.553 140.967  0.00  0.00    +0.000 C 
ATOM     51  C   UNL     1      -3.078  -2.881 141.557  0.00  0.00    +0.000 C 
BRANCH  50  52
ATOM     52  O   UNL     1      -3.734  -0.894 141.887  0.00  0.00    +0.000 OA
ATOM     53  H   UNL     1      -3.882  -1.490 142.645  0.00  0.00    +0.000 HD
ENDBRANCH  50  52
ENDBRANCH  29  50
BRANCH  25  54
ATOM     54  C   UNL     1      -4.319   0.459 137.574  0.00  0.00    +0.000 C 
BRANCH  54  55
ATOM     55  C   UNL     1      -4.222   0.929 135.617  0.00  0.00    +0.000 C 
ATOM     56  N   UNL     1      -5.829   0.734 134.710  0.00  0.00    +0.000 N 
ATOM     57  O   UNL     1      -3.360   1.570 135.122  0.00  0.00    +0.000 OA
ATOM     58  H   UNL     1      -6.557   0.152 135.407  0.00  0.00    +0.000 HD
ATOM     59  H   UNL     1      -6.373   0.646 133.899  0.00  0.00    +0.000 HD
ENDBRANCH  54  55
ENDBRANCH  25  54
ENDBRANCH   1  21
BRANCH   7  60
ATOM     60  C   UNL     1      -4.722   5.514 136.655  0.00  0.00    +0.000 C 
ATOM     61  O   UNL     1      -5.725   6.085 137.063  0.00  0.00    +0.000 OA
ATOM     62  N   UNL     1      -4.573   5.184 135.342  0.00  0.00    +0.000 N 
ATOM     63  H   UNL     1      -3.975   4.405 135.115  0.00  0.00    +0.000 HD
BRANCH  62  64
ATOM     64  C   UNL     1      -5.319   5.712 134.218  0.00  0.00    +0.000 C 
BRANCH  64  65
ATOM     65  C   UNL     1      -5.957   4.477 133.497  0.00  0.00    +0.000 C 
ATOM     66  O   UNL     1      -5.295   3.452 133.296  0.00  0.00    +0.000 OA
ATOM     67  N   UNL     1      -7.280   4.584 133.110  0.00  0.00    +0.000 N 
ATOM     68  H   UNL     1      -7.797   5.438 133.244  0.00  0.00    +0.000 HD
BRANCH  67  69
ATOM     69  C   UNL     1      -7.933   3.503 132.432  0.00  0.00    +0.000 C 
BRANCH  69  70
ATOM     70  N   UNL     1      -8.040   2.399 133.359  0.00  0.00    +0.000 NA
ATOM     71  H   UNL     1      -8.972   2.367 133.766  0.00  0.00    +0.000 HD
ATOM     72  H   UNL     1      -7.429   2.604 134.156  0.00  0.00    +0.000 HD
ENDBRANCH  69  70
ENDBRANCH  67  69
ENDBRANCH  64  65
BRANCH  64  73
ATOM     73  C   UNL     1      -4.392   6.466 133.257  0.00  0.00    +0.000 C 
BRANCH  73  74
ATOM     74  C   UNL     1      -2.914   6.140 133.472  0.00  0.00    +0.000 C 
BRANCH  74  75
ATOM     75  C   UNL     1      -1.948   7.026 132.721  0.00  0.00    +0.000 C 
BRANCH  75  76
ATOM     76  C   UNL     1      -1.542   6.411 131.364  0.00  0.00    +0.000 C 
BRANCH  76  77
ATOM     77  N   UNL     1      -2.254   5.092 131.070  0.00  0.00    +0.000 N 
ATOM     78  C   UNL     1      -3.253   5.025 130.053  0.00  0.00    +0.000 C 
ATOM     79  O   UNL     1      -3.489   6.123 129.521  0.00  0.00    +0.000 OA
ATOM     80  H   UNL     1      -2.011   4.346 131.701  0.00  0.00    +0.000 HD
BRANCH  78  81
ATOM     81  C   UNL     1      -4.219   3.882 129.457  0.00  0.00    +0.000 A 
ATOM     82  C   UNL     1      -4.003   2.727 130.100  0.00  0.00    +0.000 A 
ATOM     83  C   UNL     1      -4.211   1.574 129.376  0.00  0.00    +0.000 A 
ATOM     84  C   UNL     1      -5.479   1.212 129.504  0.00  0.00    +0.000 A 
ATOM     85  C   UNL     1      -6.266   1.947 128.727  0.00  0.00    +0.000 A 
ATOM     86  C   UNL     1      -5.335   3.467 128.625  0.00  0.00    +0.000 A 
ATOM     87  C   UNL     1      -6.595   0.090 128.171  0.00  0.00    +0.000 C 
ATOM     88  O   UNL     1      -7.215   0.036 129.541  0.00  0.00    +0.000 OA
ATOM     89  C   UNL     1      -6.275   0.524 130.410  0.00  0.00    +0.000 C 
ATOM     90  O   UNL     1      -6.121   0.680 131.600  0.00  0.00    +0.000 OA
ATOM     91  C   UNL     1      -7.814  -1.191 127.519  0.00  0.00    +0.000 A 
ATOM     92  C   UNL     1      -7.865  -2.708 127.388  0.00  0.00    +0.000 A 
ATOM     93  C   UNL     1      -8.582  -3.469 126.271  0.00  0.00    +0.000 A 
ATOM     94  C   UNL     1      -9.223  -2.767 125.268  0.00  0.00    +0.000 A 
ATOM     95  C   UNL     1      -9.269  -1.393 125.431  0.00  0.00    +0.000 A 
ATOM     96  C   UNL     1      -8.668  -0.685 126.534  0.00  0.00    +0.000 A 
ATOM     97  O   UNL     1      -8.877   0.659 126.567  0.00  0.00    +0.000 OA
ATOM     98  C   UNL     1      -7.701   1.319 126.428  0.00  0.00    +0.000 A 
ATOM     99  C   UNL     1      -7.741   2.680 126.480  0.00  0.00    +0.000 A 
ATOM    100  C   UNL     1      -6.547   3.344 126.289  0.00  0.00    +0.000 A 
ATOM    101  C   UNL     1      -5.301   2.580 126.060  0.00  0.00    +0.000 A 
ATOM    102  C   UNL     1      -5.266   1.186 126.269  0.00  0.00    +0.000 A 
ATOM    103  C   UNL     1      -6.490   0.683 126.711  0.00  0.00    +0.000 A 
BRANCH 100 104
ATOM    104  O   UNL     1      -6.545   4.684 126.710  0.00  0.00    +0.000 OA
ATOM    105  H   UNL     1      -5.643   5.091 126.701  0.00  0.00    +0.000 HD
ENDBRANCH 100 104
BRANCH  94 106
ATOM    106  O   UNL     1      -9.815  -3.273 124.142  0.00  0.00    +0.000 OA
ATOM    107  H   UNL     1     -10.518  -3.923 124.310  0.00  0.00    +0.000 HD
ENDBRANCH  94 106
ENDBRANCH  78  81
ENDBRANCH  76  77
ENDBRANCH  75  76
ENDBRANCH  74  75
ENDBRANCH  73  74
ENDBRANCH  64  73
ENDBRANCH  62  64
ENDBRANCH   7  60
TORSDOF 22
ENDMDL
MODEL 9
REMARK VINA RESULT:      -8.1      4.408     10.116
REMARK  Name = CHEMBL1790728
REMARK  25 active torsions:
REMARK  status: ('A' for Active; 'I' for Inactive)
REMARK    1  A    between atoms: C_1  and  C_2
REMARK    2  A    between atoms: C_2  and  C_3
REMARK    3  A    between atoms: C_3  and  C_4
REMARK    4  A    between atoms: C_3  and  C_5
REMARK    5  A    between atoms: C_9  and  C_10
REMARK    6  A    between atoms: C_13  and  O_14
REMARK    7  A    between atoms: C_25  and  C_26
REMARK    8  A    between atoms: C_32  and  C_33
REMARK    9  A    between atoms: N_35  and  C_36
REMARK   10  A    between atoms: C_36  and  C_37
REMARK   11  A    between atoms: C_36  and  C_69
REMARK   12  A    between atoms: C_37  and  C_38
REMARK   13  A    between atoms: C_38  and  C_39
REMARK   14  A    between atoms: C_39  and  C_40
REMARK   15  A    between atoms: C_40  and  N_41
REMARK   16  A    between atoms: C_42  and  C_44
REMARK   17  A    between atoms: C_57  and  O_58
REMARK   18  A    between atoms: C_64  and  O_65
REMARK   19  A    between atoms: N_71  and  C_72
REMARK   20  A    between atoms: C_72  and  N_73
REMARK   21  A    between atoms: C_77  and  C_78
REMARK   22  A    between atoms: C_78  and  C_79
REMARK   23  A    between atoms: C_85  and  C_86
REMARK   24  A    between atoms: C_86  and  C_87
REMARK   25  A    between atoms: C_86  and  O_88
REMARK                            x       y       z     vdW  Elec       q    Type
REMARK                         _______ _______ _______ _____ _____    ______ ____
ROOT
ATOM      1  C   UNL     1      -3.665   4.581 134.711  0.00  0.00    +0.000 C 
ATOM      2  O   UNL     1      -3.339   4.111 135.802  0.00  0.00    +0.000 OA
ATOM      3  N   UNL     1      -3.444   3.896 133.567  0.00  0.00    +0.000 N 
ATOM      4  C   UNL     1      -3.340   4.409 132.212  0.00  0.00    +0.000 C 
ATOM      5  C   UNL     1      -4.171   3.423 131.494  0.00  0.00    +0.000 C 
ATOM      6  C   UNL     1      -3.692   2.133 132.134  0.00  0.00    +0.000 C 
ATOM      7  C   UNL     1      -3.352   2.454 133.606  0.00  0.00    +0.000 C 
ENDROOT
BRANCH   1  21
ATOM      8  C   UNL     1       0.598   8.617 139.618  0.00  0.00    +0.000 C 
ATOM      9  N   UNL     1      -1.276   8.835 140.097  0.00  0.00    +0.000 N 
ATOM     10  C   UNL     1      -2.722   8.482 140.593  0.00  0.00    +0.000 C 
ATOM     11  O   UNL     1      -3.628   9.292 140.230  0.00  0.00    +0.000 OA
ATOM     12  C   UNL     1      -3.246   7.378 141.798  0.00  0.00    +0.000 C 
ATOM     13  N   UNL     1      -4.389   7.763 142.824  0.00  0.00    +0.000 N 
ATOM     14  C   UNL     1      -5.779   7.630 142.862  0.00  0.00    +0.000 C 
ATOM     15  O   UNL     1      -6.375   7.743 143.944  0.00  0.00    +0.000 OA
ATOM     16  C   UNL     1      -6.634   7.293 141.658  0.00  0.00    +0.000 C 
ATOM     17  C   UNL     1      -5.853   7.011 140.450  0.00  0.00    +0.000 C 
ATOM     18  S   UNL     1      -6.816   7.186 139.041  0.00  0.00    +0.000 S 
ATOM     19  S   UNL     1      -4.924   7.752 137.637  0.00  0.00    +0.000 S 
ATOM     20  C   UNL     1      -5.212   6.549 135.408  0.00  0.00    +0.000 C 
ATOM     21  C   UNL     1      -4.257   6.010 134.499  0.00  0.00    +0.000 C 
ATOM     22  N   UNL     1      -3.402   7.090 134.466  0.00  0.00    +0.000 N 
ATOM     23  C   UNL     1      -2.495   7.221 135.462  0.00  0.00    +0.000 C 
ATOM     24  O   UNL     1      -1.539   7.946 135.158  0.00  0.00    +0.000 OA
ATOM     25  C   UNL     1      -2.803   6.704 136.934  0.00  0.00    +0.000 C 
ATOM     26  N   UNL     1      -1.535   6.438 137.432  0.00  0.00    +0.000 N 
ATOM     27  C   UNL     1      -0.640   7.440 137.574  0.00  0.00    +0.000 C 
ATOM     28  O   UNL     1       0.469   6.931 137.790  0.00  0.00    +0.000 OA
ATOM     29  C   UNL     1      -1.008   9.183 137.395  0.00  0.00    +0.000 C 
ATOM     30  N   UNL     1      -0.465  10.308 138.417  0.00  0.00    +0.000 N 
ATOM     31  C   UNL     1       0.407  10.075 139.497  0.00  0.00    +0.000 C 
ATOM     32  O   UNL     1       0.679  10.831 140.420  0.00  0.00    +0.000 OA
ATOM     33  H   UNL     1      -1.707   9.774 140.002  0.00  0.00    +0.000 HD
ATOM     34  H   UNL     1      -4.051   7.830 143.780  0.00  0.00    +0.000 HD
ATOM     35  H   UNL     1      -3.554   7.796 133.764  0.00  0.00    +0.000 HD
ATOM     36  H   UNL     1      -1.236   5.498 137.607  0.00  0.00    +0.000 HD
ATOM     37  H   UNL     1      -1.256  10.650 138.916  0.00  0.00    +0.000 HD
BRANCH  12  38
ATOM     38  C   UNL     1      -3.485   5.899 141.408  0.00  0.00    +0.000 A 
ATOM     39  C   UNL     1      -4.541   5.236 141.996  0.00  0.00    +0.000 A 
ATOM     40  C   UNL     1      -4.730   3.854 141.806  0.00  0.00    +0.000 A 
ATOM     41  C   UNL     1      -3.775   3.071 141.181  0.00  0.00    +0.000 A 
ATOM     42  C   UNL     1      -2.667   3.671 140.635  0.00  0.00    +0.000 A 
ATOM     43  C   UNL     1      -2.559   5.074 140.676  0.00  0.00    +0.000 A 
BRANCH  41  44
ATOM     44  O   UNL     1      -3.894   1.722 141.059  0.00  0.00    +0.000 OA
ATOM     45  H   UNL     1      -4.751   1.425 141.402  0.00  0.00    +0.000 HD
ENDBRANCH  41  44
ENDBRANCH  12  38
BRANCH   8  46
ATOM     46  C   UNL     1       2.478   8.906 139.152  0.00  0.00    +0.000 C 
ATOM     47  C   UNL     1       3.529   7.937 139.732  0.00  0.00    +0.000 C 
BRANCH  46  49
ATOM     48  C   UNL     1       4.360   8.967 137.553  0.00  0.00    +0.000 C 
ATOM     49  C   UNL     1       2.876   8.868 137.527  0.00  0.00    +0.000 C 
ENDBRANCH  46  49
ENDBRANCH   8  46
BRANCH  29  50
ATOM     50  C   UNL     1      -2.551   9.557 137.172  0.00  0.00    +0.000 C 
ATOM     51  C   UNL     1      -2.969  10.804 137.833  0.00  0.00    +0.000 C 
BRANCH  50  52
ATOM     52  O   UNL     1      -3.166   9.911 135.922  0.00  0.00    +0.000 OA
ATOM     53  H   UNL     1      -2.472   9.934 135.238  0.00  0.00    +0.000 HD
ENDBRANCH  50  52
ENDBRANCH  29  50
BRANCH  25  54
ATOM     54  C   UNL     1      -3.992   5.601 137.127  0.00  0.00    +0.000 C 
BRANCH  54  55
ATOM     55  C   UNL     1      -4.029   3.698 137.788  0.00  0.00    +0.000 C 
ATOM     56  N   UNL     1      -2.352   2.932 137.991  0.00  0.00    +0.000 N 
ATOM     57  O   UNL     1      -4.958   3.189 138.314  0.00  0.00    +0.000 OA
ATOM     58  H   UNL     1      -1.580   3.636 137.476  0.00  0.00    +0.000 HD
ATOM     59  H   UNL     1      -1.741   2.172 138.095  0.00  0.00    +0.000 HD
ENDBRANCH  54  55
ENDBRANCH  25  54
ENDBRANCH   1  21
BRANCH   7  60
ATOM     60  C   UNL     1      -4.300   1.759 134.606  0.00  0.00    +0.000 C 
ATOM     61  O   UNL     1      -5.509   1.934 134.670  0.00  0.00    +0.000 OA
ATOM     62  N   UNL     1      -3.659   0.892 135.439  0.00  0.00    +0.000 N 
ATOM     63  H   UNL     1      -2.684   1.057 135.636  0.00  0.00    +0.000 HD
BRANCH  62  64
ATOM     64  C   UNL     1      -4.259  -0.161 136.234  0.00  0.00    +0.000 C 
BRANCH  64  65
ATOM     65  C   UNL     1      -3.423  -0.241 137.555  0.00  0.00    +0.000 C 
ATOM     66  O   UNL     1      -3.933   0.048 138.644  0.00  0.00    +0.000 OA
ATOM     67  N   UNL     1      -2.107  -0.651 137.448  0.00  0.00    +0.000 N 
ATOM     68  H   UNL     1      -1.691  -0.845 136.551  0.00  0.00    +0.000 HD
BRANCH  67  69
ATOM     69  C   UNL     1      -1.271  -0.737 138.609  0.00  0.00    +0.000 C 
BRANCH  69  70
ATOM     70  N   UNL     1      -1.487   0.453 139.399  0.00  0.00    +0.000 NA
ATOM     71  H   UNL     1      -2.438   0.793 139.273  0.00  0.00    +0.000 HD
ATOM     72  H   UNL     1      -0.903   1.197 139.005  0.00  0.00    +0.000 HD
ENDBRANCH  69  70
ENDBRANCH  67  69
ENDBRANCH  64  65
BRANCH  64  73
ATOM     73  C   UNL     1      -4.204  -1.500 135.490  0.00  0.00    +0.000 C 
BRANCH  73  74
ATOM     74  C   UNL     1      -3.387  -1.435 134.199  0.00  0.00    +0.000 C 
BRANCH  74  75
ATOM     75  C   UNL     1      -3.489  -2.656 133.315  0.00  0.00    +0.000 C 
BRANCH  75  76
ATOM     76  C   UNL     1      -4.763  -2.628 132.443  0.00  0.00    +0.000 C 
BRANCH  76  77
ATOM     77  N   UNL     1      -5.107  -1.229 131.934  0.00  0.00    +0.000 N 
ATOM     78  C   UNL     1      -6.370  -0.641 132.245  0.00  0.00    +0.000 C 
ATOM     79  O   UNL     1      -7.119  -1.395 132.888  0.00  0.00    +0.000 OA
ATOM     80  H   UNL     1      -4.414  -0.835 131.319  0.00  0.00    +0.000 HD
BRANCH  78  81
ATOM     81  C   UNL     1      -7.110   0.749 131.908  0.00  0.00    +0.000 A 
ATOM     82  C   UNL     1      -8.004   1.029 132.865  0.00  0.00    +0.000 A 
ATOM     83  C   UNL     1      -9.113   1.747 132.479  0.00  0.00    +0.000 A 
ATOM     84  C   UNL     1      -8.844   3.040 132.586  0.00  0.00    +0.000 A 
ATOM     85  C   UNL     1      -8.107   3.461 131.565  0.00  0.00    +0.000 A 
ATOM     86  C   UNL     1      -7.232   1.967 131.126  0.00  0.00    +0.000 A 
ATOM     87  C   UNL     1      -9.718   4.586 131.525  0.00  0.00    +0.000 C 
ATOM     88  O   UNL     1      -9.100   5.112 132.792  0.00  0.00    +0.000 OA
ATOM     89  C   UNL     1      -8.829   4.018 133.571  0.00  0.00    +0.000 C 
ATOM     90  O   UNL     1      -8.414   3.762 134.679  0.00  0.00    +0.000 OA
ATOM     91  C   UNL     1     -10.486   6.267 131.149  0.00  0.00    +0.000 A 
ATOM     92  C   UNL     1     -11.801   6.977 131.445  0.00  0.00    +0.000 A 
ATOM     93  C   UNL     1     -12.472   7.999 130.526  0.00  0.00    +0.000 A 
ATOM     94  C   UNL     1     -11.891   8.312 129.311  0.00  0.00    +0.000 A 
ATOM     95  C   UNL     1     -10.648   7.749 129.077  0.00  0.00    +0.000 A 
ATOM     96  C   UNL     1      -9.976   6.856 129.988  0.00  0.00    +0.000 A 
ATOM     97  O   UNL     1      -8.727   6.459 129.623  0.00  0.00    +0.000 OA
ATOM     98  C   UNL     1      -8.704   5.120 129.413  0.00  0.00    +0.000 A 
ATOM     99  C   UNL     1      -7.507   4.562 129.077  0.00  0.00    +0.000 A 
ATOM    100  C   UNL     1      -7.504   3.207 128.818  0.00  0.00    +0.000 A 
ATOM    101  C   UNL     1      -8.756   2.428 128.928  0.00  0.00    +0.000 A 
ATOM    102  C   UNL     1      -9.903   2.993 129.522  0.00  0.00    +0.000 A 
ATOM    103  C   UNL     1      -9.682   4.294 129.973  0.00  0.00    +0.000 A 
BRANCH 100 104
ATOM    104  O   UNL     1      -6.235   2.606 128.844  0.00  0.00    +0.000 OA
ATOM    105  H   UNL     1      -6.275   1.620 128.904  0.00  0.00    +0.000 HD
ENDBRANCH 100 104
BRANCH  94 106
ATOM    106  O   UNL     1     -12.401   9.111 128.323  0.00  0.00    +0.000 OA
ATOM    107  H   UNL     1     -12.306  10.065 128.484  0.00  0.00    +0.000 HD
ENDBRANCH  94 106
ENDBRANCH  78  81
ENDBRANCH  76  77
ENDBRANCH  75  76
ENDBRANCH  74  75
ENDBRANCH  73  74
ENDBRANCH  64  73
ENDBRANCH  62  64
ENDBRANCH   7  60
TORSDOF 22
ENDMDL
