MODEL 1
REMARK VINA RESULT:      -8.8      0.000      0.000
REMARK  Name = CHEMBL338308
REMARK  13 active torsions:
REMARK  status: ('A' for Active; 'I' for Inactive)
REMARK    1  A    between atoms: C_1  and  C_2
REMARK    2  A    between atoms: C_2  and  C_3
REMARK    3  A    between atoms: C_3  and  C_4
REMARK    4  A    between atoms: C_3  and  C_5
REMARK    5  A    between atoms: C_9  and  C_10
REMARK    6  A    between atoms: C_10  and  C_11
REMARK    7  A    between atoms: C_27  and  C_28
REMARK    8  A    between atoms: C_28  and  C_29
REMARK    9  A    between atoms: N_35  and  C_36
REMARK   10  A    between atoms: C_39  and  C_40
REMARK   11  A    between atoms: C_40  and  C_41
REMARK   12  A    between atoms: C_41  and  C_42
REMARK   13  A    between atoms: C_42  and  N_43
REMARK                            x       y       z     vdW  Elec       q    Type
REMARK                         _______ _______ _______ _____ _____    ______ ____
ROOT
ATOM      1  C   UNL     1      -4.373  -2.214 129.350  0.00  0.00    +0.000 C 
ATOM      2  N   UNL     1      -4.759  -1.693 130.683  0.00  0.00    +0.000 N 
ATOM      3  C   UNL     1      -3.938  -1.354 131.756  0.00  0.00    +0.000 C 
ATOM      4  O   UNL     1      -2.711  -1.446 131.736  0.00  0.00    +0.000 OA
ATOM      5  C   UNL     1      -4.638  -0.612 132.953  0.00  0.00    +0.000 C 
ATOM      6  N   UNL     1      -3.566   0.220 133.686  0.00  0.00    +0.000 N 
ATOM      7  C   UNL     1      -3.661   1.604 133.853  0.00  0.00    +0.000 C 
ATOM      8  O   UNL     1      -4.557   1.780 134.803  0.00  0.00    +0.000 OA
ATOM      9  C   UNL     1      -3.237   2.818 132.372  0.00  0.00    +0.000 C 
ATOM     10  C   UNL     1      -4.202   2.638 130.976  0.00  0.00    +0.000 C 
ATOM     11  C   UNL     1      -4.593   1.756 131.951  0.00  0.00    +0.000 C 
ATOM     12  C   UNL     1      -4.815   3.348 133.015  0.00  0.00    +0.000 C 
ATOM     13  N   UNL     1      -3.771   4.109 132.506  0.00  0.00    +0.000 N 
ATOM     14  C   UNL     1      -4.134   5.047 131.440  0.00  0.00    +0.000 C 
ATOM     15  O   UNL     1      -3.540   6.134 131.461  0.00  0.00    +0.000 OA
ATOM     16  C   UNL     1      -5.373   4.810 130.262  0.00  0.00    +0.000 C 
ATOM     17  N   UNL     1      -5.166   5.340 128.891  0.00  0.00    +0.000 N 
ATOM     18  C   UNL     1      -3.978   6.110 128.574  0.00  0.00    +0.000 C 
ATOM     19  C   UNL     1      -5.867   4.643 127.887  0.00  0.00    +0.000 C 
ATOM     20  O   UNL     1      -7.055   4.875 127.646  0.00  0.00    +0.000 OA
ATOM     21  C   UNL     1      -5.172   3.400 127.280  0.00  0.00    +0.000 C 
ATOM     22  N   UNL     1      -6.148   2.391 126.913  0.00  0.00    +0.000 N 
ATOM     23  C   UNL     1      -5.768   1.078 126.816  0.00  0.00    +0.000 C 
ATOM     24  O   UNL     1      -4.999   0.718 125.926  0.00  0.00    +0.000 OA
ATOM     25  C   UNL     1      -6.344   0.050 127.865  0.00  0.00    +0.000 C 
ATOM     26  C   UNL     1      -7.825  -0.502 127.821  0.00  0.00    +0.000 C 
ATOM     27  C   UNL     1      -8.488   0.395 126.857  0.00  0.00    +0.000 C 
ATOM     28  C   UNL     1      -7.709  -0.547 125.810  0.00  0.00    +0.000 C 
ATOM     29  N   UNL     1      -6.579  -1.309 125.963  0.00  0.00    +0.000 NA
ATOM     30  N   UNL     1      -5.685  -1.089 127.321  0.00  0.00    +0.000 N 
ATOM     31  C   UNL     1      -5.640  -2.051 128.381  0.00  0.00    +0.000 C 
ATOM     32  O   UNL     1      -6.681  -2.575 128.811  0.00  0.00    +0.000 OA
ATOM     33  H   UNL     1      -5.731  -1.895 130.876  0.00  0.00    +0.000 HD
ATOM     34  H   UNL     1      -2.633   0.000 133.393  0.00  0.00    +0.000 HD
ATOM     35  H   UNL     1      -7.117   2.675 126.938  0.00  0.00    +0.000 HD
ENDROOT
BRANCH   1  36
ATOM     36  C   UNL     1      -4.000  -3.751 129.400  0.00  0.00    +0.000 C 
ATOM     37  C   UNL     1      -2.630  -4.226 128.892  0.00  0.00    +0.000 C 
BRANCH  36  39
ATOM     38  C   UNL     1      -5.714  -5.278 130.905  0.00  0.00    +0.000 C 
ATOM     39  C   UNL     1      -4.412  -4.498 130.713  0.00  0.00    +0.000 C 
ENDBRANCH  36  39
ENDBRANCH   1  36
BRANCH   5  40
ATOM     40  C   UNL     1      -5.794  -1.075 133.810  0.00  0.00    +0.000 C 
BRANCH  40  41
ATOM     41  C   UNL     1      -5.772  -2.554 134.070  0.00  0.00    +0.000 A 
ATOM     42  C   UNL     1      -4.654  -3.299 134.451  0.00  0.00    +0.000 A 
ATOM     43  C   UNL     1      -4.773  -4.685 134.591  0.00  0.00    +0.000 A 
ATOM     44  C   UNL     1      -6.026  -5.281 134.614  0.00  0.00    +0.000 A 
ATOM     45  C   UNL     1      -7.129  -4.517 134.293  0.00  0.00    +0.000 A 
ATOM     46  C   UNL     1      -6.990  -3.197 133.930  0.00  0.00    +0.000 A 
ENDBRANCH  40  41
ENDBRANCH   5  40
BRANCH  16  47
ATOM     47  C   UNL     1      -6.884   4.883 130.690  0.00  0.00    +0.000 C 
BRANCH  47  48
ATOM     48  C   UNL     1      -7.701   3.654 131.047  0.00  0.00    +0.000 A 
ATOM     49  C   UNL     1      -7.842   2.516 130.239  0.00  0.00    +0.000 A 
ATOM     50  C   UNL     1      -8.507   1.381 130.737  0.00  0.00    +0.000 A 
ATOM     51  C   UNL     1      -8.809   1.274 132.090  0.00  0.00    +0.000 A 
ATOM     52  C   UNL     1      -8.706   2.405 132.880  0.00  0.00    +0.000 A 
ATOM     53  C   UNL     1      -8.327   3.637 132.303  0.00  0.00    +0.000 A 
ENDBRANCH  47  48
ENDBRANCH  16  47
BRANCH  21  54
ATOM     54  C   UNL     1      -4.380   3.869 126.088  0.00  0.00    +0.000 C 
BRANCH  54  55
ATOM     55  C   UNL     1      -2.904   3.899 126.371  0.00  0.00    +0.000 C 
BRANCH  55  56
ATOM     56  C   UNL     1      -2.475   2.852 127.345  0.00  0.00    +0.000 C 
BRANCH  56  57
ATOM     57  N   UNL     1      -1.162   2.400 126.929  0.00  0.00    +0.000 NA
ATOM     58  H   UNL     1      -0.863   2.870 126.079  0.00  0.00    +0.000 HD
ATOM     59  H   UNL     1      -1.162   1.400 126.781  0.00  0.00    +0.000 HD
ENDBRANCH  56  57
ENDBRANCH  55  56
ENDBRANCH  54  55
ENDBRANCH  21  54
TORSDOF 10
ENDMDL
MODEL 2
REMARK VINA RESULT:      -8.4      2.321      6.196
REMARK  Name = CHEMBL338308
REMARK  13 active torsions:
REMARK  status: ('A' for Active; 'I' for Inactive)
REMARK    1  A    between atoms: C_1  and  C_2
REMARK    2  A    between atoms: C_2  and  C_3
REMARK    3  A    between atoms: C_3  and  C_4
REMARK    4  A    between atoms: C_3  and  C_5
REMARK    5  A    between atoms: C_9  and  C_10
REMARK    6  A    between atoms: C_10  and  C_11
REMARK    7  A    between atoms: C_27  and  C_28
REMARK    8  A    between atoms: C_28  and  C_29
REMARK    9  A    between atoms: N_35  and  C_36
REMARK   10  A    between atoms: C_39  and  C_40
REMARK   11  A    between atoms: C_40  and  C_41
REMARK   12  A    between atoms: C_41  and  C_42
REMARK   13  A    between atoms: C_42  and  N_43
REMARK                            x       y       z     vdW  Elec       q    Type
REMARK                         _______ _______ _______ _____ _____    ______ ____
ROOT
ATOM      1  C   UNL     1      -6.756   2.234 126.519  0.00  0.00    +0.000 C 
ATOM      2  N   UNL     1      -6.757   0.861 127.080  0.00  0.00    +0.000 N 
ATOM      3  C   UNL     1      -5.766  -0.113 126.996  0.00  0.00    +0.000 C 
ATOM      4  O   UNL     1      -4.693   0.048 126.415  0.00  0.00    +0.000 OA
ATOM      5  C   UNL     1      -5.974  -1.388 127.893  0.00  0.00    +0.000 C 
ATOM      6  N   UNL     1      -4.586  -2.000 128.176  0.00  0.00    +0.000 N 
ATOM      7  C   UNL     1      -4.089  -2.188 129.468  0.00  0.00    +0.000 C 
ATOM      8  O   UNL     1      -4.731  -3.235 129.941  0.00  0.00    +0.000 OA
ATOM      9  C   UNL     1      -3.356  -0.677 130.483  0.00  0.00    +0.000 C 
ATOM     10  C   UNL     1      -4.446   0.600 130.787  0.00  0.00    +0.000 C 
ATOM     11  C   UNL     1      -5.063  -0.407 130.088  0.00  0.00    +0.000 C 
ATOM     12  C   UNL     1      -4.504  -1.501 131.573  0.00  0.00    +0.000 C 
ATOM     13  N   UNL     1      -3.297  -0.881 131.870  0.00  0.00    +0.000 N 
ATOM     14  C   UNL     1      -3.349   0.128 132.931  0.00  0.00    +0.000 C 
ATOM     15  O   UNL     1      -2.363   0.168 133.679  0.00  0.00    +0.000 OA
ATOM     16  C   UNL     1      -4.689   1.158 133.282  0.00  0.00    +0.000 C 
ATOM     17  N   UNL     1      -4.423   2.540 133.755  0.00  0.00    +0.000 N 
ATOM     18  C   UNL     1      -3.063   2.985 133.992  0.00  0.00    +0.000 C 
ATOM     19  C   UNL     1      -5.446   3.463 133.459  0.00  0.00    +0.000 C 
ATOM     20  O   UNL     1      -6.452   3.563 134.167  0.00  0.00    +0.000 OA
ATOM     21  C   UNL     1      -5.387   4.155 132.076  0.00  0.00    +0.000 C 
ATOM     22  N   UNL     1      -6.723   4.415 131.573  0.00  0.00    +0.000 N 
ATOM     23  C   UNL     1      -6.927   4.565 130.226  0.00  0.00    +0.000 C 
ATOM     24  O   UNL     1      -6.467   5.541 129.633  0.00  0.00    +0.000 OA
ATOM     25  C   UNL     1      -7.764   3.465 129.466  0.00  0.00    +0.000 C 
ATOM     26  C   UNL     1      -9.337   3.344 129.567  0.00  0.00    +0.000 C 
ATOM     27  C   UNL     1      -9.668   4.219 130.707  0.00  0.00    +0.000 C 
ATOM     28  C   UNL     1      -9.454   5.355 129.587  0.00  0.00    +0.000 C 
ATOM     29  N   UNL     1      -8.728   5.339 128.424  0.00  0.00    +0.000 NA
ATOM     30  N   UNL     1      -7.689   4.090 128.189  0.00  0.00    +0.000 N 
ATOM     31  C   UNL     1      -7.936   3.049 127.236  0.00  0.00    +0.000 C 
ATOM     32  O   UNL     1      -9.050   2.508 127.157  0.00  0.00    +0.000 OA
ATOM     33  H   UNL     1      -7.701   0.559 127.280  0.00  0.00    +0.000 HD
ATOM     34  H   UNL     1      -3.861  -1.600 127.612  0.00  0.00    +0.000 HD
ATOM     35  H   UNL     1      -7.482   4.277 132.224  0.00  0.00    +0.000 HD
ENDROOT
BRANCH   1  36
ATOM     36  C   UNL     1      -7.043   2.239 124.963  0.00  0.00    +0.000 C 
ATOM     37  C   UNL     1      -6.116   3.013 124.013  0.00  0.00    +0.000 C 
BRANCH  36  39
ATOM     38  C   UNL     1      -8.901   0.383 124.165  0.00  0.00    +0.000 C 
ATOM     39  C   UNL     1      -7.460   0.857 124.354  0.00  0.00    +0.000 C 
ENDBRANCH  36  39
ENDBRANCH   1  36
BRANCH   5  40
ATOM     40  C   UNL     1      -7.125  -2.368 127.894  0.00  0.00    +0.000 C 
BRANCH  40  41
ATOM     41  C   UNL     1      -7.632  -2.675 126.514  0.00  0.00    +0.000 A 
ATOM     42  C   UNL     1      -6.841  -2.921 125.391  0.00  0.00    +0.000 A 
ATOM     43  C   UNL     1      -7.459  -3.126 124.153  0.00  0.00    +0.000 A 
ATOM     44  C   UNL     1      -8.827  -3.346 124.082  0.00  0.00    +0.000 A 
ATOM     45  C   UNL     1      -9.589  -3.155 125.216  0.00  0.00    +0.000 A 
ATOM     46  C   UNL     1      -9.010  -2.730 126.390  0.00  0.00    +0.000 A 
ENDBRANCH  40  41
ENDBRANCH   5  40
BRANCH  16  47
ATOM     47  C   UNL     1      -5.985   0.560 133.940  0.00  0.00    +0.000 C 
BRANCH  47  48
ATOM     48  C   UNL     1      -7.182   0.094 133.130  0.00  0.00    +0.000 A 
ATOM     49  C   UNL     1      -8.064   0.936 132.438  0.00  0.00    +0.000 A 
ATOM     50  C   UNL     1      -9.054   0.382 131.605  0.00  0.00    +0.000 A 
ATOM     51  C   UNL     1      -9.017  -0.965 131.262  0.00  0.00    +0.000 A 
ATOM     52  C   UNL     1      -8.173  -1.803 131.969  0.00  0.00    +0.000 A 
ATOM     53  C   UNL     1      -7.395  -1.290 133.029  0.00  0.00    +0.000 A 
ENDBRANCH  47  48
ENDBRANCH  16  47
BRANCH  21  54
ATOM     54  C   UNL     1      -4.598   5.426 132.246  0.00  0.00    +0.000 C 
BRANCH  54  55
ATOM     55  C   UNL     1      -3.416   5.481 131.318  0.00  0.00    +0.000 C 
BRANCH  55  56
ATOM     56  C   UNL     1      -3.282   4.260 130.472  0.00  0.00    +0.000 C 
BRANCH  56  57
ATOM     57  N   UNL     1      -3.439   4.680 129.092  0.00  0.00    +0.000 NA
ATOM     58  H   UNL     1      -3.939   3.981 128.550  0.00  0.00    +0.000 HD
ATOM     59  H   UNL     1      -2.537   4.856 128.671  0.00  0.00    +0.000 HD
ENDBRANCH  56  57
ENDBRANCH  55  56
ENDBRANCH  54  55
ENDBRANCH  21  54
TORSDOF 10
ENDMDL
MODEL 3
REMARK VINA RESULT:      -8.3      1.922      7.184
REMARK  Name = CHEMBL338308
REMARK  13 active torsions:
REMARK  status: ('A' for Active; 'I' for Inactive)
REMARK    1  A    between atoms: C_1  and  C_2
REMARK    2  A    between atoms: C_2  and  C_3
REMARK    3  A    between atoms: C_3  and  C_4
REMARK    4  A    between atoms: C_3  and  C_5
REMARK    5  A    between atoms: C_9  and  C_10
REMARK    6  A    between atoms: C_10  and  C_11
REMARK    7  A    between atoms: C_27  and  C_28
REMARK    8  A    between atoms: C_28  and  C_29
REMARK    9  A    between atoms: N_35  and  C_36
REMARK   10  A    between atoms: C_39  and  C_40
REMARK   11  A    between atoms: C_40  and  C_41
REMARK   12  A    between atoms: C_41  and  C_42
REMARK   13  A    between atoms: C_42  and  N_43
REMARK                            x       y       z     vdW  Elec       q    Type
REMARK                         _______ _______ _______ _____ _____    ______ ____
ROOT
ATOM      1  C   UNL     1      -5.600   3.474 126.938  0.00  0.00    +0.000 C 
ATOM      2  N   UNL     1      -6.299   2.176 127.097  0.00  0.00    +0.000 N 
ATOM      3  C   UNL     1      -5.919   0.919 126.631  0.00  0.00    +0.000 C 
ATOM      4  O   UNL     1      -4.889   0.709 125.991  0.00  0.00    +0.000 OA
ATOM      5  C   UNL     1      -6.761  -0.298 127.162  0.00  0.00    +0.000 C 
ATOM      6  N   UNL     1      -5.868  -1.555 127.098  0.00  0.00    +0.000 N 
ATOM      7  C   UNL     1      -5.571  -2.333 128.219  0.00  0.00    +0.000 C 
ATOM      8  O   UNL     1      -6.664  -3.028 128.461  0.00  0.00    +0.000 OA
ATOM      9  C   UNL     1      -4.221  -1.743 129.513  0.00  0.00    +0.000 C 
ATOM     10  C   UNL     1      -4.544  -0.255 130.284  0.00  0.00    +0.000 C 
ATOM     11  C   UNL     1      -5.556  -0.580 129.416  0.00  0.00    +0.000 C 
ATOM     12  C   UNL     1      -5.661  -2.193 130.466  0.00  0.00    +0.000 C 
ATOM     13  N   UNL     1      -4.316  -2.352 130.774  0.00  0.00    +0.000 N 
ATOM     14  C   UNL     1      -3.896  -1.810 132.069  0.00  0.00    +0.000 C 
ATOM     15  O   UNL     1      -3.045  -2.475 132.675  0.00  0.00    +0.000 OA
ATOM     16  C   UNL     1      -4.560  -0.420 132.848  0.00  0.00    +0.000 C 
ATOM     17  N   UNL     1      -3.660   0.450 133.646  0.00  0.00    +0.000 N 
ATOM     18  C   UNL     1      -2.267   0.091 133.829  0.00  0.00    +0.000 C 
ATOM     19  C   UNL     1      -4.082   1.792 133.739  0.00  0.00    +0.000 C 
ATOM     20  O   UNL     1      -4.928   2.149 134.563  0.00  0.00    +0.000 OA
ATOM     21  C   UNL     1      -3.642   2.745 132.602  0.00  0.00    +0.000 C 
ATOM     22  N   UNL     1      -4.656   3.753 132.353  0.00  0.00    +0.000 N 
ATOM     23  C   UNL     1      -4.715   4.376 131.134  0.00  0.00    +0.000 C 
ATOM     24  O   UNL     1      -3.814   5.134 130.780  0.00  0.00    +0.000 OA
ATOM     25  C   UNL     1      -5.962   4.098 130.208  0.00  0.00    +0.000 C 
ATOM     26  C   UNL     1      -7.391   4.725 130.460  0.00  0.00    +0.000 C 
ATOM     27  C   UNL     1      -7.282   5.267 131.827  0.00  0.00    +0.000 C 
ATOM     28  C   UNL     1      -6.497   6.433 131.045  0.00  0.00    +0.000 C 
ATOM     29  N   UNL     1      -5.836   6.416 129.843  0.00  0.00    +0.000 NA
ATOM     30  N   UNL     1      -5.546   4.956 129.152  0.00  0.00    +0.000 N 
ATOM     31  C   UNL     1      -6.244   4.501 127.987  0.00  0.00    +0.000 C 
ATOM     32  O   UNL     1      -7.477   4.614 127.898  0.00  0.00    +0.000 OA
ATOM     33  H   UNL     1      -7.275   2.322 127.319  0.00  0.00    +0.000 HD
ATOM     34  H   UNL     1      -5.022  -1.407 126.582  0.00  0.00    +0.000 HD
ATOM     35  H   UNL     1      -5.405   3.811 133.028  0.00  0.00    +0.000 HD
ENDROOT
BRANCH   1  36
ATOM     36  C   UNL     1      -5.796   4.079 125.488  0.00  0.00    +0.000 C 
ATOM     37  C   UNL     1      -4.601   4.171 124.527  0.00  0.00    +0.000 C 
BRANCH  36  39
ATOM     38  C   UNL     1      -7.132   2.673 123.546  0.00  0.00    +0.000 C 
ATOM     39  C   UNL     1      -7.096   3.624 124.743  0.00  0.00    +0.000 C 
ENDBRANCH  36  39
ENDBRANCH   1  36
BRANCH   5  40
ATOM     40  C   UNL     1      -8.245  -0.552 127.034  0.00  0.00    +0.000 C 
BRANCH  40  41
ATOM     41  C   UNL     1      -8.610  -1.243 125.751  0.00  0.00    +0.000 A 
ATOM     42  C   UNL     1      -8.476  -0.707 124.469  0.00  0.00    +0.000 A 
ATOM     43  C   UNL     1      -8.924  -1.447 123.370  0.00  0.00    +0.000 A 
ATOM     44  C   UNL     1      -9.247  -2.788 123.515  0.00  0.00    +0.000 A 
ATOM     45  C   UNL     1      -9.319  -3.319 124.786  0.00  0.00    +0.000 A 
ATOM     46  C   UNL     1      -9.099  -2.530 125.892  0.00  0.00    +0.000 A 
ENDBRANCH  40  41
ENDBRANCH   5  40
BRANCH  16  47
ATOM     47  C   UNL     1      -6.003  -0.485 133.467  0.00  0.00    +0.000 C 
BRANCH  47  48
ATOM     48  C   UNL     1      -7.219   0.125 132.794  0.00  0.00    +0.000 A 
ATOM     49  C   UNL     1      -8.194  -0.593 132.086  0.00  0.00    +0.000 A 
ATOM     50  C   UNL     1      -9.351   0.063 131.627  0.00  0.00    +0.000 A 
ATOM     51  C   UNL     1      -9.664   1.342 132.072  0.00  0.00    +0.000 A 
ATOM     52  C   UNL     1      -8.690   2.064 132.738  0.00  0.00    +0.000 A 
ATOM     53  C   UNL     1      -7.407   1.510 132.929  0.00  0.00    +0.000 A 
ENDBRANCH  47  48
ENDBRANCH  16  47
BRANCH  21  54
ATOM     54  C   UNL     1      -2.333   3.363 133.017  0.00  0.00    +0.000 C 
BRANCH  54  55
ATOM     55  C   UNL     1      -2.535   4.583 133.873  0.00  0.00    +0.000 C 
BRANCH  55  56
ATOM     56  C   UNL     1      -1.689   5.737 133.452  0.00  0.00    +0.000 C 
BRANCH  56  57
ATOM     57  N   UNL     1      -1.107   5.391 132.170  0.00  0.00    +0.000 NA
ATOM     58  H   UNL     1      -0.208   5.848 132.038  0.00  0.00    +0.000 HD
ATOM     59  H   UNL     1      -1.731   5.647 131.417  0.00  0.00    +0.000 HD
ENDBRANCH  56  57
ENDBRANCH  55  56
ENDBRANCH  54  55
ENDBRANCH  21  54
TORSDOF 10
ENDMDL
MODEL 4
REMARK VINA RESULT:      -8.3      2.639      7.886
REMARK  Name = CHEMBL338308
REMARK  13 active torsions:
REMARK  status: ('A' for Active; 'I' for Inactive)
REMARK    1  A    between atoms: C_1  and  C_2
REMARK    2  A    between atoms: C_2  and  C_3
REMARK    3  A    between atoms: C_3  and  C_4
REMARK    4  A    between atoms: C_3  and  C_5
REMARK    5  A    between atoms: C_9  and  C_10
REMARK    6  A    between atoms: C_10  and  C_11
REMARK    7  A    between atoms: C_27  and  C_28
REMARK    8  A    between atoms: C_28  and  C_29
REMARK    9  A    between atoms: N_35  and  C_36
REMARK   10  A    between atoms: C_39  and  C_40
REMARK   11  A    between atoms: C_40  and  C_41
REMARK   12  A    between atoms: C_41  and  C_42
REMARK   13  A    between atoms: C_42  and  N_43
REMARK                            x       y       z     vdW  Elec       q    Type
REMARK                         _______ _______ _______ _____ _____    ______ ____
ROOT
ATOM      1  C   UNL     1      -7.985  -1.678 127.097  0.00  0.00    +0.000 C 
ATOM      2  N   UNL     1      -7.484  -0.411 126.510  0.00  0.00    +0.000 N 
ATOM      3  C   UNL     1      -8.201   0.733 126.170  0.00  0.00    +0.000 C 
ATOM      4  O   UNL     1      -9.416   0.853 126.324  0.00  0.00    +0.000 OA
ATOM      5  C   UNL     1      -7.345   1.993 125.780  0.00  0.00    +0.000 C 
ATOM      6  N   UNL     1      -8.193   3.250 126.067  0.00  0.00    +0.000 N 
ATOM      7  C   UNL     1      -7.780   4.263 126.935  0.00  0.00    +0.000 C 
ATOM      8  O   UNL     1      -6.865   4.939 126.272  0.00  0.00    +0.000 OA
ATOM      9  C   UNL     1      -7.917   4.030 128.878  0.00  0.00    +0.000 C 
ATOM     10  C   UNL     1      -7.025   2.727 129.525  0.00  0.00    +0.000 C 
ATOM     11  C   UNL     1      -6.845   2.809 128.167  0.00  0.00    +0.000 C 
ATOM     12  C   UNL     1      -6.257   4.603 128.561  0.00  0.00    +0.000 C 
ATOM     13  N   UNL     1      -7.099   4.889 129.627  0.00  0.00    +0.000 N 
ATOM     14  C   UNL     1      -6.533   4.658 130.958  0.00  0.00    +0.000 C 
ATOM     15  O   UNL     1      -6.859   5.478 131.828  0.00  0.00    +0.000 OA
ATOM     16  C   UNL     1      -5.386   3.435 131.372  0.00  0.00    +0.000 C 
ATOM     17  N   UNL     1      -5.469   2.801 132.711  0.00  0.00    +0.000 N 
ATOM     18  C   UNL     1      -6.448   3.258 133.680  0.00  0.00    +0.000 C 
ATOM     19  C   UNL     1      -4.952   1.491 132.767  0.00  0.00    +0.000 C 
ATOM     20  O   UNL     1      -3.743   1.278 132.896  0.00  0.00    +0.000 OA
ATOM     21  C   UNL     1      -5.917   0.339 132.399  0.00  0.00    +0.000 C 
ATOM     22  N   UNL     1      -5.203  -0.746 131.754  0.00  0.00    +0.000 N 
ATOM     23  C   UNL     1      -5.876  -1.618 130.938  0.00  0.00    +0.000 C 
ATOM     24  O   UNL     1      -6.711  -2.390 131.408  0.00  0.00    +0.000 OA
ATOM     25  C   UNL     1      -5.549  -1.606 129.394  0.00  0.00    +0.000 C 
ATOM     26  C   UNL     1      -4.236  -2.234 128.777  0.00  0.00    +0.000 C 
ATOM     27  C   UNL     1      -3.388  -2.464 129.960  0.00  0.00    +0.000 C 
ATOM     28  C   UNL     1      -4.367  -3.731 130.118  0.00  0.00    +0.000 C 
ATOM     29  N   UNL     1      -5.642  -3.939 129.657  0.00  0.00    +0.000 NA
ATOM     30  N   UNL     1      -6.455  -2.649 129.052  0.00  0.00    +0.000 N 
ATOM     31  C   UNL     1      -6.718  -2.487 127.653  0.00  0.00    +0.000 C 
ATOM     32  O   UNL     1      -5.825  -2.677 126.811  0.00  0.00    +0.000 OA
ATOM     33  H   UNL     1      -6.585  -0.554 126.070  0.00  0.00    +0.000 HD
ATOM     34  H   UNL     1      -9.153   3.036 126.264  0.00  0.00    +0.000 HD
ATOM     35  H   UNL     1      -4.194  -0.696 131.778  0.00  0.00    +0.000 HD
ENDROOT
BRANCH   1  36
ATOM     36  C   UNL     1      -8.703  -2.587 126.020  0.00  0.00    +0.000 C 
ATOM     37  C   UNL     1     -10.077  -3.204 126.327  0.00  0.00    +0.000 C 
BRANCH  36  39
ATOM     38  C   UNL     1      -9.191  -2.797 123.327  0.00  0.00    +0.000 C 
ATOM     39  C   UNL     1      -8.629  -2.064 124.545  0.00  0.00    +0.000 C 
ENDBRANCH  36  39
ENDBRANCH   1  36
BRANCH   5  40
ATOM     40  C   UNL     1      -6.324   2.141 124.676  0.00  0.00    +0.000 C 
BRANCH  40  41
ATOM     41  C   UNL     1      -6.923   2.634 123.390  0.00  0.00    +0.000 A 
ATOM     42  C   UNL     1      -8.278   2.601 123.056  0.00  0.00    +0.000 A 
ATOM     43  C   UNL     1      -8.680   3.035 121.789  0.00  0.00    +0.000 A 
ATOM     44  C   UNL     1      -7.798   3.732 120.976  0.00  0.00    +0.000 A 
ATOM     45  C   UNL     1      -6.471   3.807 121.349  0.00  0.00    +0.000 A 
ATOM     46  C   UNL     1      -6.025   3.181 122.490  0.00  0.00    +0.000 A 
ENDBRANCH  40  41
ENDBRANCH   5  40
BRANCH  16  47
ATOM     47  C   UNL     1      -3.897   3.560 130.882  0.00  0.00    +0.000 C 
BRANCH  47  48
ATOM     48  C   UNL     1      -2.931   4.595 131.430  0.00  0.00    +0.000 A 
ATOM     49  C   UNL     1      -2.148   4.435 132.582  0.00  0.00    +0.000 A 
ATOM     50  C   UNL     1      -1.183   5.405 132.913  0.00  0.00    +0.000 A 
ATOM     51  C   UNL     1      -0.821   6.385 131.996  0.00  0.00    +0.000 A 
ATOM     52  C   UNL     1      -1.614   6.566 130.877  0.00  0.00    +0.000 A 
ATOM     53  C   UNL     1      -2.776   5.784 130.701  0.00  0.00    +0.000 A 
ENDBRANCH  47  48
ENDBRANCH  16  47
BRANCH  21  54
ATOM     54  C   UNL     1      -6.584  -0.111 133.672  0.00  0.00    +0.000 C 
BRANCH  54  55
ATOM     55  C   UNL     1      -5.650  -0.906 134.543  0.00  0.00    +0.000 C 
BRANCH  55  56
ATOM     56  C   UNL     1      -6.194  -2.247 134.908  0.00  0.00    +0.000 C 
BRANCH  56  57
ATOM     57  N   UNL     1      -7.567  -2.289 134.443  0.00  0.00    +0.000 NA
ATOM     58  H   UNL     1      -7.631  -2.023 133.463  0.00  0.00    +0.000 HD
ATOM     59  H   UNL     1      -8.148  -1.677 134.999  0.00  0.00    +0.000 HD
ENDBRANCH  56  57
ENDBRANCH  55  56
ENDBRANCH  54  55
ENDBRANCH  21  54
TORSDOF 10
ENDMDL
MODEL 5
REMARK VINA RESULT:      -8.3      2.099      7.149
REMARK  Name = CHEMBL338308
REMARK  13 active torsions:
REMARK  status: ('A' for Active; 'I' for Inactive)
REMARK    1  A    between atoms: C_1  and  C_2
REMARK    2  A    between atoms: C_2  and  C_3
REMARK    3  A    between atoms: C_3  and  C_4
REMARK    4  A    between atoms: C_3  and  C_5
REMARK    5  A    between atoms: C_9  and  C_10
REMARK    6  A    between atoms: C_10  and  C_11
REMARK    7  A    between atoms: C_27  and  C_28
REMARK    8  A    between atoms: C_28  and  C_29
REMARK    9  A    between atoms: N_35  and  C_36
REMARK   10  A    between atoms: C_39  and  C_40
REMARK   11  A    between atoms: C_40  and  C_41
REMARK   12  A    between atoms: C_41  and  C_42
REMARK   13  A    between atoms: C_42  and  N_43
REMARK                            x       y       z     vdW  Elec       q    Type
REMARK                         _______ _______ _______ _____ _____    ______ ____
ROOT
ATOM      1  C   UNL     1      -7.889  -1.454 127.603  0.00  0.00    +0.000 C 
ATOM      2  N   UNL     1      -7.332  -0.172 127.110  0.00  0.00    +0.000 N 
ATOM      3  C   UNL     1      -7.996   1.026 126.856  0.00  0.00    +0.000 C 
ATOM      4  O   UNL     1      -9.205   1.188 127.021  0.00  0.00    +0.000 OA
ATOM      5  C   UNL     1      -7.083   2.271 126.559  0.00  0.00    +0.000 C 
ATOM      6  N   UNL     1      -7.875   3.540 126.939  0.00  0.00    +0.000 N 
ATOM      7  C   UNL     1      -7.418   4.468 127.878  0.00  0.00    +0.000 C 
ATOM      8  O   UNL     1      -6.473   5.149 127.265  0.00  0.00    +0.000 OA
ATOM      9  C   UNL     1      -7.568   4.098 129.799  0.00  0.00    +0.000 C 
ATOM     10  C   UNL     1      -6.735   2.712 130.347  0.00  0.00    +0.000 C 
ATOM     11  C   UNL     1      -6.550   2.886 128.998  0.00  0.00    +0.000 C 
ATOM     12  C   UNL     1      -5.883   4.618 129.521  0.00  0.00    +0.000 C 
ATOM     13  N   UNL     1      -6.713   4.862 130.608  0.00  0.00    +0.000 N 
ATOM     14  C   UNL     1      -6.159   4.508 131.917  0.00  0.00    +0.000 C 
ATOM     15  O   UNL     1      -6.450   5.276 132.845  0.00  0.00    +0.000 OA
ATOM     16  C   UNL     1      -5.068   3.209 132.237  0.00  0.00    +0.000 C 
ATOM     17  N   UNL     1      -5.182   2.482 133.526  0.00  0.00    +0.000 N 
ATOM     18  C   UNL     1      -6.140   2.910 134.528  0.00  0.00    +0.000 C 
ATOM     19  C   UNL     1      -4.724   1.149 133.484  0.00  0.00    +0.000 C 
ATOM     20  O   UNL     1      -3.526   0.873 133.594  0.00  0.00    +0.000 OA
ATOM     21  C   UNL     1      -5.739   0.072 133.034  0.00  0.00    +0.000 C 
ATOM     22  N   UNL     1      -5.073  -0.994 132.310  0.00  0.00    +0.000 N 
ATOM     23  C   UNL     1      -5.783  -1.772 131.433  0.00  0.00    +0.000 C 
ATOM     24  O   UNL     1      -6.653  -2.538 131.847  0.00  0.00    +0.000 OA
ATOM     25  C   UNL     1      -5.455  -1.660 129.894  0.00  0.00    +0.000 C 
ATOM     26  C   UNL     1      -4.171  -2.299 129.229  0.00  0.00    +0.000 C 
ATOM     27  C   UNL     1      -3.335  -2.654 130.390  0.00  0.00    +0.000 C 
ATOM     28  C   UNL     1      -4.370  -3.884 130.456  0.00  0.00    +0.000 C 
ATOM     29  N   UNL     1      -5.652  -4.000 129.984  0.00  0.00    +0.000 NA
ATOM     30  N   UNL     1      -6.406  -2.634 129.478  0.00  0.00    +0.000 N 
ATOM     31  C   UNL     1      -6.660  -2.358 128.095  0.00  0.00    +0.000 C 
ATOM     32  O   UNL     1      -5.776  -2.525 127.239  0.00  0.00    +0.000 OA
ATOM     33  H   UNL     1      -6.439  -0.322 126.659  0.00  0.00    +0.000 HD
ATOM     34  H   UNL     1      -8.844   3.356 127.121  0.00  0.00    +0.000 HD
ATOM     35  H   UNL     1      -4.064  -0.990 132.335  0.00  0.00    +0.000 HD
ENDROOT
BRANCH   1  36
ATOM     36  C   UNL     1      -8.646  -2.249 126.463  0.00  0.00    +0.000 C 
ATOM     37  C   UNL     1      -8.180  -2.129 125.004  0.00  0.00    +0.000 C 
BRANCH  36  39
ATOM     38  C   UNL     1      -9.510  -4.195 128.194  0.00  0.00    +0.000 C 
ATOM     39  C   UNL     1      -9.037  -3.723 126.819  0.00  0.00    +0.000 C 
ENDBRANCH  36  39
ENDBRANCH   1  36
BRANCH   5  40
ATOM     40  C   UNL     1      -6.056   2.455 125.466  0.00  0.00    +0.000 C 
BRANCH  40  41
ATOM     41  C   UNL     1      -4.689   2.776 125.998  0.00  0.00    +0.000 A 
ATOM     42  C   UNL     1      -3.836   3.768 125.511  0.00  0.00    +0.000 A 
ATOM     43  C   UNL     1      -2.560   3.906 126.067  0.00  0.00    +0.000 A 
ATOM     44  C   UNL     1      -2.240   3.256 127.251  0.00  0.00    +0.000 A 
ATOM     45  C   UNL     1      -3.120   2.319 127.752  0.00  0.00    +0.000 A 
ATOM     46  C   UNL     1      -4.282   2.015 127.080  0.00  0.00    +0.000 A 
ENDBRANCH  40  41
ENDBRANCH   5  40
BRANCH  16  47
ATOM     47  C   UNL     1      -3.575   3.303 131.754  0.00  0.00    +0.000 C 
BRANCH  47  48
ATOM     48  C   UNL     1      -2.731   4.554 131.919  0.00  0.00    +0.000 A 
ATOM     49  C   UNL     1      -1.939   4.850 133.037  0.00  0.00    +0.000 A 
ATOM     50  C   UNL     1      -1.089   5.971 133.016  0.00  0.00    +0.000 A 
ATOM     51  C   UNL     1      -0.834   6.644 131.826  0.00  0.00    +0.000 A 
ATOM     52  C   UNL     1      -1.638   6.377 130.732  0.00  0.00    +0.000 A 
ATOM     53  C   UNL     1      -2.706   5.461 130.848  0.00  0.00    +0.000 A 
ENDBRANCH  47  48
ENDBRANCH  16  47
BRANCH  21  54
ATOM     54  C   UNL     1      -6.426  -0.440 134.272  0.00  0.00    +0.000 C 
BRANCH  54  55
ATOM     55  C   UNL     1      -5.574  -1.428 135.019  0.00  0.00    +0.000 C 
BRANCH  55  56
ATOM     56  C   UNL     1      -6.314  -2.665 135.403  0.00  0.00    +0.000 C 
BRANCH  56  57
ATOM     57  N   UNL     1      -7.639  -2.564 134.820  0.00  0.00    +0.000 NA
ATOM     58  H   UNL     1      -8.240  -3.319 135.140  0.00  0.00    +0.000 HD
ATOM     59  H   UNL     1      -7.584  -2.578 133.811  0.00  0.00    +0.000 HD
ENDBRANCH  56  57
ENDBRANCH  55  56
ENDBRANCH  54  55
ENDBRANCH  21  54
TORSDOF 10
ENDMDL
MODEL 6
REMARK VINA RESULT:      -8.2      2.348      7.008
REMARK  Name = CHEMBL338308
REMARK  13 active torsions:
REMARK  status: ('A' for Active; 'I' for Inactive)
REMARK    1  A    between atoms: C_1  and  C_2
REMARK    2  A    between atoms: C_2  and  C_3
REMARK    3  A    between atoms: C_3  and  C_4
REMARK    4  A    between atoms: C_3  and  C_5
REMARK    5  A    between atoms: C_9  and  C_10
REMARK    6  A    between atoms: C_10  and  C_11
REMARK    7  A    between atoms: C_27  and  C_28
REMARK    8  A    between atoms: C_28  and  C_29
REMARK    9  A    between atoms: N_35  and  C_36
REMARK   10  A    between atoms: C_39  and  C_40
REMARK   11  A    between atoms: C_40  and  C_41
REMARK   12  A    between atoms: C_41  and  C_42
REMARK   13  A    between atoms: C_42  and  N_43
REMARK                            x       y       z     vdW  Elec       q    Type
REMARK                         _______ _______ _______ _____ _____    ______ ____
ROOT
ATOM      1  C   UNL     1      -6.446   4.406 130.457  0.00  0.00    +0.000 C 
ATOM      2  N   UNL     1      -6.229   3.227 131.329  0.00  0.00    +0.000 N 
ATOM      3  C   UNL     1      -7.156   2.539 132.109  0.00  0.00    +0.000 C 
ATOM      4  O   UNL     1      -8.348   2.836 132.178  0.00  0.00    +0.000 OA
ATOM      5  C   UNL     1      -6.658   1.188 132.742  0.00  0.00    +0.000 C 
ATOM      6  N   UNL     1      -7.894   0.296 132.986  0.00  0.00    +0.000 N 
ATOM      7  C   UNL     1      -8.035  -0.975 132.427  0.00  0.00    +0.000 C 
ATOM      8  O   UNL     1      -7.238  -1.756 133.126  0.00  0.00    +0.000 OA
ATOM      9  C   UNL     1      -8.564  -1.184 130.549  0.00  0.00    +0.000 C 
ATOM     10  C   UNL     1      -7.502  -0.493 129.406  0.00  0.00    +0.000 C 
ATOM     11  C   UNL     1      -7.030  -0.304 130.681  0.00  0.00    +0.000 C 
ATOM     12  C   UNL     1      -7.134  -2.226 130.783  0.00  0.00    +0.000 C 
ATOM     13  N   UNL     1      -8.256  -2.436 129.994  0.00  0.00    +0.000 N 
ATOM     14  C   UNL     1      -7.989  -2.755 128.589  0.00  0.00    +0.000 C 
ATOM     15  O   UNL     1      -8.753  -3.584 128.075  0.00  0.00    +0.000 OA
ATOM     16  C   UNL     1      -6.661  -2.172 127.653  0.00  0.00    +0.000 C 
ATOM     17  N   UNL     1      -6.871  -1.894 126.210  0.00  0.00    +0.000 N 
ATOM     18  C   UNL     1      -8.147  -2.184 125.586  0.00  0.00    +0.000 C 
ATOM     19  C   UNL     1      -6.007  -0.917 125.675  0.00  0.00    +0.000 C 
ATOM     20  O   UNL     1      -4.861  -1.195 125.312  0.00  0.00    +0.000 OA
ATOM     21  C   UNL     1      -6.453   0.560 125.804  0.00  0.00    +0.000 C 
ATOM     22  N   UNL     1      -5.306   1.432 125.967  0.00  0.00    +0.000 N 
ATOM     23  C   UNL     1      -5.460   2.658 126.561  0.00  0.00    +0.000 C 
ATOM     24  O   UNL     1      -6.107   3.542 126.001  0.00  0.00    +0.000 OA
ATOM     25  C   UNL     1      -4.787   2.902 127.967  0.00  0.00    +0.000 C 
ATOM     26  C   UNL     1      -3.236   3.139 128.160  0.00  0.00    +0.000 C 
ATOM     27  C   UNL     1      -2.673   2.753 126.854  0.00  0.00    +0.000 C 
ATOM     28  C   UNL     1      -3.225   4.210 126.454  0.00  0.00    +0.000 C 
ATOM     29  N   UNL     1      -4.222   4.971 127.008  0.00  0.00    +0.000 NA
ATOM     30  N   UNL     1      -5.218   4.252 128.096  0.00  0.00    +0.000 N 
ATOM     31  C   UNL     1      -5.168   4.540 129.498  0.00  0.00    +0.000 C 
ATOM     32  O   UNL     1      -4.083   4.590 130.100  0.00  0.00    +0.000 OA
ATOM     33  H   UNL     1      -5.250   3.135 131.566  0.00  0.00    +0.000 HD
ATOM     34  H   UNL     1      -8.759   0.790 132.875  0.00  0.00    +0.000 HD
ATOM     35  H   UNL     1      -4.400   1.015 125.814  0.00  0.00    +0.000 HD
ENDROOT
BRANCH   1  36
ATOM     36  C   UNL     1      -6.566   5.746 131.291  0.00  0.00    +0.000 C 
ATOM     37  C   UNL     1      -7.783   6.663 131.100  0.00  0.00    +0.000 C 
BRANCH  36  39
ATOM     38  C   UNL     1      -7.149   5.675 133.972  0.00  0.00    +0.000 C 
ATOM     39  C   UNL     1      -6.167   5.633 132.801  0.00  0.00    +0.000 C 
ENDBRANCH  36  39
ENDBRANCH   1  36
BRANCH   5  40
ATOM     40  C   UNL     1      -5.494   0.951 133.677  0.00  0.00    +0.000 C 
BRANCH  40  41
ATOM     41  C   UNL     1      -4.499   2.076 133.666  0.00  0.00    +0.000 A 
ATOM     42  C   UNL     1      -3.523   2.292 132.692  0.00  0.00    +0.000 A 
ATOM     43  C   UNL     1      -2.619   3.348 132.853  0.00  0.00    +0.000 A 
ATOM     44  C   UNL     1      -2.847   4.322 133.815  0.00  0.00    +0.000 A 
ATOM     45  C   UNL     1      -3.854   4.122 134.735  0.00  0.00    +0.000 A 
ATOM     46  C   UNL     1      -4.604   2.968 134.719  0.00  0.00    +0.000 A 
ENDBRANCH  40  41
ENDBRANCH   5  40
BRANCH  16  47
ATOM     47  C   UNL     1      -5.210  -2.706 127.936  0.00  0.00    +0.000 C 
BRANCH  47  48
ATOM     48  C   UNL     1      -4.406  -2.306 129.160  0.00  0.00    +0.000 A 
ATOM     49  C   UNL     1      -4.053  -0.991 129.498  0.00  0.00    +0.000 A 
ATOM     50  C   UNL     1      -3.429  -0.728 130.731  0.00  0.00    +0.000 A 
ATOM     51  C   UNL     1      -3.381  -1.703 131.722  0.00  0.00    +0.000 A 
ATOM     52  C   UNL     1      -3.695  -3.006 131.380  0.00  0.00    +0.000 A 
ATOM     53  C   UNL     1      -4.027  -3.326 130.046  0.00  0.00    +0.000 A 
ENDBRANCH  47  48
ENDBRANCH  16  47
BRANCH  21  54
ATOM     54  C   UNL     1      -7.239   0.899 124.565  0.00  0.00    +0.000 C 
BRANCH  54  55
ATOM     55  C   UNL     1      -8.617   1.404 124.895  0.00  0.00    +0.000 C 
BRANCH  55  56
ATOM     56  C   UNL     1      -8.979   2.643 124.147  0.00  0.00    +0.000 C 
BRANCH  56  57
ATOM     57  N   UNL     1      -8.946   3.737 125.099  0.00  0.00    +0.000 NA
ATOM     58  H   UNL     1      -7.999   4.082 125.230  0.00  0.00    +0.000 HD
ATOM     59  H   UNL     1      -9.327   3.444 125.988  0.00  0.00    +0.000 HD
ENDBRANCH  56  57
ENDBRANCH  55  56
ENDBRANCH  54  55
ENDBRANCH  21  54
TORSDOF 10
ENDMDL
MODEL 7
REMARK VINA RESULT:      -8.1      2.236      4.944
REMARK  Name = CHEMBL338308
REMARK  13 active torsions:
REMARK  status: ('A' for Active; 'I' for Inactive)
REMARK    1  A    between atoms: C_1  and  C_2
REMARK    2  A    between atoms: C_2  and  C_3
REMARK    3  A    between atoms: C_3  and  C_4
REMARK    4  A    between atoms: C_3  and  C_5
REMARK    5  A    between atoms: C_9  and  C_10
REMARK    6  A    between atoms: C_10  and  C_11
REMARK    7  A    between atoms: C_27  and  C_28
REMARK    8  A    between atoms: C_28  and  C_29
REMARK    9  A    between atoms: N_35  and  C_36
REMARK   10  A    between atoms: C_39  and  C_40
REMARK   11  A    between atoms: C_40  and  C_41
REMARK   12  A    between atoms: C_41  and  C_42
REMARK   13  A    between atoms: C_42  and  N_43
REMARK                            x       y       z     vdW  Elec       q    Type
REMARK                         _______ _______ _______ _____ _____    ______ ____
ROOT
ATOM      1  C   UNL     1      -3.648  -1.058 132.641  0.00  0.00    +0.000 C 
ATOM      2  N   UNL     1      -4.379   0.167 133.044  0.00  0.00    +0.000 N 
ATOM      3  C   UNL     1      -3.881   1.453 133.239  0.00  0.00    +0.000 C 
ATOM      4  O   UNL     1      -2.699   1.761 133.089  0.00  0.00    +0.000 OA
ATOM      5  C   UNL     1      -4.954   2.585 133.441  0.00  0.00    +0.000 C 
ATOM      6  N   UNL     1      -4.321   3.922 133.001  0.00  0.00    +0.000 N 
ATOM      7  C   UNL     1      -4.866   4.727 131.999  0.00  0.00    +0.000 C 
ATOM      8  O   UNL     1      -5.908   5.314 132.550  0.00  0.00    +0.000 OA
ATOM      9  C   UNL     1      -4.615   4.271 130.108  0.00  0.00    +0.000 C 
ATOM     10  C   UNL     1      -5.247   2.760 129.627  0.00  0.00    +0.000 C 
ATOM     11  C   UNL     1      -5.491   2.985 130.958  0.00  0.00    +0.000 C 
ATOM     12  C   UNL     1      -6.360   4.583 130.318  0.00  0.00    +0.000 C 
ATOM     13  N   UNL     1      -5.537   4.870 129.237  0.00  0.00    +0.000 N 
ATOM     14  C   UNL     1      -6.004   4.373 127.939  0.00  0.00    +0.000 C 
ATOM     15  O   UNL     1      -5.787   5.118 126.973  0.00  0.00    +0.000 OA
ATOM     16  C   UNL     1      -6.909   2.927 127.675  0.00  0.00    +0.000 C 
ATOM     17  N   UNL     1      -6.666   2.149 126.435  0.00  0.00    +0.000 N 
ATOM     18  C   UNL     1      -5.742   2.640 125.430  0.00  0.00    +0.000 C 
ATOM     19  C   UNL     1      -6.951   0.773 126.548  0.00  0.00    +0.000 C 
ATOM     20  O   UNL     1      -8.100   0.338 126.429  0.00  0.00    +0.000 OA
ATOM     21  C   UNL     1      -5.819  -0.136 127.083  0.00  0.00    +0.000 C 
ATOM     22  N   UNL     1      -6.363  -1.236 127.856  0.00  0.00    +0.000 N 
ATOM     23  C   UNL     1      -5.585  -1.864 128.793  0.00  0.00    +0.000 C 
ATOM     24  O   UNL     1      -4.613  -2.534 128.445  0.00  0.00    +0.000 OA
ATOM     25  C   UNL     1      -5.968  -1.709 130.315  0.00  0.00    +0.000 C 
ATOM     26  C   UNL     1      -7.179  -2.470 130.990  0.00  0.00    +0.000 C 
ATOM     27  C   UNL     1      -7.929  -2.996 129.835  0.00  0.00    +0.000 C 
ATOM     28  C   UNL     1      -6.743  -4.083 129.865  0.00  0.00    +0.000 C 
ATOM     29  N   UNL     1      -5.471  -4.005 130.371  0.00  0.00    +0.000 NA
ATOM     30  N   UNL     1      -4.913  -2.525 130.810  0.00  0.00    +0.000 N 
ATOM     31  C   UNL     1      -4.736  -2.140 132.178  0.00  0.00    +0.000 C 
ATOM     32  O   UNL     1      -5.616  -2.372 133.024  0.00  0.00    +0.000 OA
ATOM     33  H   UNL     1      -5.258  -0.072 133.484  0.00  0.00    +0.000 HD
ATOM     34  H   UNL     1      -3.332   3.855 132.851  0.00  0.00    +0.000 HD
ATOM     35  H   UNL     1      -7.364  -1.365 127.809  0.00  0.00    +0.000 HD
ENDROOT
BRANCH   1  36
ATOM     36  C   UNL     1      -2.828  -1.681 133.842  0.00  0.00    +0.000 C 
ATOM     37  C   UNL     1      -1.322  -1.404 133.971  0.00  0.00    +0.000 C 
BRANCH  36  39
ATOM     38  C   UNL     1      -3.200  -0.648 136.358  0.00  0.00    +0.000 C 
ATOM     39  C   UNL     1      -3.540  -1.631 135.237  0.00  0.00    +0.000 C 
ENDBRANCH  36  39
ENDBRANCH   1  36
BRANCH   5  40
ATOM     40  C   UNL     1      -6.028   2.695 134.499  0.00  0.00    +0.000 C 
BRANCH  40  41
ATOM     41  C   UNL     1      -5.581   3.472 135.705  0.00  0.00    +0.000 A 
ATOM     42  C   UNL     1      -6.028   4.745 136.067  0.00  0.00    +0.000 A 
ATOM     43  C   UNL     1      -5.468   5.373 137.184  0.00  0.00    +0.000 A 
ATOM     44  C   UNL     1      -4.682   4.651 138.071  0.00  0.00    +0.000 A 
ATOM     45  C   UNL     1      -4.297   3.372 137.726  0.00  0.00    +0.000 A 
ATOM     46  C   UNL     1      -4.662   2.829 136.515  0.00  0.00    +0.000 A 
ENDBRANCH  40  41
ENDBRANCH   5  40
BRANCH  16  47
ATOM     47  C   UNL     1      -8.415   2.855 128.120  0.00  0.00    +0.000 C 
BRANCH  47  48
ATOM     48  C   UNL     1      -8.855   2.281 129.455  0.00  0.00    +0.000 A 
ATOM     49  C   UNL     1      -8.435   1.051 129.982  0.00  0.00    +0.000 A 
ATOM     50  C   UNL     1      -8.798   0.690 131.293  0.00  0.00    +0.000 A 
ATOM     51  C   UNL     1      -9.350   1.627 132.158  0.00  0.00    +0.000 A 
ATOM     52  C   UNL     1      -9.798   2.826 131.633  0.00  0.00    +0.000 A 
ATOM     53  C   UNL     1      -9.712   3.064 130.244  0.00  0.00    +0.000 A 
ENDBRANCH  47  48
ENDBRANCH  16  47
BRANCH  21  54
ATOM     54  C   UNL     1      -5.037  -0.625 125.893  0.00  0.00    +0.000 C 
BRANCH  54  55
ATOM     55  C   UNL     1      -5.698  -1.802 125.232  0.00  0.00    +0.000 C 
BRANCH  55  56
ATOM     56  C   UNL     1      -6.205  -1.494 123.862  0.00  0.00    +0.000 C 
BRANCH  56  57
ATOM     57  N   UNL     1      -7.653  -1.550 123.923  0.00  0.00    +0.000 NA
ATOM     58  H   UNL     1      -7.992  -2.488 123.731  0.00  0.00    +0.000 HD
ATOM     59  H   UNL     1      -8.060  -0.900 123.265  0.00  0.00    +0.000 HD
ENDBRANCH  56  57
ENDBRANCH  55  56
ENDBRANCH  54  55
ENDBRANCH  21  54
TORSDOF 10
ENDMDL
MODEL 8
REMARK VINA RESULT:      -8.0      2.584      7.501
REMARK  Name = CHEMBL338308
REMARK  13 active torsions:
REMARK  status: ('A' for Active; 'I' for Inactive)
REMARK    1  A    between atoms: C_1  and  C_2
REMARK    2  A    between atoms: C_2  and  C_3
REMARK    3  A    between atoms: C_3  and  C_4
REMARK    4  A    between atoms: C_3  and  C_5
REMARK    5  A    between atoms: C_9  and  C_10
REMARK    6  A    between atoms: C_10  and  C_11
REMARK    7  A    between atoms: C_27  and  C_28
REMARK    8  A    between atoms: C_28  and  C_29
REMARK    9  A    between atoms: N_35  and  C_36
REMARK   10  A    between atoms: C_39  and  C_40
REMARK   11  A    between atoms: C_40  and  C_41
REMARK   12  A    between atoms: C_41  and  C_42
REMARK   13  A    between atoms: C_42  and  N_43
REMARK                            x       y       z     vdW  Elec       q    Type
REMARK                         _______ _______ _______ _____ _____    ______ ____
ROOT
ATOM      1  C   UNL     1      -8.324   4.535 129.694  0.00  0.00    +0.000 C 
ATOM      2  N   UNL     1      -7.509   3.659 130.570  0.00  0.00    +0.000 N 
ATOM      3  C   UNL     1      -7.918   2.897 131.662  0.00  0.00    +0.000 C 
ATOM      4  O   UNL     1      -9.080   2.846 132.065  0.00  0.00    +0.000 OA
ATOM      5  C   UNL     1      -6.854   1.895 132.242  0.00  0.00    +0.000 C 
ATOM      6  N   UNL     1      -7.615   0.750 132.943  0.00  0.00    +0.000 N 
ATOM      7  C   UNL     1      -7.467  -0.591 132.584  0.00  0.00    +0.000 C 
ATOM      8  O   UNL     1      -6.303  -0.959 133.078  0.00  0.00    +0.000 OA
ATOM      9  C   UNL     1      -8.366  -1.301 130.991  0.00  0.00    +0.000 C 
ATOM     10  C   UNL     1      -7.930  -0.567 129.514  0.00  0.00    +0.000 C 
ATOM     11  C   UNL     1      -7.233  -0.009 130.556  0.00  0.00    +0.000 C 
ATOM     12  C   UNL     1      -6.663  -1.822 130.876  0.00  0.00    +0.000 C 
ATOM     13  N   UNL     1      -7.817  -2.494 130.496  0.00  0.00    +0.000 N 
ATOM     14  C   UNL     1      -7.835  -2.987 129.116  0.00  0.00    +0.000 C 
ATOM     15  O   UNL     1      -8.386  -4.084 128.948  0.00  0.00    +0.000 OA
ATOM     16  C   UNL     1      -7.068  -2.238 127.763  0.00  0.00    +0.000 C 
ATOM     17  N   UNL     1      -7.726  -2.315 126.435  0.00  0.00    +0.000 N 
ATOM     18  C   UNL     1      -8.950  -3.075 126.267  0.00  0.00    +0.000 C 
ATOM     19  C   UNL     1      -7.406  -1.253 125.565  0.00  0.00    +0.000 C 
ATOM     20  O   UNL     1      -6.369  -1.254 124.897  0.00  0.00    +0.000 OA
ATOM     21  C   UNL     1      -8.267   0.028 125.678  0.00  0.00    +0.000 C 
ATOM     22  N   UNL     1      -7.474   1.209 125.392  0.00  0.00    +0.000 N 
ATOM     23  C   UNL     1      -7.865   2.429 125.879  0.00  0.00    +0.000 C 
ATOM     24  O   UNL     1      -8.890   2.964 125.460  0.00  0.00    +0.000 OA
ATOM     25  C   UNL     1      -6.969   3.122 126.977  0.00  0.00    +0.000 C 
ATOM     26  C   UNL     1      -5.591   3.828 126.658  0.00  0.00    +0.000 C 
ATOM     27  C   UNL     1      -5.292   3.376 125.287  0.00  0.00    +0.000 C 
ATOM     28  C   UNL     1      -6.380   4.507 124.934  0.00  0.00    +0.000 C 
ATOM     29  N   UNL     1      -7.393   5.041 125.690  0.00  0.00    +0.000 NA
ATOM     30  N   UNL     1      -7.774   4.289 127.098  0.00  0.00    +0.000 N 
ATOM     31  C   UNL     1      -7.459   4.844 128.380  0.00  0.00    +0.000 C 
ATOM     32  O   UNL     1      -6.335   5.319 128.610  0.00  0.00    +0.000 OA
ATOM     33  H   UNL     1      -6.529   3.900 130.502  0.00  0.00    +0.000 HD
ATOM     34  H   UNL     1      -8.592   0.943 133.056  0.00  0.00    +0.000 HD
ATOM     35  H   UNL     1      -6.553   1.048 125.009  0.00  0.00    +0.000 HD
ENDROOT
BRANCH   1  36
ATOM     36  C   UNL     1      -8.660   5.918 130.387  0.00  0.00    +0.000 C 
ATOM     37  C   UNL     1     -10.120   6.298 130.676  0.00  0.00    +0.000 C 
BRANCH  36  39
ATOM     38  C   UNL     1      -6.297   6.860 131.418  0.00  0.00    +0.000 C 
ATOM     39  C   UNL     1      -7.719   6.319 131.573  0.00  0.00    +0.000 C 
ENDBRANCH  36  39
ENDBRANCH   1  36
BRANCH   5  40
ATOM     40  C   UNL     1      -5.477   2.188 132.792  0.00  0.00    +0.000 C 
BRANCH  40  41
ATOM     41  C   UNL     1      -4.598   2.908 131.809  0.00  0.00    +0.000 A 
ATOM     42  C   UNL     1      -4.423   2.565 130.467  0.00  0.00    +0.000 A 
ATOM     43  C   UNL     1      -3.515   3.291 129.690  0.00  0.00    +0.000 A 
ATOM     44  C   UNL     1      -2.997   4.490 130.158  0.00  0.00    +0.000 A 
ATOM     45  C   UNL     1      -3.228   4.845 131.471  0.00  0.00    +0.000 A 
ATOM     46  C   UNL     1      -3.936   4.015 132.310  0.00  0.00    +0.000 A 
ENDBRANCH  40  41
ENDBRANCH   5  40
BRANCH  16  47
ATOM     47  C   UNL     1      -5.501  -2.267 127.637  0.00  0.00    +0.000 C 
BRANCH  47  48
ATOM     48  C   UNL     1      -4.577  -2.323 128.840  0.00  0.00    +0.000 A 
ATOM     49  C   UNL     1      -4.084  -1.207 129.531  0.00  0.00    +0.000 A 
ATOM     50  C   UNL     1      -3.350  -1.386 130.718  0.00  0.00    +0.000 A 
ATOM     51  C   UNL     1      -3.315  -2.624 131.349  0.00  0.00    +0.000 A 
ATOM     52  C   UNL     1      -3.767  -3.731 130.654  0.00  0.00    +0.000 A 
ATOM     53  C   UNL     1      -4.225  -3.592 129.326  0.00  0.00    +0.000 A 
ENDBRANCH  47  48
ENDBRANCH  16  47
BRANCH  21  54
ATOM     54  C   UNL     1      -9.415  -0.119 124.714  0.00  0.00    +0.000 C 
BRANCH  54  55
ATOM     55  C   UNL     1      -8.988   0.125 123.292  0.00  0.00    +0.000 C 
BRANCH  55  56
ATOM     56  C   UNL     1      -9.877   1.084 122.573  0.00  0.00    +0.000 C 
BRANCH  56  57
ATOM     57  N   UNL     1     -11.242   0.654 122.807  0.00  0.00    +0.000 NA
ATOM     58  H   UNL     1     -11.701   0.398 121.936  0.00  0.00    +0.000 HD
ATOM     59  H   UNL     1     -11.769   1.383 123.267  0.00  0.00    +0.000 HD
ENDBRANCH  56  57
ENDBRANCH  55  56
ENDBRANCH  54  55
ENDBRANCH  21  54
TORSDOF 10
ENDMDL
MODEL 9
REMARK VINA RESULT:      -8.0      2.396      7.232
REMARK  Name = CHEMBL338308
REMARK  13 active torsions:
REMARK  status: ('A' for Active; 'I' for Inactive)
REMARK    1  A    between atoms: C_1  and  C_2
REMARK    2  A    between atoms: C_2  and  C_3
REMARK    3  A    between atoms: C_3  and  C_4
REMARK    4  A    between atoms: C_3  and  C_5
REMARK    5  A    between atoms: C_9  and  C_10
REMARK    6  A    between atoms: C_10  and  C_11
REMARK    7  A    between atoms: C_27  and  C_28
REMARK    8  A    between atoms: C_28  and  C_29
REMARK    9  A    between atoms: N_35  and  C_36
REMARK   10  A    between atoms: C_39  and  C_40
REMARK   11  A    between atoms: C_40  and  C_41
REMARK   12  A    between atoms: C_41  and  C_42
REMARK   13  A    between atoms: C_42  and  N_43
REMARK                            x       y       z     vdW  Elec       q    Type
REMARK                         _______ _______ _______ _____ _____    ______ ____
ROOT
ATOM      1  C   UNL     1      -7.561  -2.322 128.524  0.00  0.00    +0.000 C 
ATOM      2  N   UNL     1      -7.095  -1.194 127.681  0.00  0.00    +0.000 N 
ATOM      3  C   UNL     1      -7.844  -0.172 127.103  0.00  0.00    +0.000 C 
ATOM      4  O   UNL     1      -9.064  -0.062 127.226  0.00  0.00    +0.000 OA
ATOM      5  C   UNL     1      -7.024   1.004 126.456  0.00  0.00    +0.000 C 
ATOM      6  N   UNL     1      -7.914   2.264 126.467  0.00  0.00    +0.000 N 
ATOM      7  C   UNL     1      -7.541   3.452 127.099  0.00  0.00    +0.000 C 
ATOM      8  O   UNL     1      -6.641   4.001 126.309  0.00  0.00    +0.000 OA
ATOM      9  C   UNL     1      -7.688   3.633 129.047  0.00  0.00    +0.000 C 
ATOM     10  C   UNL     1      -6.761   2.528 129.959  0.00  0.00    +0.000 C 
ATOM     11  C   UNL     1      -6.572   2.325 128.615  0.00  0.00    +0.000 C 
ATOM     12  C   UNL     1      -6.044   4.179 128.619  0.00  0.00    +0.000 C 
ATOM     13  N   UNL     1      -6.904   4.658 129.598  0.00  0.00    +0.000 N 
ATOM     14  C   UNL     1      -6.342   4.734 130.949  0.00  0.00    +0.000 C 
ATOM     15  O   UNL     1      -6.702   5.709 131.623  0.00  0.00    +0.000 OA
ATOM     16  C   UNL     1      -5.161   3.666 131.616  0.00  0.00    +0.000 C 
ATOM     17  N   UNL     1      -5.237   3.329 133.060  0.00  0.00    +0.000 N 
ATOM     18  C   UNL     1      -6.239   3.950 133.906  0.00  0.00    +0.000 C 
ATOM     19  C   UNL     1      -4.679   2.078 133.394  0.00  0.00    +0.000 C 
ATOM     20  O   UNL     1      -3.466   1.937 133.568  0.00  0.00    +0.000 OA
ATOM     21  C   UNL     1      -5.605   0.844 133.277  0.00  0.00    +0.000 C 
ATOM     22  N   UNL     1      -4.851  -0.330 132.881  0.00  0.00    +0.000 N 
ATOM     23  C   UNL     1      -5.489  -1.377 132.267  0.00  0.00    +0.000 C 
ATOM     24  O   UNL     1      -6.303  -2.058 132.890  0.00  0.00    +0.000 OA
ATOM     25  C   UNL     1      -5.149  -1.683 130.758  0.00  0.00    +0.000 C 
ATOM     26  C   UNL     1      -3.812  -2.385 130.291  0.00  0.00    +0.000 C 
ATOM     27  C   UNL     1      -2.967  -2.331 131.498  0.00  0.00    +0.000 C 
ATOM     28  C   UNL     1      -3.907  -3.566 131.920  0.00  0.00    +0.000 C 
ATOM     29  N   UNL     1      -5.171  -3.909 131.511  0.00  0.00    +0.000 NA
ATOM     30  N   UNL     1      -6.019  -2.804 130.643  0.00  0.00    +0.000 N 
ATOM     31  C   UNL     1      -6.274  -2.952 129.242  0.00  0.00    +0.000 C 
ATOM     32  O   UNL     1      -5.368  -3.288 128.461  0.00  0.00    +0.000 OA
ATOM     33  H   UNL     1      -6.187  -1.398 127.284  0.00  0.00    +0.000 HD
ATOM     34  H   UNL     1      -8.868   2.066 126.702  0.00  0.00    +0.000 HD
ATOM     35  H   UNL     1      -3.845  -0.243 132.895  0.00  0.00    +0.000 HD
ENDROOT
BRANCH   1  36
ATOM     36  C   UNL     1      -8.241  -3.463 127.663  0.00  0.00    +0.000 C 
ATOM     37  C   UNL     1      -9.580  -4.069 128.111  0.00  0.00    +0.000 C 
BRANCH  36  39
ATOM     38  C   UNL     1      -9.426  -2.978 125.235  0.00  0.00    +0.000 C 
ATOM     39  C   UNL     1      -8.202  -3.245 126.112  0.00  0.00    +0.000 C 
ENDBRANCH  36  39
ENDBRANCH   1  36
BRANCH   5  40
ATOM     40  C   UNL     1      -5.999   0.946 125.347  0.00  0.00    +0.000 C 
BRANCH  40  41
ATOM     41  C   UNL     1      -6.115  -0.294 124.508  0.00  0.00    +0.000 A 
ATOM     42  C   UNL     1      -6.950  -0.455 123.401  0.00  0.00    +0.000 A 
ATOM     43  C   UNL     1      -7.001  -1.695 122.758  0.00  0.00    +0.000 A 
ATOM     44  C   UNL     1      -6.053  -2.668 123.040  0.00  0.00    +0.000 A 
ATOM     45  C   UNL     1      -5.195  -2.470 124.102  0.00  0.00    +0.000 A 
ATOM     46  C   UNL     1      -5.293  -1.342 124.884  0.00  0.00    +0.000 A 
ENDBRANCH  40  41
ENDBRANCH   5  40
BRANCH  16  47
ATOM     47  C   UNL     1      -3.674   3.732 131.113  0.00  0.00    +0.000 C 
BRANCH  47  48
ATOM     48  C   UNL     1      -2.702   4.815 131.547  0.00  0.00    +0.000 A 
ATOM     49  C   UNL     1      -1.821   4.719 132.634  0.00  0.00    +0.000 A 
ATOM     50  C   UNL     1      -0.867   5.730 132.854  0.00  0.00    +0.000 A 
ATOM     51  C   UNL     1      -0.616   6.690 131.880  0.00  0.00    +0.000 A 
ATOM     52  C   UNL     1      -1.506   6.809 130.827  0.00  0.00    +0.000 A 
ATOM     53  C   UNL     1      -2.650   5.985 130.773  0.00  0.00    +0.000 A 
ENDBRANCH  47  48
ENDBRANCH  16  47
BRANCH  21  54
ATOM     54  C   UNL     1      -6.268   0.654 134.616  0.00  0.00    +0.000 C 
BRANCH  54  55
ATOM     55  C   UNL     1      -5.272   0.327 135.694  0.00  0.00    +0.000 C 
BRANCH  55  56
ATOM     56  C   UNL     1      -5.586  -0.943 136.413  0.00  0.00    +0.000 C 
BRANCH  56  57
ATOM     57  N   UNL     1      -6.676  -1.577 135.696  0.00  0.00    +0.000 NA
ATOM     58  H   UNL     1      -7.481  -0.960 135.630  0.00  0.00    +0.000 HD
ATOM     59  H   UNL     1      -6.945  -2.439 136.151  0.00  0.00    +0.000 HD
ENDBRANCH  56  57
ENDBRANCH  55  56
ENDBRANCH  54  55
ENDBRANCH  21  54
TORSDOF 10
ENDMDL
