MODEL 1
REMARK VINA RESULT:      -8.3      0.000      0.000
REMARK  Name = CHEMBL549494
REMARK  8 active torsions:
REMARK  status: ('A' for Active; 'I' for Inactive)
REMARK    1  A    between atoms: C_1  and  O_2
REMARK    2  A    between atoms: O_2  and  C_3
REMARK    3  A    between atoms: C_6  and  N_7
REMARK    4  A    between atoms: C_8  and  C_9
REMARK    5  A    between atoms: C_12  and  C_13
REMARK    6  A    between atoms: C_16  and  O_17
REMARK    7  A    between atoms: O_17  and  C_18
REMARK    8  A    between atoms: C_24  and  C_25
REMARK                            x       y       z     vdW  Elec       q    Type
REMARK                         _______ _______ _______ _____ _____    ______ ____
ROOT
ATOM      1  C   UNL     1      -6.553   5.613 131.398  0.00  0.00    +0.000 A 
ATOM      2  C   UNL     1      -7.049   6.848 130.991  0.00  0.00    +0.000 A 
ATOM      3  N   UNL     1      -8.235   6.990 130.356  0.00  0.00    +0.000 NA
ATOM      4  C   UNL     1      -8.886   5.844 130.047  0.00  0.00    +0.000 A 
ATOM      5  C   UNL     1      -8.381   4.605 130.427  0.00  0.00    +0.000 A 
ATOM      6  N   UNL     1      -7.221   4.463 131.127  0.00  0.00    +0.000 NA
ENDROOT
BRANCH   1  12
ATOM      7  N   UNL     1      -4.106   4.994 131.671  0.00  0.00    +0.000 N 
ATOM      8  C   UNL     1      -3.275   4.916 132.788  0.00  0.00    +0.000 A 
ATOM      9  C   UNL     1      -1.840   4.539 132.870  0.00  0.00    +0.000 C 
ATOM     10  N   UNL     1      -3.934   5.370 133.840  0.00  0.00    +0.000 NA
ATOM     11  N   UNL     1      -5.186   5.737 133.452  0.00  0.00    +0.000 NA
ATOM     12  C   UNL     1      -5.314   5.498 132.157  0.00  0.00    +0.000 A 
BRANCH   7  16
ATOM     13  C   UNL     1      -3.074   3.987 127.740  0.00  0.00    +0.000 A 
ATOM     14  C   UNL     1      -3.584   2.998 128.566  0.00  0.00    +0.000 A 
ATOM     15  C   UNL     1      -3.961   3.338 129.874  0.00  0.00    +0.000 A 
ATOM     16  C   UNL     1      -3.851   4.663 130.312  0.00  0.00    +0.000 A 
ATOM     17  C   UNL     1      -3.299   5.580 129.433  0.00  0.00    +0.000 A 
ATOM     18  N   UNL     1      -2.906   5.262 128.167  0.00  0.00    +0.000 NA
BRANCH  13  20
ATOM     19  C   UNL     1      -1.383   2.964 126.428  0.00  0.00    +0.000 C 
ATOM     20  O   UNL     1      -2.578   3.741 126.485  0.00  0.00    +0.000 OA
ENDBRANCH  13  20
ENDBRANCH   7  16
ENDBRANCH   1  12
BRANCH   4  21
ATOM     21  O   UNL     1     -10.051   5.876 129.286  0.00  0.00    +0.000 OA
BRANCH  21  22
ATOM     22  C   UNL     1     -11.050   6.724 129.728  0.00  0.00    +0.000 A 
ATOM     23  C   UNL     1     -11.722   6.357 130.904  0.00  0.00    +0.000 A 
ATOM     24  C   UNL     1     -12.697   7.196 131.447  0.00  0.00    +0.000 A 
ATOM     25  C   UNL     1     -13.007   8.395 130.811  0.00  0.00    +0.000 A 
ATOM     26  C   UNL     1     -12.379   8.720 129.611  0.00  0.00    +0.000 A 
ATOM     27  F   UNL     1     -12.716   9.874 129.011  0.00  0.00    +0.000 F 
ATOM     28  C   UNL     1     -11.420   7.887 129.027  0.00  0.00    +0.000 A 
ATOM     29  C   UNL     1     -10.840   8.241 127.690  0.00  0.00    +0.000 C 
ENDBRANCH  21  22
ENDBRANCH   4  21
TORSDOF 5
ENDMDL
MODEL 2
REMARK VINA RESULT:      -8.2      7.397      9.476
REMARK  Name = CHEMBL549494
REMARK  8 active torsions:
REMARK  status: ('A' for Active; 'I' for Inactive)
REMARK    1  A    between atoms: C_1  and  O_2
REMARK    2  A    between atoms: O_2  and  C_3
REMARK    3  A    between atoms: C_6  and  N_7
REMARK    4  A    between atoms: C_8  and  C_9
REMARK    5  A    between atoms: C_12  and  C_13
REMARK    6  A    between atoms: C_16  and  O_17
REMARK    7  A    between atoms: O_17  and  C_18
REMARK    8  A    between atoms: C_24  and  C_25
REMARK                            x       y       z     vdW  Elec       q    Type
REMARK                         _______ _______ _______ _____ _____    ______ ____
ROOT
ATOM      1  C   UNL     1      -8.232  -0.036 124.843  0.00  0.00    +0.000 A 
ATOM      2  C   UNL     1      -8.730   1.227 125.149  0.00  0.00    +0.000 A 
ATOM      3  N   UNL     1      -8.321   2.351 124.516  0.00  0.00    +0.000 NA
ATOM      4  C   UNL     1      -7.321   2.197 123.617  0.00  0.00    +0.000 A 
ATOM      5  C   UNL     1      -6.800   0.941 123.328  0.00  0.00    +0.000 A 
ATOM      6  N   UNL     1      -7.256  -0.201 123.914  0.00  0.00    +0.000 NA
ENDROOT
BRANCH   1  12
ATOM      7  N   UNL     1      -8.251  -1.825 126.645  0.00  0.00    +0.000 N 
ATOM      8  C   UNL     1      -8.941  -3.029 126.767  0.00  0.00    +0.000 A 
ATOM      9  C   UNL     1      -8.897  -4.035 127.860  0.00  0.00    +0.000 C 
ATOM     10  N   UNL     1      -9.802  -3.127 125.769  0.00  0.00    +0.000 NA
ATOM     11  N   UNL     1      -9.694  -2.021 124.982  0.00  0.00    +0.000 NA
ATOM     12  C   UNL     1      -8.752  -1.239 125.481  0.00  0.00    +0.000 A 
BRANCH   7  16
ATOM     13  C   UNL     1      -5.415  -0.299 129.322  0.00  0.00    +0.000 A 
ATOM     14  C   UNL     1      -5.033  -1.309 128.455  0.00  0.00    +0.000 A 
ATOM     15  C   UNL     1      -5.970  -1.802 127.535  0.00  0.00    +0.000 A 
ATOM     16  C   UNL     1      -7.255  -1.249 127.481  0.00  0.00    +0.000 A 
ATOM     17  C   UNL     1      -7.563  -0.266 128.407  0.00  0.00    +0.000 A 
ATOM     18  N   UNL     1      -6.672   0.207 129.323  0.00  0.00    +0.000 NA
BRANCH  13  20
ATOM     19  C   UNL     1      -4.889   1.504 130.772  0.00  0.00    +0.000 C 
ATOM     20  O   UNL     1      -4.613   0.177 130.328  0.00  0.00    +0.000 OA
ENDBRANCH  13  20
ENDBRANCH   7  16
ENDBRANCH   1  12
BRANCH   4  21
ATOM     21  O   UNL     1      -6.746   3.307 123.003  0.00  0.00    +0.000 OA
BRANCH  21  22
ATOM     22  C   UNL     1      -7.201   3.610 121.733  0.00  0.00    +0.000 A 
ATOM     23  C   UNL     1      -8.569   3.423 121.486  0.00  0.00    +0.000 A 
ATOM     24  C   UNL     1      -9.113   3.769 120.247  0.00  0.00    +0.000 A 
ATOM     25  C   UNL     1      -8.289   4.293 119.255  0.00  0.00    +0.000 A 
ATOM     26  C   UNL     1      -6.921   4.415 119.489  0.00  0.00    +0.000 A 
ATOM     27  F   UNL     1      -6.151   4.903 118.503  0.00  0.00    +0.000 F 
ATOM     28  C   UNL     1      -6.343   4.049 120.707  0.00  0.00    +0.000 A 
ATOM     29  C   UNL     1      -4.854   4.118 120.876  0.00  0.00    +0.000 C 
ENDBRANCH  21  22
ENDBRANCH   4  21
TORSDOF 5
ENDMDL
MODEL 3
REMARK VINA RESULT:      -8.2      5.555      7.379
REMARK  Name = CHEMBL549494
REMARK  8 active torsions:
REMARK  status: ('A' for Active; 'I' for Inactive)
REMARK    1  A    between atoms: C_1  and  O_2
REMARK    2  A    between atoms: O_2  and  C_3
REMARK    3  A    between atoms: C_6  and  N_7
REMARK    4  A    between atoms: C_8  and  C_9
REMARK    5  A    between atoms: C_12  and  C_13
REMARK    6  A    between atoms: C_16  and  O_17
REMARK    7  A    between atoms: O_17  and  C_18
REMARK    8  A    between atoms: C_24  and  C_25
REMARK                            x       y       z     vdW  Elec       q    Type
REMARK                         _______ _______ _______ _____ _____    ______ ____
ROOT
ATOM      1  C   UNL     1      -6.797   3.857 125.620  0.00  0.00    +0.000 A 
ATOM      2  C   UNL     1      -7.908   4.534 126.117  0.00  0.00    +0.000 A 
ATOM      3  N   UNL     1      -8.288   4.469 127.414  0.00  0.00    +0.000 NA
ATOM      4  C   UNL     1      -7.578   3.627 128.201  0.00  0.00    +0.000 A 
ATOM      5  C   UNL     1      -6.484   2.927 127.703  0.00  0.00    +0.000 A 
ATOM      6  N   UNL     1      -6.058   3.043 126.415  0.00  0.00    +0.000 NA
ENDROOT
BRANCH   1  12
ATOM      7  N   UNL     1      -6.589   3.104 123.205  0.00  0.00    +0.000 N 
ATOM      8  C   UNL     1      -5.846   3.587 122.130  0.00  0.00    +0.000 A 
ATOM      9  C   UNL     1      -5.772   3.086 120.733  0.00  0.00    +0.000 C 
ATOM     10  N   UNL     1      -5.253   4.711 122.495  0.00  0.00    +0.000 NA
ATOM     11  N   UNL     1      -5.577   4.980 123.790  0.00  0.00    +0.000 NA
ATOM     12  C   UNL     1      -6.361   4.014 124.239  0.00  0.00    +0.000 A 
BRANCH   7  16
ATOM     13  C   UNL     1      -9.027  -0.302 123.200  0.00  0.00    +0.000 A 
ATOM     14  C   UNL     1      -7.679  -0.451 123.484  0.00  0.00    +0.000 A 
ATOM     15  C   UNL     1      -6.864   0.691 123.518  0.00  0.00    +0.000 A 
ATOM     16  C   UNL     1      -7.423   1.956 123.302  0.00  0.00    +0.000 A 
ATOM     17  C   UNL     1      -8.772   2.011 122.992  0.00  0.00    +0.000 A 
ATOM     18  N   UNL     1      -9.573   0.909 122.931  0.00  0.00    +0.000 NA
BRANCH  13  20
ATOM     19  C   UNL     1      -9.355  -2.647 123.342  0.00  0.00    +0.000 C 
ATOM     20  O   UNL     1      -9.885  -1.358 123.037  0.00  0.00    +0.000 OA
ENDBRANCH  13  20
ENDBRANCH   7  16
ENDBRANCH   1  12
BRANCH   4  21
ATOM     21  O   UNL     1      -7.965   3.395 129.518  0.00  0.00    +0.000 OA
BRANCH  21  22
ATOM     22  C   UNL     1      -8.514   4.469 130.194  0.00  0.00    +0.000 A 
ATOM     23  C   UNL     1      -7.653   5.530 130.510  0.00  0.00    +0.000 A 
ATOM     24  C   UNL     1      -8.149   6.676 131.135  0.00  0.00    +0.000 A 
ATOM     25  C   UNL     1      -9.504   6.757 131.450  0.00  0.00    +0.000 A 
ATOM     26  C   UNL     1     -10.338   5.673 131.189  0.00  0.00    +0.000 A 
ATOM     27  F   UNL     1     -11.634   5.775 131.525  0.00  0.00    +0.000 F 
ATOM     28  C   UNL     1      -9.864   4.501 130.593  0.00  0.00    +0.000 A 
ATOM     29  C   UNL     1     -10.785   3.331 130.415  0.00  0.00    +0.000 C 
ENDBRANCH  21  22
ENDBRANCH   4  21
TORSDOF 5
ENDMDL
MODEL 4
REMARK VINA RESULT:      -8.2      7.262      9.151
REMARK  Name = CHEMBL549494
REMARK  8 active torsions:
REMARK  status: ('A' for Active; 'I' for Inactive)
REMARK    1  A    between atoms: C_1  and  O_2
REMARK    2  A    between atoms: O_2  and  C_3
REMARK    3  A    between atoms: C_6  and  N_7
REMARK    4  A    between atoms: C_8  and  C_9
REMARK    5  A    between atoms: C_12  and  C_13
REMARK    6  A    between atoms: C_16  and  O_17
REMARK    7  A    between atoms: O_17  and  C_18
REMARK    8  A    between atoms: C_24  and  C_25
REMARK                            x       y       z     vdW  Elec       q    Type
REMARK                         _______ _______ _______ _____ _____    ______ ____
ROOT
ATOM      1  C   UNL     1      -9.080  -0.348 124.940  0.00  0.00    +0.000 A 
ATOM      2  C   UNL     1      -8.372  -0.358 123.742  0.00  0.00    +0.000 A 
ATOM      3  N   UNL     1      -8.324   0.707 122.908  0.00  0.00    +0.000 NA
ATOM      4  C   UNL     1      -9.086   1.770 123.256  0.00  0.00    +0.000 A 
ATOM      5  C   UNL     1      -9.818   1.775 124.438  0.00  0.00    +0.000 A 
ATOM      6  N   UNL     1      -9.814   0.731 125.313  0.00  0.00    +0.000 NA
ENDROOT
BRANCH   1  12
ATOM      7  N   UNL     1      -8.211  -1.594 126.974  0.00  0.00    +0.000 N 
ATOM      8  C   UNL     1      -8.403  -2.896 127.432  0.00  0.00    +0.000 A 
ATOM      9  C   UNL     1      -7.853  -3.561 128.641  0.00  0.00    +0.000 C 
ATOM     10  N   UNL     1      -9.304  -3.486 126.665  0.00  0.00    +0.000 NA
ATOM     11  N   UNL     1      -9.707  -2.611 125.703  0.00  0.00    +0.000 NA
ATOM     12  C   UNL     1      -9.044  -1.477 125.860  0.00  0.00    +0.000 A 
BRANCH   7  16
ATOM     13  C   UNL     1      -5.830   1.617 128.224  0.00  0.00    +0.000 A 
ATOM     14  C   UNL     1      -7.102   1.485 128.760  0.00  0.00    +0.000 A 
ATOM     15  C   UNL     1      -7.891   0.393 128.368  0.00  0.00    +0.000 A 
ATOM     16  C   UNL     1      -7.378  -0.557 127.478  0.00  0.00    +0.000 A 
ATOM     17  C   UNL     1      -6.111  -0.330 126.965  0.00  0.00    +0.000 A 
ATOM     18  N   UNL     1      -5.341   0.738 127.317  0.00  0.00    +0.000 NA
BRANCH  13  20
ATOM     19  C   UNL     1      -3.948   2.886 127.538  0.00  0.00    +0.000 C 
ATOM     20  O   UNL     1      -5.022   2.699 128.457  0.00  0.00    +0.000 OA
ENDBRANCH  13  20
ENDBRANCH   7  16
ENDBRANCH   1  12
BRANCH   4  21
ATOM     21  O   UNL     1      -9.203   2.865 122.403  0.00  0.00    +0.000 OA
BRANCH  21  22
ATOM     22  C   UNL     1      -8.025   3.353 121.867  0.00  0.00    +0.000 A 
ATOM     23  C   UNL     1      -6.900   3.364 122.704  0.00  0.00    +0.000 A 
ATOM     24  C   UNL     1      -5.662   3.782 122.213  0.00  0.00    +0.000 A 
ATOM     25  C   UNL     1      -5.550   4.196 120.888  0.00  0.00    +0.000 A 
ATOM     26  C   UNL     1      -6.686   4.240 120.083  0.00  0.00    +0.000 A 
ATOM     27  F   UNL     1      -6.548   4.666 118.817  0.00  0.00    +0.000 F 
ATOM     28  C   UNL     1      -7.944   3.858 120.556  0.00  0.00    +0.000 A 
ATOM     29  C   UNL     1      -9.149   4.009 119.674  0.00  0.00    +0.000 C 
ENDBRANCH  21  22
ENDBRANCH   4  21
TORSDOF 5
ENDMDL
MODEL 5
REMARK VINA RESULT:      -7.9      2.768      3.800
REMARK  Name = CHEMBL549494
REMARK  8 active torsions:
REMARK  status: ('A' for Active; 'I' for Inactive)
REMARK    1  A    between atoms: C_1  and  O_2
REMARK    2  A    between atoms: O_2  and  C_3
REMARK    3  A    between atoms: C_6  and  N_7
REMARK    4  A    between atoms: C_8  and  C_9
REMARK    5  A    between atoms: C_12  and  C_13
REMARK    6  A    between atoms: C_16  and  O_17
REMARK    7  A    between atoms: O_17  and  C_18
REMARK    8  A    between atoms: C_24  and  C_25
REMARK                            x       y       z     vdW  Elec       q    Type
REMARK                         _______ _______ _______ _____ _____    ______ ____
ROOT
ATOM      1  C   UNL     1      -6.742   4.538 129.194  0.00  0.00    +0.000 A 
ATOM      2  C   UNL     1      -7.689   3.656 128.682  0.00  0.00    +0.000 A 
ATOM      3  N   UNL     1      -9.021   3.873 128.774  0.00  0.00    +0.000 NA
ATOM      4  C   UNL     1      -9.399   4.964 129.481  0.00  0.00    +0.000 A 
ATOM      5  C   UNL     1      -8.457   5.835 130.018  0.00  0.00    +0.000 A 
ATOM      6  N   UNL     1      -7.115   5.655 129.868  0.00  0.00    +0.000 NA
ENDROOT
BRANCH   1  12
ATOM      7  N   UNL     1      -4.698   3.947 127.810  0.00  0.00    +0.000 N 
ATOM      8  C   UNL     1      -3.371   3.692 128.153  0.00  0.00    +0.000 A 
ATOM      9  C   UNL     1      -2.221   3.346 127.280  0.00  0.00    +0.000 C 
ATOM     10  N   UNL     1      -3.214   3.931 129.444  0.00  0.00    +0.000 NA
ATOM     11  N   UNL     1      -4.406   4.329 129.968  0.00  0.00    +0.000 NA
ATOM     12  C   UNL     1      -5.314   4.322 129.005  0.00  0.00    +0.000 A 
BRANCH   7  16
ATOM     13  C   UNL     1      -6.355   3.742 123.969  0.00  0.00    +0.000 A 
ATOM     14  C   UNL     1      -6.157   2.563 124.671  0.00  0.00    +0.000 A 
ATOM     15  C   UNL     1      -5.632   2.629 125.970  0.00  0.00    +0.000 A 
ATOM     16  C   UNL     1      -5.350   3.872 126.548  0.00  0.00    +0.000 A 
ATOM     17  C   UNL     1      -5.545   4.997 125.764  0.00  0.00    +0.000 A 
ATOM     18  N   UNL     1      -6.032   4.949 124.492  0.00  0.00    +0.000 NA
BRANCH  13  20
ATOM     19  C   UNL     1      -5.732   3.990 121.694  0.00  0.00    +0.000 C 
ATOM     20  O   UNL     1      -6.760   3.782 122.660  0.00  0.00    +0.000 OA
ENDBRANCH  13  20
ENDBRANCH   7  16
ENDBRANCH   1  12
BRANCH   4  21
ATOM     21  O   UNL     1     -10.745   5.208 129.738  0.00  0.00    +0.000 OA
BRANCH  21  22
ATOM     22  C   UNL     1     -11.210   6.474 129.428  0.00  0.00    +0.000 A 
ATOM     23  C   UNL     1     -10.926   6.959 128.143  0.00  0.00    +0.000 A 
ATOM     24  C   UNL     1     -11.418   8.201 127.736  0.00  0.00    +0.000 A 
ATOM     25  C   UNL     1     -12.184   8.961 128.617  0.00  0.00    +0.000 A 
ATOM     26  C   UNL     1     -12.407   8.498 129.911  0.00  0.00    +0.000 A 
ATOM     27  F   UNL     1     -13.131   9.264 130.743  0.00  0.00    +0.000 F 
ATOM     28  C   UNL     1     -11.903   7.273 130.357  0.00  0.00    +0.000 A 
ATOM     29  C   UNL     1     -12.096   6.863 131.787  0.00  0.00    +0.000 C 
ENDBRANCH  21  22
ENDBRANCH   4  21
TORSDOF 5
ENDMDL
MODEL 6
REMARK VINA RESULT:      -7.8      4.523      5.843
REMARK  Name = CHEMBL549494
REMARK  8 active torsions:
REMARK  status: ('A' for Active; 'I' for Inactive)
REMARK    1  A    between atoms: C_1  and  O_2
REMARK    2  A    between atoms: O_2  and  C_3
REMARK    3  A    between atoms: C_6  and  N_7
REMARK    4  A    between atoms: C_8  and  C_9
REMARK    5  A    between atoms: C_12  and  C_13
REMARK    6  A    between atoms: C_16  and  O_17
REMARK    7  A    between atoms: O_17  and  C_18
REMARK    8  A    between atoms: C_24  and  C_25
REMARK                            x       y       z     vdW  Elec       q    Type
REMARK                         _______ _______ _______ _____ _____    ______ ____
ROOT
ATOM      1  C   UNL     1      -8.058   2.321 129.073  0.00  0.00    +0.000 A 
ATOM      2  C   UNL     1      -9.329   2.707 129.486  0.00  0.00    +0.000 A 
ATOM      3  N   UNL     1      -9.670   3.998 129.708  0.00  0.00    +0.000 NA
ATOM      4  C   UNL     1      -8.672   4.904 129.595  0.00  0.00    +0.000 A 
ATOM      5  C   UNL     1      -7.392   4.521 129.208  0.00  0.00    +0.000 A 
ATOM      6  N   UNL     1      -7.063   3.232 128.918  0.00  0.00    +0.000 NA
ENDROOT
BRANCH   1  12
ATOM      7  N   UNL     1      -7.953   0.310 127.527  0.00  0.00    +0.000 N 
ATOM      8  C   UNL     1      -7.671  -1.036 127.753  0.00  0.00    +0.000 A 
ATOM      9  C   UNL     1      -7.632  -2.166 126.790  0.00  0.00    +0.000 C 
ATOM     10  N   UNL     1      -7.295  -1.185 129.012  0.00  0.00    +0.000 NA
ATOM     11  N   UNL     1      -7.329   0.028 129.629  0.00  0.00    +0.000 NA
ATOM     12  C   UNL     1      -7.743   0.934 128.758  0.00  0.00    +0.000 A 
BRANCH   7  16
ATOM     13  C   UNL     1      -9.019   2.056 123.873  0.00  0.00    +0.000 A 
ATOM     14  C   UNL     1      -9.957   1.283 124.538  0.00  0.00    +0.000 A 
ATOM     15  C   UNL     1      -9.615   0.722 125.778  0.00  0.00    +0.000 A 
ATOM     16  C   UNL     1      -8.358   0.976 126.338  0.00  0.00    +0.000 A 
ATOM     17  C   UNL     1      -7.469   1.731 125.589  0.00  0.00    +0.000 A 
ATOM     18  N   UNL     1      -7.777   2.263 124.373  0.00  0.00    +0.000 NA
BRANCH  13  20
ATOM     19  C   UNL     1      -8.097   3.228 122.028  0.00  0.00    +0.000 C 
ATOM     20  O   UNL     1      -9.213   2.558 122.612  0.00  0.00    +0.000 OA
ENDBRANCH  13  20
ENDBRANCH   7  16
ENDBRANCH   1  12
BRANCH   4  21
ATOM     21  O   UNL     1      -8.889   6.240 129.922  0.00  0.00    +0.000 OA
BRANCH  21  22
ATOM     22  C   UNL     1     -10.161   6.730 129.689  0.00  0.00    +0.000 A 
ATOM     23  C   UNL     1     -10.426   7.228 128.404  0.00  0.00    +0.000 A 
ATOM     24  C   UNL     1     -11.706   7.679 128.075  0.00  0.00    +0.000 A 
ATOM     25  C   UNL     1     -12.717   7.640 129.031  0.00  0.00    +0.000 A 
ATOM     26  C   UNL     1     -12.428   7.202 130.322  0.00  0.00    +0.000 A 
ATOM     27  F   UNL     1     -13.421   7.198 131.226  0.00  0.00    +0.000 F 
ATOM     28  C   UNL     1     -11.150   6.774 130.689  0.00  0.00    +0.000 A 
ATOM     29  C   UNL     1     -10.872   6.397 132.114  0.00  0.00    +0.000 C 
ENDBRANCH  21  22
ENDBRANCH   4  21
TORSDOF 5
ENDMDL
MODEL 7
REMARK VINA RESULT:      -7.7      6.902      9.563
REMARK  Name = CHEMBL549494
REMARK  8 active torsions:
REMARK  status: ('A' for Active; 'I' for Inactive)
REMARK    1  A    between atoms: C_1  and  O_2
REMARK    2  A    between atoms: O_2  and  C_3
REMARK    3  A    between atoms: C_6  and  N_7
REMARK    4  A    between atoms: C_8  and  C_9
REMARK    5  A    between atoms: C_12  and  C_13
REMARK    6  A    between atoms: C_16  and  O_17
REMARK    7  A    between atoms: O_17  and  C_18
REMARK    8  A    between atoms: C_24  and  C_25
REMARK                            x       y       z     vdW  Elec       q    Type
REMARK                         _______ _______ _______ _____ _____    ______ ____
ROOT
ATOM      1  C   UNL     1      -6.216   2.409 126.372  0.00  0.00    +0.000 A 
ATOM      2  C   UNL     1      -7.195   2.638 127.334  0.00  0.00    +0.000 A 
ATOM      3  N   UNL     1      -7.158   2.081 128.566  0.00  0.00    +0.000 NA
ATOM      4  C   UNL     1      -6.155   1.202 128.793  0.00  0.00    +0.000 A 
ATOM      5  C   UNL     1      -5.189   0.948 127.825  0.00  0.00    +0.000 A 
ATOM      6  N   UNL     1      -5.184   1.559 126.608  0.00  0.00    +0.000 NA
ENDROOT
BRANCH   1  12
ATOM      7  N   UNL     1      -6.768   2.577 123.900  0.00  0.00    +0.000 N 
ATOM      8  C   UNL     1      -6.401   3.492 122.914  0.00  0.00    +0.000 A 
ATOM      9  C   UNL     1      -6.765   3.523 121.474  0.00  0.00    +0.000 C 
ATOM     10  N   UNL     1      -5.732   4.481 123.481  0.00  0.00    +0.000 NA
ATOM     11  N   UNL     1      -5.637   4.240 124.818  0.00  0.00    +0.000 NA
ATOM     12  C   UNL     1      -6.234   3.090 125.083  0.00  0.00    +0.000 A 
BRANCH   7  16
ATOM     13  C   UNL     1      -9.049  -0.889 123.335  0.00  0.00    +0.000 A 
ATOM     14  C   UNL     1      -7.673  -0.972 123.202  0.00  0.00    +0.000 A 
ATOM     15  C   UNL     1      -6.902   0.180 123.422  0.00  0.00    +0.000 A 
ATOM     16  C   UNL     1      -7.522   1.375 123.801  0.00  0.00    +0.000 A 
ATOM     17  C   UNL     1      -8.905   1.378 123.878  0.00  0.00    +0.000 A 
ATOM     18  N   UNL     1      -9.671   0.275 123.645  0.00  0.00    +0.000 NA
BRANCH  13  20
ATOM     19  C   UNL     1      -9.479  -3.219 123.463  0.00  0.00    +0.000 C 
ATOM     20  O   UNL     1      -9.900  -1.923 123.039  0.00  0.00    +0.000 OA
ENDBRANCH  13  20
ENDBRANCH   7  16
ENDBRANCH   1  12
BRANCH   4  21
ATOM     21  O   UNL     1      -6.100   0.483 129.984  0.00  0.00    +0.000 OA
BRANCH  21  22
ATOM     22  C   UNL     1      -6.354  -0.873 129.894  0.00  0.00    +0.000 A 
ATOM     23  C   UNL     1      -7.688  -1.259 129.695  0.00  0.00    +0.000 A 
ATOM     24  C   UNL     1      -8.013  -2.607 129.530  0.00  0.00    +0.000 A 
ATOM     25  C   UNL     1      -7.007  -3.569 129.573  0.00  0.00    +0.000 A 
ATOM     26  C   UNL     1      -5.695  -3.181 129.833  0.00  0.00    +0.000 A 
ATOM     27  F   UNL     1      -4.751  -4.135 129.889  0.00  0.00    +0.000 F 
ATOM     28  C   UNL     1      -5.344  -1.843 130.032  0.00  0.00    +0.000 A 
ATOM     29  C   UNL     1      -3.932  -1.489 130.397  0.00  0.00    +0.000 C 
ENDBRANCH  21  22
ENDBRANCH   4  21
TORSDOF 5
ENDMDL
MODEL 8
REMARK VINA RESULT:      -7.7      2.835      3.720
REMARK  Name = CHEMBL549494
REMARK  8 active torsions:
REMARK  status: ('A' for Active; 'I' for Inactive)
REMARK    1  A    between atoms: C_1  and  O_2
REMARK    2  A    between atoms: O_2  and  C_3
REMARK    3  A    between atoms: C_6  and  N_7
REMARK    4  A    between atoms: C_8  and  C_9
REMARK    5  A    between atoms: C_12  and  C_13
REMARK    6  A    between atoms: C_16  and  O_17
REMARK    7  A    between atoms: O_17  and  C_18
REMARK    8  A    between atoms: C_24  and  C_25
REMARK                            x       y       z     vdW  Elec       q    Type
REMARK                         _______ _______ _______ _____ _____    ______ ____
ROOT
ATOM      1  C   UNL     1      -9.185   4.003 132.147  0.00  0.00    +0.000 A 
ATOM      2  C   UNL     1     -10.011   3.833 131.041  0.00  0.00    +0.000 A 
ATOM      3  N   UNL     1     -10.863   4.790 130.606  0.00  0.00    +0.000 NA
ATOM      4  C   UNL     1     -10.941   5.908 131.365  0.00  0.00    +0.000 A 
ATOM      5  C   UNL     1     -10.137   6.072 132.488  0.00  0.00    +0.000 A 
ATOM      6  N   UNL     1      -9.230   5.139 132.890  0.00  0.00    +0.000 NA
ENDROOT
BRANCH   1  12
ATOM      7  N   UNL     1      -6.866   2.970 132.186  0.00  0.00    +0.000 N 
ATOM      8  C   UNL     1      -6.392   1.740 132.639  0.00  0.00    +0.000 A 
ATOM      9  C   UNL     1      -5.008   1.200 132.624  0.00  0.00    +0.000 C 
ATOM     10  N   UNL     1      -7.379   1.102 133.243  0.00  0.00    +0.000 NA
ATOM     11  N   UNL     1      -8.500   1.873 133.193  0.00  0.00    +0.000 NA
ATOM     12  C   UNL     1      -8.216   2.990 132.543  0.00  0.00    +0.000 A 
BRANCH   7  16
ATOM     13  C   UNL     1      -5.127   6.208 130.178  0.00  0.00    +0.000 A 
ATOM     14  C   UNL     1      -5.066   6.175 131.562  0.00  0.00    +0.000 A 
ATOM     15  C   UNL     1      -5.619   5.077 132.238  0.00  0.00    +0.000 A 
ATOM     16  C   UNL     1      -6.188   4.024 131.513  0.00  0.00    +0.000 A 
ATOM     17  C   UNL     1      -6.237   4.154 130.134  0.00  0.00    +0.000 A 
ATOM     18  N   UNL     1      -5.726   5.225 129.464  0.00  0.00    +0.000 NA
BRANCH  13  20
ATOM     19  C   UNL     1      -4.009   8.300 130.135  0.00  0.00    +0.000 C 
ATOM     20  O   UNL     1      -4.714   7.280 129.430  0.00  0.00    +0.000 OA
ENDBRANCH  13  20
ENDBRANCH   7  16
ENDBRANCH   1  12
BRANCH   4  21
ATOM     21  O   UNL     1     -11.875   6.897 131.073  0.00  0.00    +0.000 OA
BRANCH  21  22
ATOM     22  C   UNL     1     -12.153   7.103 129.734  0.00  0.00    +0.000 A 
ATOM     23  C   UNL     1     -13.427   6.729 129.283  0.00  0.00    +0.000 A 
ATOM     24  C   UNL     1     -13.802   6.966 127.959  0.00  0.00    +0.000 A 
ATOM     25  C   UNL     1     -12.900   7.568 127.084  0.00  0.00    +0.000 A 
ATOM     26  C   UNL     1     -11.616   7.878 127.525  0.00  0.00    +0.000 A 
ATOM     27  F   UNL     1     -10.763   8.437 126.652  0.00  0.00    +0.000 F 
ATOM     28  C   UNL     1     -11.202   7.625 128.836  0.00  0.00    +0.000 A 
ATOM     29  C   UNL     1      -9.782   7.895 129.234  0.00  0.00    +0.000 C 
ENDBRANCH  21  22
ENDBRANCH   4  21
TORSDOF 5
ENDMDL
MODEL 9
REMARK VINA RESULT:      -7.6      6.297      9.105
REMARK  Name = CHEMBL549494
REMARK  8 active torsions:
REMARK  status: ('A' for Active; 'I' for Inactive)
REMARK    1  A    between atoms: C_1  and  O_2
REMARK    2  A    between atoms: O_2  and  C_3
REMARK    3  A    between atoms: C_6  and  N_7
REMARK    4  A    between atoms: C_8  and  C_9
REMARK    5  A    between atoms: C_12  and  C_13
REMARK    6  A    between atoms: C_16  and  O_17
REMARK    7  A    between atoms: O_17  and  C_18
REMARK    8  A    between atoms: C_24  and  C_25
REMARK                            x       y       z     vdW  Elec       q    Type
REMARK                         _______ _______ _______ _____ _____    ______ ____
ROOT
ATOM      1  C   UNL     1      -7.157   1.555 126.033  0.00  0.00    +0.000 A 
ATOM      2  C   UNL     1      -7.239   1.171 127.368  0.00  0.00    +0.000 A 
ATOM      3  N   UNL     1      -6.259   1.424 128.267  0.00  0.00    +0.000 NA
ATOM      4  C   UNL     1      -5.135   1.997 127.776  0.00  0.00    +0.000 A 
ATOM      5  C   UNL     1      -5.037   2.358 126.437  0.00  0.00    +0.000 A 
ATOM      6  N   UNL     1      -6.048   2.166 125.544  0.00  0.00    +0.000 NA
ENDROOT
BRANCH   1  12
ATOM      7  N   UNL     1      -8.393   0.274 124.223  0.00  0.00    +0.000 N 
ATOM      8  C   UNL     1      -9.497   0.591 123.433  0.00  0.00    +0.000 A 
ATOM      9  C   UNL     1     -10.168  -0.216 122.382  0.00  0.00    +0.000 C 
ATOM     10  N   UNL     1      -9.995   1.744 123.845  0.00  0.00    +0.000 NA
ATOM     11  N   UNL     1      -9.243   2.206 124.881  0.00  0.00    +0.000 NA
ATOM     12  C   UNL     1      -8.263   1.346 125.107  0.00  0.00    +0.000 A 
BRANCH   7  16
ATOM     13  C   UNL     1      -6.110  -3.231 124.015  0.00  0.00    +0.000 A 
ATOM     14  C   UNL     1      -5.901  -2.245 123.064  0.00  0.00    +0.000 A 
ATOM     15  C   UNL     1      -6.640  -1.056 123.148  0.00  0.00    +0.000 A 
ATOM     16  C   UNL     1      -7.545  -0.868 124.199  0.00  0.00    +0.000 A 
ATOM     17  C   UNL     1      -7.717  -1.918 125.086  0.00  0.00    +0.000 A 
ATOM     18  N   UNL     1      -7.024  -3.089 125.005  0.00  0.00    +0.000 NA
BRANCH  13  20
ATOM     19  C   UNL     1      -4.158  -4.493 123.542  0.00  0.00    +0.000 C 
ATOM     20  O   UNL     1      -5.520  -4.468 123.962  0.00  0.00    +0.000 OA
ENDBRANCH  13  20
ENDBRANCH   7  16
ENDBRANCH   1  12
BRANCH   4  21
ATOM     21  O   UNL     1      -4.024   2.186 128.593  0.00  0.00    +0.000 OA
BRANCH  21  22
ATOM     22  C   UNL     1      -3.805   3.474 129.044  0.00  0.00    +0.000 A 
ATOM     23  C   UNL     1      -4.593   3.916 130.117  0.00  0.00    +0.000 A 
ATOM     24  C   UNL     1      -4.384   5.182 130.668  0.00  0.00    +0.000 A 
ATOM     25  C   UNL     1      -3.395   6.009 130.141  0.00  0.00    +0.000 A 
ATOM     26  C   UNL     1      -2.661   5.585 129.036  0.00  0.00    +0.000 A 
ATOM     27  F   UNL     1      -1.729   6.415 128.538  0.00  0.00    +0.000 F 
ATOM     28  C   UNL     1      -2.868   4.337 128.444  0.00  0.00    +0.000 A 
ATOM     29  C   UNL     1      -2.112   3.966 127.202  0.00  0.00    +0.000 C 
ENDBRANCH  21  22
ENDBRANCH   4  21
TORSDOF 5
ENDMDL
