MODEL 1
REMARK VINA RESULT:      -7.5      0.000      0.000
REMARK  Name = CHEMBL589128
REMARK  9 active torsions:
REMARK  status: ('A' for Active; 'I' for Inactive)
REMARK    1  A    between atoms: C_1  and  O_2
REMARK    2  A    between atoms: O_2  and  C_3
REMARK    3  A    between atoms: C_3  and  C_4
REMARK    4  A    between atoms: C_10  and  O_11
REMARK    5  A    between atoms: O_11  and  C_12
REMARK    6  A    between atoms: C_18  and  C_19
REMARK    7  A    between atoms: N_21  and  C_22
REMARK    8  A    between atoms: C_25  and  O_26
REMARK    9  A    between atoms: O_26  and  C_27
REMARK                            x       y       z     vdW  Elec       q    Type
REMARK                         _______ _______ _______ _____ _____    ______ ____
ROOT
ATOM      1  C   UNL     1      -9.413   5.704 130.010  0.00  0.00    +0.000 A 
ATOM      2  N   UNL     1      -9.496   6.223 128.794  0.00  0.00    +0.000 NA
ATOM      3  N   UNL     1      -8.963   5.318 127.881  0.00  0.00    +0.000 NA
ATOM      4  C   UNL     1      -8.588   4.227 128.533  0.00  0.00    +0.000 A 
ATOM      5  N   UNL     1      -8.070   3.050 128.110  0.00  0.00    +0.000 N 
ATOM      6  C   UNL     1      -7.107   2.619 127.156  0.00  0.00    +0.000 C 
ATOM      7  C   UNL     1      -7.973   1.331 126.928  0.00  0.00    +0.000 C 
ATOM      8  C   UNL     1      -8.548   1.723 128.323  0.00  0.00    +0.000 C 
ATOM      9  N   UNL     1      -8.863   4.444 129.882  0.00  0.00    +0.000 N 
ENDROOT
BRANCH   9  10
ATOM     10  C   UNL     1      -8.511   3.576 130.921  0.00  0.00    +0.000 A 
ATOM     11  C   UNL     1      -9.464   2.734 131.464  0.00  0.00    +0.000 A 
ATOM     12  C   UNL     1      -9.063   1.834 132.433  0.00  0.00    +0.000 A 
ATOM     13  C   UNL     1      -7.720   1.784 132.792  0.00  0.00    +0.000 A 
ATOM     14  N   UNL     1      -6.782   2.594 132.253  0.00  0.00    +0.000 NA
ATOM     15  C   UNL     1      -7.192   3.482 131.328  0.00  0.00    +0.000 A 
BRANCH  13  16
ATOM     16  O   UNL     1      -7.204   0.909 133.705  0.00  0.00    +0.000 OA
ATOM     17  C   UNL     1      -6.000   1.322 134.334  0.00  0.00    +0.000 C 
ENDBRANCH  13  16
ENDBRANCH   9  10
BRANCH   1  18
ATOM     18  C   UNL     1      -9.612   6.431 131.322  0.00  0.00    +0.000 C 
BRANCH  18  20
ATOM     19  C   UNL     1     -11.978   6.721 131.463  0.00  0.00    +0.000 C 
ATOM     20  O   UNL     1     -10.836   6.005 131.928  0.00  0.00    +0.000 OA
ENDBRANCH  18  20
ENDBRANCH   1  18
BRANCH   7  21
ATOM     21  O   UNL     1      -8.810   1.353 125.731  0.00  0.00    +0.000 OA
BRANCH  21  22
ATOM     22  C   UNL     1      -9.063   0.185 125.031  0.00  0.00    +0.000 A 
ATOM     23  C   UNL     1      -8.860  -1.030 125.707  0.00  0.00    +0.000 A 
ATOM     24  C   UNL     1      -8.877  -2.250 125.007  0.00  0.00    +0.000 A 
ATOM     25  C   UNL     1      -9.057  -2.249 123.631  0.00  0.00    +0.000 A 
ATOM     26  F   UNL     1      -9.019  -3.395 122.939  0.00  0.00    +0.000 F 
ATOM     27  C   UNL     1      -9.273  -1.067 122.956  0.00  0.00    +0.000 A 
ATOM     28  C   UNL     1      -9.297   0.152 123.647  0.00  0.00    +0.000 A 
ATOM     29  C   UNL     1      -9.565   1.356 122.823  0.00  0.00    +0.000 C 
ENDBRANCH  21  22
ENDBRANCH   7  21
TORSDOF 6
ENDMDL
MODEL 2
REMARK VINA RESULT:      -7.5      4.524      6.943
REMARK  Name = CHEMBL589128
REMARK  9 active torsions:
REMARK  status: ('A' for Active; 'I' for Inactive)
REMARK    1  A    between atoms: C_1  and  O_2
REMARK    2  A    between atoms: O_2  and  C_3
REMARK    3  A    between atoms: C_3  and  C_4
REMARK    4  A    between atoms: C_10  and  O_11
REMARK    5  A    between atoms: O_11  and  C_12
REMARK    6  A    between atoms: C_18  and  C_19
REMARK    7  A    between atoms: N_21  and  C_22
REMARK    8  A    between atoms: C_25  and  O_26
REMARK    9  A    between atoms: O_26  and  C_27
REMARK                            x       y       z     vdW  Elec       q    Type
REMARK                         _______ _______ _______ _____ _____    ______ ____
ROOT
ATOM      1  C   UNL     1      -6.930  -1.404 126.188  0.00  0.00    +0.000 A 
ATOM      2  N   UNL     1      -7.063  -1.966 124.997  0.00  0.00    +0.000 NA
ATOM      3  N   UNL     1      -7.445  -0.991 124.080  0.00  0.00    +0.000 NA
ATOM      4  C   UNL     1      -7.510   0.176 124.702  0.00  0.00    +0.000 A 
ATOM      5  N   UNL     1      -7.778   1.427 124.259  0.00  0.00    +0.000 N 
ATOM      6  C   UNL     1      -8.689   2.038 123.353  0.00  0.00    +0.000 C 
ATOM      7  C   UNL     1      -7.572   3.084 123.004  0.00  0.00    +0.000 C 
ATOM      8  C   UNL     1      -6.995   2.614 124.373  0.00  0.00    +0.000 C 
ATOM      9  N   UNL     1      -7.187  -0.055 126.038  0.00  0.00    +0.000 N 
ENDROOT
BRANCH   9  10
ATOM     10  C   UNL     1      -7.251   0.902 127.055  0.00  0.00    +0.000 A 
ATOM     11  C   UNL     1      -8.469   1.216 127.627  0.00  0.00    +0.000 A 
ATOM     12  C   UNL     1      -8.484   2.107 128.683  0.00  0.00    +0.000 A 
ATOM     13  C   UNL     1      -7.279   2.619 129.150  0.00  0.00    +0.000 A 
ATOM     14  N   UNL     1      -6.083   2.303 128.605  0.00  0.00    +0.000 NA
ATOM     15  C   UNL     1      -6.086   1.453 127.561  0.00  0.00    +0.000 A 
BRANCH  13  16
ATOM     16  O   UNL     1      -7.169   3.472 130.211  0.00  0.00    +0.000 OA
ATOM     17  C   UNL     1      -5.872   3.576 130.780  0.00  0.00    +0.000 C 
ENDBRANCH  13  16
ENDBRANCH   9  10
BRANCH   1  18
ATOM     18  C   UNL     1      -6.801  -2.115 127.518  0.00  0.00    +0.000 C 
BRANCH  18  20
ATOM     19  C   UNL     1      -8.150  -3.045 129.255  0.00  0.00    +0.000 C 
ATOM     20  O   UNL     1      -8.058  -2.697 127.876  0.00  0.00    +0.000 OA
ENDBRANCH  18  20
ENDBRANCH   1  18
BRANCH   7  21
ATOM     21  O   UNL     1      -6.858   2.832 121.755  0.00  0.00    +0.000 OA
BRANCH  21  22
ATOM     22  C   UNL     1      -6.653   3.856 120.846  0.00  0.00    +0.000 A 
ATOM     23  C   UNL     1      -7.566   3.971 119.783  0.00  0.00    +0.000 A 
ATOM     24  C   UNL     1      -7.302   4.834 118.705  0.00  0.00    +0.000 A 
ATOM     25  C   UNL     1      -6.114   5.549 118.671  0.00  0.00    +0.000 A 
ATOM     26  F   UNL     1      -5.820   6.332 117.625  0.00  0.00    +0.000 F 
ATOM     27  C   UNL     1      -5.216   5.460 119.713  0.00  0.00    +0.000 A 
ATOM     28  C   UNL     1      -5.484   4.633 120.812  0.00  0.00    +0.000 A 
ATOM     29  C   UNL     1      -4.460   4.636 121.886  0.00  0.00    +0.000 C 
ENDBRANCH  21  22
ENDBRANCH   7  21
TORSDOF 6
ENDMDL
MODEL 3
REMARK VINA RESULT:      -7.5      4.750      7.602
REMARK  Name = CHEMBL589128
REMARK  9 active torsions:
REMARK  status: ('A' for Active; 'I' for Inactive)
REMARK    1  A    between atoms: C_1  and  O_2
REMARK    2  A    between atoms: O_2  and  C_3
REMARK    3  A    between atoms: C_3  and  C_4
REMARK    4  A    between atoms: C_10  and  O_11
REMARK    5  A    between atoms: O_11  and  C_12
REMARK    6  A    between atoms: C_18  and  C_19
REMARK    7  A    between atoms: N_21  and  C_22
REMARK    8  A    between atoms: C_25  and  O_26
REMARK    9  A    between atoms: O_26  and  C_27
REMARK                            x       y       z     vdW  Elec       q    Type
REMARK                         _______ _______ _______ _____ _____    ______ ____
ROOT
ATOM      1  C   UNL     1      -8.145   3.047 125.569  0.00  0.00    +0.000 A 
ATOM      2  N   UNL     1      -8.567   2.231 126.524  0.00  0.00    +0.000 NA
ATOM      3  N   UNL     1      -8.734   0.959 125.985  0.00  0.00    +0.000 NA
ATOM      4  C   UNL     1      -8.379   0.987 124.709  0.00  0.00    +0.000 A 
ATOM      5  N   UNL     1      -8.304   0.017 123.767  0.00  0.00    +0.000 N 
ATOM      6  C   UNL     1      -9.081  -1.104 123.363  0.00  0.00    +0.000 C 
ATOM      7  C   UNL     1      -7.745  -1.839 122.989  0.00  0.00    +0.000 C 
ATOM      8  C   UNL     1      -7.193  -0.381 122.965  0.00  0.00    +0.000 C 
ATOM      9  N   UNL     1      -8.000   2.296 124.420  0.00  0.00    +0.000 N 
ENDROOT
BRANCH   9  10
ATOM     10  C   UNL     1      -7.664   2.770 123.148  0.00  0.00    +0.000 A 
ATOM     11  C   UNL     1      -8.661   3.023 122.224  0.00  0.00    +0.000 A 
ATOM     12  C   UNL     1      -8.300   3.566 121.006  0.00  0.00    +0.000 A 
ATOM     13  C   UNL     1      -6.963   3.871 120.774  0.00  0.00    +0.000 A 
ATOM     14  N   UNL     1      -5.986   3.641 121.680  0.00  0.00    +0.000 NA
ATOM     15  C   UNL     1      -6.350   3.089 122.853  0.00  0.00    +0.000 A 
BRANCH  13  16
ATOM     16  O   UNL     1      -6.498   4.448 119.627  0.00  0.00    +0.000 OA
ATOM     17  C   UNL     1      -5.340   5.257 119.776  0.00  0.00    +0.000 C 
ENDBRANCH  13  16
ENDBRANCH   9  10
BRANCH   1  18
ATOM     18  C   UNL     1      -8.095   4.559 125.625  0.00  0.00    +0.000 C 
BRANCH  18  20
ATOM     19  C   UNL     1      -5.769   4.618 126.165  0.00  0.00    +0.000 C 
ATOM     20  O   UNL     1      -7.092   4.973 126.559  0.00  0.00    +0.000 OA
ENDBRANCH  18  20
ENDBRANCH   1  18
BRANCH   7  21
ATOM     21  O   UNL     1      -7.277  -2.810 123.975  0.00  0.00    +0.000 OA
BRANCH  21  22
ATOM     22  C   UNL     1      -7.084  -2.433 125.293  0.00  0.00    +0.000 A 
ATOM     23  C   UNL     1      -5.811  -1.953 125.648  0.00  0.00    +0.000 A 
ATOM     24  C   UNL     1      -5.470  -1.764 126.999  0.00  0.00    +0.000 A 
ATOM     25  C   UNL     1      -6.383  -2.090 127.991  0.00  0.00    +0.000 A 
ATOM     26  F   UNL     1      -6.056  -1.971 129.284  0.00  0.00    +0.000 F 
ATOM     27  C   UNL     1      -7.642  -2.547 127.658  0.00  0.00    +0.000 A 
ATOM     28  C   UNL     1      -8.008  -2.703 126.315  0.00  0.00    +0.000 A 
ATOM     29  C   UNL     1      -9.394  -3.174 126.075  0.00  0.00    +0.000 C 
ENDBRANCH  21  22
ENDBRANCH   7  21
TORSDOF 6
ENDMDL
MODEL 4
REMARK VINA RESULT:      -7.4      5.361      9.364
REMARK  Name = CHEMBL589128
REMARK  9 active torsions:
REMARK  status: ('A' for Active; 'I' for Inactive)
REMARK    1  A    between atoms: C_1  and  O_2
REMARK    2  A    between atoms: O_2  and  C_3
REMARK    3  A    between atoms: C_3  and  C_4
REMARK    4  A    between atoms: C_10  and  O_11
REMARK    5  A    between atoms: O_11  and  C_12
REMARK    6  A    between atoms: C_18  and  C_19
REMARK    7  A    between atoms: N_21  and  C_22
REMARK    8  A    between atoms: C_25  and  O_26
REMARK    9  A    between atoms: O_26  and  C_27
REMARK                            x       y       z     vdW  Elec       q    Type
REMARK                         _______ _______ _______ _____ _____    ______ ____
ROOT
ATOM      1  C   UNL     1      -6.066   3.781 121.804  0.00  0.00    +0.000 A 
ATOM      2  N   UNL     1      -5.245   4.791 122.051  0.00  0.00    +0.000 NA
ATOM      3  N   UNL     1      -5.064   4.898 123.427  0.00  0.00    +0.000 NA
ATOM      4  C   UNL     1      -5.744   3.929 124.022  0.00  0.00    +0.000 A 
ATOM      5  N   UNL     1      -5.855   3.564 125.321  0.00  0.00    +0.000 N 
ATOM      6  C   UNL     1      -5.990   4.216 126.578  0.00  0.00    +0.000 C 
ATOM      7  C   UNL     1      -5.148   3.059 127.220  0.00  0.00    +0.000 C 
ATOM      8  C   UNL     1      -5.591   2.302 125.931  0.00  0.00    +0.000 C 
ATOM      9  N   UNL     1      -6.386   3.206 123.019  0.00  0.00    +0.000 N 
ENDROOT
BRANCH   9  10
ATOM     10  C   UNL     1      -7.297   2.167 123.237  0.00  0.00    +0.000 A 
ATOM     11  C   UNL     1      -8.638   2.456 123.412  0.00  0.00    +0.000 A 
ATOM     12  C   UNL     1      -9.520   1.401 123.546  0.00  0.00    +0.000 A 
ATOM     13  C   UNL     1      -9.034   0.101 123.461  0.00  0.00    +0.000 A 
ATOM     14  N   UNL     1      -7.726  -0.187 123.274  0.00  0.00    +0.000 NA
ATOM     15  C   UNL     1      -6.875   0.851 123.170  0.00  0.00    +0.000 A 
BRANCH  13  16
ATOM     16  O   UNL     1      -9.817  -1.015 123.536  0.00  0.00    +0.000 OA
ATOM     17  C   UNL     1      -9.130  -2.253 123.422  0.00  0.00    +0.000 C 
ENDBRANCH  13  16
ENDBRANCH   9  10
BRANCH   1  18
ATOM     18  C   UNL     1      -6.754   3.471 120.493  0.00  0.00    +0.000 C 
BRANCH  18  20
ATOM     19  C   UNL     1      -7.501   4.598 118.524  0.00  0.00    +0.000 C 
ATOM     20  O   UNL     1      -6.533   4.541 119.569  0.00  0.00    +0.000 OA
ENDBRANCH  18  20
ENDBRANCH   1  18
BRANCH   7  21
ATOM     21  O   UNL     1      -3.744   3.379 127.466  0.00  0.00    +0.000 OA
BRANCH  21  22
ATOM     22  C   UNL     1      -3.397   4.327 128.413  0.00  0.00    +0.000 A 
ATOM     23  C   UNL     1      -2.773   5.500 127.955  0.00  0.00    +0.000 A 
ATOM     24  C   UNL     1      -2.192   6.402 128.864  0.00  0.00    +0.000 A 
ATOM     25  C   UNL     1      -2.202   6.113 130.221  0.00  0.00    +0.000 A 
ATOM     26  F   UNL     1      -1.604   6.932 131.096  0.00  0.00    +0.000 F 
ATOM     27  C   UNL     1      -2.825   4.975 130.688  0.00  0.00    +0.000 A 
ATOM     28  C   UNL     1      -3.441   4.087 129.796  0.00  0.00    +0.000 A 
ATOM     29  C   UNL     1      -4.103   2.911 130.412  0.00  0.00    +0.000 C 
ENDBRANCH  21  22
ENDBRANCH   7  21
TORSDOF 6
ENDMDL
MODEL 5
REMARK VINA RESULT:      -7.3      4.278      7.777
REMARK  Name = CHEMBL589128
REMARK  9 active torsions:
REMARK  status: ('A' for Active; 'I' for Inactive)
REMARK    1  A    between atoms: C_1  and  O_2
REMARK    2  A    between atoms: O_2  and  C_3
REMARK    3  A    between atoms: C_3  and  C_4
REMARK    4  A    between atoms: C_10  and  O_11
REMARK    5  A    between atoms: O_11  and  C_12
REMARK    6  A    between atoms: C_18  and  C_19
REMARK    7  A    between atoms: N_21  and  C_22
REMARK    8  A    between atoms: C_25  and  O_26
REMARK    9  A    between atoms: O_26  and  C_27
REMARK                            x       y       z     vdW  Elec       q    Type
REMARK                         _______ _______ _______ _____ _____    ______ ____
ROOT
ATOM      1  C   UNL     1      -6.808   1.798 126.828  0.00  0.00    +0.000 A 
ATOM      2  N   UNL     1      -8.034   1.380 126.550  0.00  0.00    +0.000 NA
ATOM      3  N   UNL     1      -8.914   1.915 127.486  0.00  0.00    +0.000 NA
ATOM      4  C   UNL     1      -8.232   2.691 128.316  0.00  0.00    +0.000 A 
ATOM      5  N   UNL     1      -8.619   3.472 129.352  0.00  0.00    +0.000 N 
ATOM      6  C   UNL     1      -9.535   3.383 130.437  0.00  0.00    +0.000 C 
ATOM      7  C   UNL     1      -9.771   4.928 130.308  0.00  0.00    +0.000 C 
ATOM      8  C   UNL     1      -8.402   4.865 129.565  0.00  0.00    +0.000 C 
ATOM      9  N   UNL     1      -6.897   2.636 127.922  0.00  0.00    +0.000 N 
ENDROOT
BRANCH   9  10
ATOM     10  C   UNL     1      -5.834   3.228 128.610  0.00  0.00    +0.000 A 
ATOM     11  C   UNL     1      -5.297   2.598 129.718  0.00  0.00    +0.000 A 
ATOM     12  C   UNL     1      -4.196   3.171 130.325  0.00  0.00    +0.000 A 
ATOM     13  C   UNL     1      -3.652   4.329 129.780  0.00  0.00    +0.000 A 
ATOM     14  N   UNL     1      -4.163   4.940 128.687  0.00  0.00    +0.000 NA
ATOM     15  C   UNL     1      -5.250   4.383 128.121  0.00  0.00    +0.000 A 
BRANCH  13  16
ATOM     16  O   UNL     1      -2.543   4.958 130.269  0.00  0.00    +0.000 OA
ATOM     17  C   UNL     1      -2.558   6.375 130.187  0.00  0.00    +0.000 C 
ENDBRANCH  13  16
ENDBRANCH   9  10
BRANCH   1  18
ATOM     18  C   UNL     1      -5.515   1.258 126.256  0.00  0.00    +0.000 C 
BRANCH  18  20
ATOM     19  C   UNL     1      -5.338  -0.996 125.486  0.00  0.00    +0.000 C 
ATOM     20  O   UNL     1      -5.370  -0.120 126.610  0.00  0.00    +0.000 OA
ENDBRANCH  18  20
ENDBRANCH   1  18
BRANCH   7  21
ATOM     21  O   UNL     1     -10.995   5.311 129.608  0.00  0.00    +0.000 OA
BRANCH  21  22
ATOM     22  C   UNL     1     -11.437   6.622 129.636  0.00  0.00    +0.000 A 
ATOM     23  C   UNL     1     -12.209   7.021 130.740  0.00  0.00    +0.000 A 
ATOM     24  C   UNL     1     -12.878   8.258 130.735  0.00  0.00    +0.000 A 
ATOM     25  C   UNL     1     -12.807   9.074 129.616  0.00  0.00    +0.000 A 
ATOM     26  F   UNL     1     -13.484  10.228 129.570  0.00  0.00    +0.000 F 
ATOM     27  C   UNL     1     -12.041   8.704 128.530  0.00  0.00    +0.000 A 
ATOM     28  C   UNL     1     -11.337   7.492 128.538  0.00  0.00    +0.000 A 
ATOM     29  C   UNL     1     -10.525   7.211 127.329  0.00  0.00    +0.000 C 
ENDBRANCH  21  22
ENDBRANCH   7  21
TORSDOF 6
ENDMDL
MODEL 6
REMARK VINA RESULT:      -7.3      3.664      4.758
REMARK  Name = CHEMBL589128
REMARK  9 active torsions:
REMARK  status: ('A' for Active; 'I' for Inactive)
REMARK    1  A    between atoms: C_1  and  O_2
REMARK    2  A    between atoms: O_2  and  C_3
REMARK    3  A    between atoms: C_3  and  C_4
REMARK    4  A    between atoms: C_10  and  O_11
REMARK    5  A    between atoms: O_11  and  C_12
REMARK    6  A    between atoms: C_18  and  C_19
REMARK    7  A    between atoms: N_21  and  C_22
REMARK    8  A    between atoms: C_25  and  O_26
REMARK    9  A    between atoms: O_26  and  C_27
REMARK                            x       y       z     vdW  Elec       q    Type
REMARK                         _______ _______ _______ _____ _____    ______ ____
ROOT
ATOM      1  C   UNL     1     -10.525   5.054 131.147  0.00  0.00    +0.000 A 
ATOM      2  N   UNL     1     -10.981   4.444 130.063  0.00  0.00    +0.000 NA
ATOM      3  N   UNL     1     -10.130   3.388 129.751  0.00  0.00    +0.000 NA
ATOM      4  C   UNL     1      -9.174   3.326 130.666  0.00  0.00    +0.000 A 
ATOM      5  N   UNL     1      -8.147   2.463 130.850  0.00  0.00    +0.000 N 
ATOM      6  C   UNL     1      -7.193   1.792 130.035  0.00  0.00    +0.000 C 
ATOM      7  C   UNL     1      -7.253   0.585 131.035  0.00  0.00    +0.000 C 
ATOM      8  C   UNL     1      -7.821   1.675 131.993  0.00  0.00    +0.000 C 
ATOM      9  N   UNL     1      -9.401   4.368 131.563  0.00  0.00    +0.000 N 
ENDROOT
BRANCH   9  10
ATOM     10  C   UNL     1      -8.549   4.720 132.615  0.00  0.00    +0.000 A 
ATOM     11  C   UNL     1      -8.825   4.283 133.898  0.00  0.00    +0.000 A 
ATOM     12  C   UNL     1      -7.920   4.581 134.897  0.00  0.00    +0.000 A 
ATOM     13  C   UNL     1      -6.756   5.269 134.570  0.00  0.00    +0.000 A 
ATOM     14  N   UNL     1      -6.473   5.684 133.315  0.00  0.00    +0.000 NA
ATOM     15  C   UNL     1      -7.377   5.408 132.356  0.00  0.00    +0.000 A 
BRANCH  13  16
ATOM     16  O   UNL     1      -5.774   5.581 135.466  0.00  0.00    +0.000 OA
ATOM     17  C   UNL     1      -5.727   4.768 136.629  0.00  0.00    +0.000 C 
ENDBRANCH  13  16
ENDBRANCH   9  10
BRANCH   1  18
ATOM     18  C   UNL     1     -10.964   6.400 131.682  0.00  0.00    +0.000 C 
BRANCH  18  20
ATOM     19  C   UNL     1     -12.962   7.549 131.057  0.00  0.00    +0.000 C 
ATOM     20  O   UNL     1     -12.392   6.446 131.757  0.00  0.00    +0.000 OA
ENDBRANCH  18  20
ENDBRANCH   1  18
BRANCH   7  21
ATOM     21  O   UNL     1      -8.075  -0.541 130.597  0.00  0.00    +0.000 OA
BRANCH  21  22
ATOM     22  C   UNL     1      -7.604  -1.838 130.709  0.00  0.00    +0.000 A 
ATOM     23  C   UNL     1      -7.075  -2.229 131.951  0.00  0.00    +0.000 A 
ATOM     24  C   UNL     1      -6.378  -3.443 132.081  0.00  0.00    +0.000 A 
ATOM     25  C   UNL     1      -6.178  -4.243 130.965  0.00  0.00    +0.000 A 
ATOM     26  F   UNL     1      -5.468  -5.375 131.057  0.00  0.00    +0.000 F 
ATOM     27  C   UNL     1      -6.705  -3.882 129.743  0.00  0.00    +0.000 A 
ATOM     28  C   UNL     1      -7.435  -2.694 129.608  0.00  0.00    +0.000 A 
ATOM     29  C   UNL     1      -7.977  -2.420 128.255  0.00  0.00    +0.000 C 
ENDBRANCH  21  22
ENDBRANCH   7  21
TORSDOF 6
ENDMDL
MODEL 7
REMARK VINA RESULT:      -7.3      5.218      7.384
REMARK  Name = CHEMBL589128
REMARK  9 active torsions:
REMARK  status: ('A' for Active; 'I' for Inactive)
REMARK    1  A    between atoms: C_1  and  O_2
REMARK    2  A    between atoms: O_2  and  C_3
REMARK    3  A    between atoms: C_3  and  C_4
REMARK    4  A    between atoms: C_10  and  O_11
REMARK    5  A    between atoms: O_11  and  C_12
REMARK    6  A    between atoms: C_18  and  C_19
REMARK    7  A    between atoms: N_21  and  C_22
REMARK    8  A    between atoms: C_25  and  O_26
REMARK    9  A    between atoms: O_26  and  C_27
REMARK                            x       y       z     vdW  Elec       q    Type
REMARK                         _______ _______ _______ _____ _____    ______ ____
ROOT
ATOM      1  C   UNL     1      -5.115   4.531 128.039  0.00  0.00    +0.000 A 
ATOM      2  N   UNL     1      -5.904   4.140 127.049  0.00  0.00    +0.000 NA
ATOM      3  N   UNL     1      -7.193   3.963 127.545  0.00  0.00    +0.000 NA
ATOM      4  C   UNL     1      -7.202   4.283 128.830  0.00  0.00    +0.000 A 
ATOM      5  N   UNL     1      -8.199   4.336 129.745  0.00  0.00    +0.000 N 
ATOM      6  C   UNL     1      -9.334   3.554 130.094  0.00  0.00    +0.000 C 
ATOM      7  C   UNL     1     -10.075   4.881 130.482  0.00  0.00    +0.000 C 
ATOM      8  C   UNL     1      -8.617   5.426 130.565  0.00  0.00    +0.000 C 
ATOM      9  N   UNL     1      -5.900   4.648 129.169  0.00  0.00    +0.000 N 
ENDROOT
BRANCH   9  10
ATOM     10  C   UNL     1      -5.463   4.946 130.463  0.00  0.00    +0.000 A 
ATOM     11  C   UNL     1      -5.311   6.265 130.849  0.00  0.00    +0.000 A 
ATOM     12  C   UNL     1      -4.955   6.524 132.159  0.00  0.00    +0.000 A 
ATOM     13  C   UNL     1      -4.803   5.460 133.040  0.00  0.00    +0.000 A 
ATOM     14  N   UNL     1      -4.967   4.169 132.672  0.00  0.00    +0.000 NA
ATOM     15  C   UNL     1      -5.290   3.930 131.387  0.00  0.00    +0.000 A 
BRANCH  13  16
ATOM     16  O   UNL     1      -4.496   5.599 134.363  0.00  0.00    +0.000 OA
ATOM     17  C   UNL     1      -4.364   4.386 135.090  0.00  0.00    +0.000 C 
ENDBRANCH  13  16
ENDBRANCH   9  10
BRANCH   1  18
ATOM     18  C   UNL     1      -3.603   4.576 128.029  0.00  0.00    +0.000 C 
BRANCH  18  20
ATOM     19  C   UNL     1      -2.255   6.466 128.588  0.00  0.00    +0.000 C 
ATOM     20  O   UNL     1      -3.163   5.885 127.655  0.00  0.00    +0.000 OA
ENDBRANCH  18  20
ENDBRANCH   1  18
BRANCH   7  21
ATOM     21  O   UNL     1     -11.014   5.381 129.482  0.00  0.00    +0.000 OA
BRANCH  21  22
ATOM     22  C   UNL     1     -11.460   6.691 129.531  0.00  0.00    +0.000 A 
ATOM     23  C   UNL     1     -12.205   7.078 130.659  0.00  0.00    +0.000 A 
ATOM     24  C   UNL     1     -12.878   8.313 130.681  0.00  0.00    +0.000 A 
ATOM     25  C   UNL     1     -12.838   9.138 129.567  0.00  0.00    +0.000 A 
ATOM     26  F   UNL     1     -13.519  10.290 129.548  0.00  0.00    +0.000 F 
ATOM     27  C   UNL     1     -12.098   8.780 128.459  0.00  0.00    +0.000 A 
ATOM     28  C   UNL     1     -11.391   7.570 128.439  0.00  0.00    +0.000 A 
ATOM     29  C   UNL     1     -10.609   7.301 127.207  0.00  0.00    +0.000 C 
ENDBRANCH  21  22
ENDBRANCH   7  21
TORSDOF 6
ENDMDL
MODEL 8
REMARK VINA RESULT:      -7.2      1.544      1.556
REMARK  Name = CHEMBL589128
REMARK  9 active torsions:
REMARK  status: ('A' for Active; 'I' for Inactive)
REMARK    1  A    between atoms: C_1  and  O_2
REMARK    2  A    between atoms: O_2  and  C_3
REMARK    3  A    between atoms: C_3  and  C_4
REMARK    4  A    between atoms: C_10  and  O_11
REMARK    5  A    between atoms: O_11  and  C_12
REMARK    6  A    between atoms: C_18  and  C_19
REMARK    7  A    between atoms: N_21  and  C_22
REMARK    8  A    between atoms: C_25  and  O_26
REMARK    9  A    between atoms: O_26  and  C_27
REMARK                            x       y       z     vdW  Elec       q    Type
REMARK                         _______ _______ _______ _____ _____    ______ ____
ROOT
ATOM      1  C   UNL     1      -9.471   5.395 129.729  0.00  0.00    +0.000 A 
ATOM      2  N   UNL     1      -9.431   5.875 128.495  0.00  0.00    +0.000 NA
ATOM      3  N   UNL     1      -8.563   5.095 127.737  0.00  0.00    +0.000 NA
ATOM      4  C   UNL     1      -8.099   4.114 128.496  0.00  0.00    +0.000 A 
ATOM      5  N   UNL     1      -7.280   3.069 128.229  0.00  0.00    +0.000 N 
ATOM      6  C   UNL     1      -6.089   2.844 127.485  0.00  0.00    +0.000 C 
ATOM      7  C   UNL     1      -6.613   1.400 127.165  0.00  0.00    +0.000 C 
ATOM      8  C   UNL     1      -7.505   1.673 128.414  0.00  0.00    +0.000 C 
ATOM      9  N   UNL     1      -8.659   4.278 129.762  0.00  0.00    +0.000 N 
ENDROOT
BRANCH   9  10
ATOM     10  C   UNL     1      -8.334   3.513 130.886  0.00  0.00    +0.000 A 
ATOM     11  C   UNL     1      -9.190   2.511 131.305  0.00  0.00    +0.000 A 
ATOM     12  C   UNL     1      -8.800   1.723 132.370  0.00  0.00    +0.000 A 
ATOM     13  C   UNL     1      -7.556   1.941 132.951  0.00  0.00    +0.000 A 
ATOM     14  N   UNL     1      -6.708   2.909 132.535  0.00  0.00    +0.000 NA
ATOM     15  C   UNL     1      -7.112   3.685 131.511  0.00  0.00    +0.000 A 
BRANCH  13  16
ATOM     16  O   UNL     1      -7.050   1.199 133.979  0.00  0.00    +0.000 OA
ATOM     17  C   UNL     1      -5.633   1.161 134.066  0.00  0.00    +0.000 C 
ENDBRANCH  13  16
ENDBRANCH   9  10
BRANCH   1  18
ATOM     18  C   UNL     1     -10.055   6.075 130.948  0.00  0.00    +0.000 C 
BRANCH  18  20
ATOM     19  C   UNL     1     -12.325   6.801 130.788  0.00  0.00    +0.000 C 
ATOM     20  O   UNL     1     -11.436   5.725 131.078  0.00  0.00    +0.000 OA
ENDBRANCH  18  20
ENDBRANCH   1  18
BRANCH   7  21
ATOM     21  O   UNL     1      -7.199   1.235 125.838  0.00  0.00    +0.000 OA
BRANCH  21  22
ATOM     22  C   UNL     1      -6.935   0.099 125.092  0.00  0.00    +0.000 A 
ATOM     23  C   UNL     1      -5.862  -0.710 125.504  0.00  0.00    +0.000 A 
ATOM     24  C   UNL     1      -5.391  -1.748 124.680  0.00  0.00    +0.000 A 
ATOM     25  C   UNL     1      -5.964  -1.949 123.433  0.00  0.00    +0.000 A 
ATOM     26  F   UNL     1      -5.492  -2.895 122.611  0.00  0.00    +0.000 F 
ATOM     27  C   UNL     1      -7.028  -1.174 123.021  0.00  0.00    +0.000 A 
ATOM     28  C   UNL     1      -7.533  -0.163 123.848  0.00  0.00    +0.000 A 
ATOM     29  C   UNL     1      -8.695   0.589 123.314  0.00  0.00    +0.000 C 
ENDBRANCH  21  22
ENDBRANCH   7  21
TORSDOF 6
ENDMDL
MODEL 9
REMARK VINA RESULT:      -7.1      4.303      8.950
REMARK  Name = CHEMBL589128
REMARK  9 active torsions:
REMARK  status: ('A' for Active; 'I' for Inactive)
REMARK    1  A    between atoms: C_1  and  O_2
REMARK    2  A    between atoms: O_2  and  C_3
REMARK    3  A    between atoms: C_3  and  C_4
REMARK    4  A    between atoms: C_10  and  O_11
REMARK    5  A    between atoms: O_11  and  C_12
REMARK    6  A    between atoms: C_18  and  C_19
REMARK    7  A    between atoms: N_21  and  C_22
REMARK    8  A    between atoms: C_25  and  O_26
REMARK    9  A    between atoms: O_26  and  C_27
REMARK                            x       y       z     vdW  Elec       q    Type
REMARK                         _______ _______ _______ _____ _____    ______ ____
ROOT
ATOM      1  C   UNL     1      -5.916   3.553 122.404  0.00  0.00    +0.000 A 
ATOM      2  N   UNL     1      -5.346   4.674 122.819  0.00  0.00    +0.000 NA
ATOM      3  N   UNL     1      -5.848   4.994 124.077  0.00  0.00    +0.000 NA
ATOM      4  C   UNL     1      -6.698   4.049 124.449  0.00  0.00    +0.000 A 
ATOM      5  N   UNL     1      -7.405   3.861 125.590  0.00  0.00    +0.000 N 
ATOM      6  C   UNL     1      -8.145   4.665 126.499  0.00  0.00    +0.000 C 
ATOM      7  C   UNL     1      -7.676   3.713 127.655  0.00  0.00    +0.000 C 
ATOM      8  C   UNL     1      -7.424   2.737 126.467  0.00  0.00    +0.000 C 
ATOM      9  N   UNL     1      -6.759   3.123 123.410  0.00  0.00    +0.000 N 
ENDROOT
BRANCH   9  10
ATOM     10  C   UNL     1      -7.630   2.030 123.361  0.00  0.00    +0.000 A 
ATOM     11  C   UNL     1      -8.953   2.221 123.005  0.00  0.00    +0.000 A 
ATOM     12  C   UNL     1      -9.764   1.109 122.889  0.00  0.00    +0.000 A 
ATOM     13  C   UNL     1      -9.214  -0.152 123.095  0.00  0.00    +0.000 A 
ATOM     14  N   UNL     1      -7.918  -0.345 123.428  0.00  0.00    +0.000 NA
ATOM     15  C   UNL     1      -7.145   0.749 123.561  0.00  0.00    +0.000 A 
BRANCH  13  16
ATOM     16  O   UNL     1      -9.908  -1.320 122.967  0.00  0.00    +0.000 OA
ATOM     17  C   UNL     1      -9.209  -2.493 123.357  0.00  0.00    +0.000 C 
ENDBRANCH  13  16
ENDBRANCH   9  10
BRANCH   1  18
ATOM     18  C   UNL     1      -5.884   2.985 121.002  0.00  0.00    +0.000 C 
BRANCH  18  20
ATOM     19  C   UNL     1      -7.724   4.109 119.974  0.00  0.00    +0.000 C 
ATOM     20  O   UNL     1      -6.307   3.983 120.069  0.00  0.00    +0.000 OA
ENDBRANCH  18  20
ENDBRANCH   1  18
BRANCH   7  21
ATOM     21  O   UNL     1      -6.572   4.222 128.464  0.00  0.00    +0.000 OA
BRANCH  21  22
ATOM     22  C   UNL     1      -6.781   4.592 129.782  0.00  0.00    +0.000 A 
ATOM     23  C   UNL     1      -7.949   4.122 130.408  0.00  0.00    +0.000 A 
ATOM     24  C   UNL     1      -8.344   4.631 131.658  0.00  0.00    +0.000 A 
ATOM     25  C   UNL     1      -7.596   5.632 132.260  0.00  0.00    +0.000 A 
ATOM     26  F   UNL     1      -7.988   6.169 133.423  0.00  0.00    +0.000 F 
ATOM     27  C   UNL     1      -6.439   6.092 131.667  0.00  0.00    +0.000 A 
ATOM     28  C   UNL     1      -6.013   5.566 130.440  0.00  0.00    +0.000 A 
ATOM     29  C   UNL     1      -4.742   6.116 129.909  0.00  0.00    +0.000 C 
ENDBRANCH  21  22
ENDBRANCH   7  21
TORSDOF 6
ENDMDL
