MODEL 1
REMARK VINA RESULT:     -11.4      0.000      0.000
REMARK  Name = CHEMBL30865
REMARK  8 active torsions:
REMARK  status: ('A' for Active; 'I' for Inactive)
REMARK    1  A    between atoms: C_1  and  C_2
REMARK    2  A    between atoms: C_3  and  C_4
REMARK    3  A    between atoms: N_5  and  C_6
REMARK    4  A    between atoms: C_6  and  C_7
REMARK    5  A    between atoms: N_11  and  S_12
REMARK    6  A    between atoms: S_12  and  C_13
REMARK    7  A    between atoms: C_19  and  C_20
REMARK    8  A    between atoms: C_25  and  N_26
REMARK                            x       y       z     vdW  Elec       q    Type
REMARK                         _______ _______ _______ _____ _____    ______ ____
ROOT
ATOM      1  C   UNL     1      -8.256  -1.543 130.742  0.00  0.00    +0.000 C 
ATOM      2  C   UNL     1      -7.467  -1.353 129.500  0.00  0.00    +0.000 A 
ATOM      3  C   UNL     1      -7.398  -2.267 128.469  0.00  0.00    +0.000 A 
ATOM      4  C   UNL     1      -8.094  -3.601 128.524  0.00  0.00    +0.000 C 
ATOM      5  N   UNL     1      -6.596  -1.708 127.461  0.00  0.00    +0.000 N 
ATOM      6  C   UNL     1      -6.088  -0.487 127.917  0.00  0.00    +0.000 A 
ATOM      7  C   UNL     1      -5.196   0.435 127.345  0.00  0.00    +0.000 A 
ATOM      8  C   UNL     1      -4.854   1.580 128.085  0.00  0.00    +0.000 A 
ATOM      9  C   UNL     1      -5.390   1.854 129.339  0.00  0.00    +0.000 A 
ATOM     10  C   UNL     1      -6.269   0.913 129.904  0.00  0.00    +0.000 A 
ATOM     11  C   UNL     1      -6.625  -0.257 129.186  0.00  0.00    +0.000 A 
ENDROOT
BRANCH   9  12
ATOM     12  C   UNL     1      -4.959   3.055 130.138  0.00  0.00    +0.000 C 
ATOM     13  O   UNL     1      -3.754   3.300 130.212  0.00  0.00    +0.000 OA
ATOM     14  N   UNL     1      -5.930   3.961 130.618  0.00  0.00    +0.000 N 
ATOM     15  C   UNL     1      -5.945   5.289 130.032  0.00  0.00    +0.000 C 
ATOM     16  C   UNL     1      -6.113   6.363 131.082  0.00  0.00    +0.000 C 
ATOM     17  C   UNL     1      -7.770   6.299 131.735  0.00  0.00    +0.000 C 
ATOM     18  C   UNL     1      -7.376   4.783 132.485  0.00  0.00    +0.000 C 
ATOM     19  C   UNL     1      -7.078   3.654 131.488  0.00  0.00    +0.000 C 
BRANCH  17  20
ATOM     20  N   UNL     1      -9.051   7.150 130.692  0.00  0.00    +0.000 N 
ATOM     21  C   UNL     1      -9.960   6.531 131.607  0.00  0.00    +0.000 C 
ATOM     22  O   UNL     1      -9.959   6.484 132.870  0.00  0.00    +0.000 OA
ATOM     23  O   UNL     1     -10.786   5.678 131.059  0.00  0.00    +0.000 OA
ATOM     24  C   UNL     1     -11.852   6.538 130.980  0.00  0.00    +0.000 C 
ATOM     25  C   UNL     1     -11.623   6.789 129.568  0.00  0.00    +0.000 A 
ATOM     26  C   UNL     1     -12.961   6.610 128.841  0.00  0.00    +0.000 A 
ATOM     27  C   UNL     1     -13.207   6.939 127.550  0.00  0.00    +0.000 A 
ATOM     28  C   UNL     1     -12.178   7.751 127.139  0.00  0.00    +0.000 A 
ATOM     29  C   UNL     1     -10.778   7.995 128.014  0.00  0.00    +0.000 A 
ATOM     30  C   UNL     1     -10.268   7.238 129.275  0.00  0.00    +0.000 A 
ENDBRANCH  17  20
ENDBRANCH   9  12
BRANCH   5  31
ATOM     31  C   UNL     1      -6.304  -2.253 126.111  0.00  0.00    +0.000 C 
BRANCH  31  32
ATOM     32  C   UNL     1      -7.204  -1.632 125.045  0.00  0.00    +0.000 C 
ATOM     33  C   UNL     1      -7.491  -2.647 123.936  0.00  0.00    +0.000 C 
ATOM     34  C   UNL     1      -8.684  -3.419 124.366  0.00  0.00    +0.000 C 
ATOM     35  C   UNL     1      -9.445  -2.456 125.254  0.00  0.00    +0.000 C 
ATOM     36  N   UNL     1      -8.585  -1.243 125.426  0.00  0.00    +0.000 NA
BRANCH  36  37
ATOM     37  S   UNL     1      -9.155   0.197 124.641  0.00  0.00    +0.000 S 
ATOM     38  C   UNL     1      -7.672   1.072 124.105  0.00  0.00    +0.000 C 
ATOM     39  O   UNL     1      -9.870  -0.219 123.455  0.00  0.00    +0.000 OA
ATOM     40  O   UNL     1      -9.791   1.025 125.645  0.00  0.00    +0.000 OA
ENDBRANCH  36  37
ENDBRANCH  31  32
ENDBRANCH   5  31
TORSDOF 5
ENDMDL
MODEL 2
REMARK VINA RESULT:     -10.5      1.680      2.160
REMARK  Name = CHEMBL30865
REMARK  8 active torsions:
REMARK  status: ('A' for Active; 'I' for Inactive)
REMARK    1  A    between atoms: C_1  and  C_2
REMARK    2  A    between atoms: C_3  and  C_4
REMARK    3  A    between atoms: N_5  and  C_6
REMARK    4  A    between atoms: C_6  and  C_7
REMARK    5  A    between atoms: N_11  and  S_12
REMARK    6  A    between atoms: S_12  and  C_13
REMARK    7  A    between atoms: C_19  and  C_20
REMARK    8  A    between atoms: C_25  and  N_26
REMARK                            x       y       z     vdW  Elec       q    Type
REMARK                         _______ _______ _______ _____ _____    ______ ____
ROOT
ATOM      1  C   UNL     1      -3.065  -1.958 130.881  0.00  0.00    +0.000 C 
ATOM      2  C   UNL     1      -4.289  -1.648 130.101  0.00  0.00    +0.000 A 
ATOM      3  C   UNL     1      -4.727  -2.372 129.012  0.00  0.00    +0.000 A 
ATOM      4  C   UNL     1      -3.963  -3.547 128.463  0.00  0.00    +0.000 C 
ATOM      5  N   UNL     1      -5.934  -1.799 128.581  0.00  0.00    +0.000 N 
ATOM      6  C   UNL     1      -6.188  -0.657 129.347  0.00  0.00    +0.000 A 
ATOM      7  C   UNL     1      -7.206   0.309 129.291  0.00  0.00    +0.000 A 
ATOM      8  C   UNL     1      -7.165   1.377 130.203  0.00  0.00    +0.000 A 
ATOM      9  C   UNL     1      -6.180   1.496 131.179  0.00  0.00    +0.000 A 
ATOM     10  C   UNL     1      -5.159   0.529 131.211  0.00  0.00    +0.000 A 
ATOM     11  C   UNL     1      -5.168  -0.554 130.297  0.00  0.00    +0.000 A 
ENDROOT
BRANCH   9  12
ATOM     12  C   UNL     1      -6.123   2.683 132.103  0.00  0.00    +0.000 C 
ATOM     13  O   UNL     1      -5.078   2.884 132.724  0.00  0.00    +0.000 OA
ATOM     14  N   UNL     1      -7.175   3.625 132.098  0.00  0.00    +0.000 N 
ATOM     15  C   UNL     1      -6.875   4.951 131.589  0.00  0.00    +0.000 C 
ATOM     16  C   UNL     1      -7.469   6.034 132.460  0.00  0.00    +0.000 C 
ATOM     17  C   UNL     1      -9.242   6.032 132.281  0.00  0.00    +0.000 C 
ATOM     18  C   UNL     1      -9.286   4.505 133.107  0.00  0.00    +0.000 C 
ATOM     19  C   UNL     1      -8.604   3.363 132.341  0.00  0.00    +0.000 C 
BRANCH  17  20
ATOM     20  N   UNL     1      -9.873   6.927 130.779  0.00  0.00    +0.000 N 
ATOM     21  C   UNL     1     -11.146   6.709 131.396  0.00  0.00    +0.000 C 
ATOM     22  O   UNL     1     -11.536   6.905 132.582  0.00  0.00    +0.000 OA
ATOM     23  O   UNL     1     -11.967   5.968 130.698  0.00  0.00    +0.000 OA
ATOM     24  C   UNL     1     -12.688   7.008 130.170  0.00  0.00    +0.000 C 
ATOM     25  C   UNL     1     -11.988   6.928 128.900  0.00  0.00    +0.000 A 
ATOM     26  C   UNL     1     -13.043   6.910 127.787  0.00  0.00    +0.000 A 
ATOM     27  C   UNL     1     -12.794   7.031 126.462  0.00  0.00    +0.000 A 
ATOM     28  C   UNL     1     -11.511   7.504 126.336  0.00  0.00    +0.000 A 
ATOM     29  C   UNL     1     -10.425   7.599 127.599  0.00  0.00    +0.000 A 
ATOM     30  C   UNL     1     -10.539   7.005 129.034  0.00  0.00    +0.000 A 
ENDBRANCH  17  20
ENDBRANCH   9  12
BRANCH   5  31
ATOM     31  C   UNL     1      -6.848  -2.277 127.513  0.00  0.00    +0.000 C 
BRANCH  31  32
ATOM     32  C   UNL     1      -6.764  -1.401 126.264  0.00  0.00    +0.000 C 
ATOM     33  C   UNL     1      -5.429  -1.623 125.549  0.00  0.00    +0.000 C 
ATOM     34  C   UNL     1      -5.629  -2.767 124.623  0.00  0.00    +0.000 C 
ATOM     35  C   UNL     1      -7.106  -2.717 124.291  0.00  0.00    +0.000 C 
ATOM     36  N   UNL     1      -7.716  -1.659 125.155  0.00  0.00    +0.000 NA
BRANCH  36  37
ATOM     37  S   UNL     1      -8.241  -0.225 124.327  0.00  0.00    +0.000 S 
ATOM     38  C   UNL     1      -8.207   1.085 125.566  0.00  0.00    +0.000 C 
ATOM     39  O   UNL     1      -7.238   0.085 123.334  0.00  0.00    +0.000 OA
ATOM     40  O   UNL     1      -9.628  -0.414 123.955  0.00  0.00    +0.000 OA
ENDBRANCH  36  37
ENDBRANCH  31  32
ENDBRANCH   5  31
TORSDOF 5
ENDMDL
MODEL 3
REMARK VINA RESULT:     -10.0      2.994      4.308
REMARK  Name = CHEMBL30865
REMARK  8 active torsions:
REMARK  status: ('A' for Active; 'I' for Inactive)
REMARK    1  A    between atoms: C_1  and  C_2
REMARK    2  A    between atoms: C_3  and  C_4
REMARK    3  A    between atoms: N_5  and  C_6
REMARK    4  A    between atoms: C_6  and  C_7
REMARK    5  A    between atoms: N_11  and  S_12
REMARK    6  A    between atoms: S_12  and  C_13
REMARK    7  A    between atoms: C_19  and  C_20
REMARK    8  A    between atoms: C_25  and  N_26
REMARK                            x       y       z     vdW  Elec       q    Type
REMARK                         _______ _______ _______ _____ _____    ______ ____
ROOT
ATOM      1  C   UNL     1      -9.367  -4.008 128.082  0.00  0.00    +0.000 C 
ATOM      2  C   UNL     1      -8.332  -3.021 127.685  0.00  0.00    +0.000 A 
ATOM      3  C   UNL     1      -7.769  -2.940 126.429  0.00  0.00    +0.000 A 
ATOM      4  C   UNL     1      -8.120  -3.899 125.323  0.00  0.00    +0.000 C 
ATOM      5  N   UNL     1      -6.873  -1.858 126.436  0.00  0.00    +0.000 N 
ATOM      6  C   UNL     1      -6.813  -1.334 127.731  0.00  0.00    +0.000 A 
ATOM      7  C   UNL     1      -6.040  -0.306 128.297  0.00  0.00    +0.000 A 
ATOM      8  C   UNL     1      -6.194  -0.030 129.666  0.00  0.00    +0.000 A 
ATOM      9  C   UNL     1      -7.105  -0.707 130.471  0.00  0.00    +0.000 A 
ATOM     10  C   UNL     1      -7.860  -1.743 129.893  0.00  0.00    +0.000 A 
ATOM     11  C   UNL     1      -7.718  -2.051 128.517  0.00  0.00    +0.000 A 
ENDROOT
BRANCH   9  12
ATOM     12  C   UNL     1      -7.206  -0.436 131.949  0.00  0.00    +0.000 C 
ATOM     13  O   UNL     1      -6.991  -1.368 132.726  0.00  0.00    +0.000 OA
ATOM     14  N   UNL     1      -7.356   0.891 132.408  0.00  0.00    +0.000 N 
ATOM     15  C   UNL     1      -6.243   1.471 133.137  0.00  0.00    +0.000 C 
ATOM     16  C   UNL     1      -6.707   2.232 134.358  0.00  0.00    +0.000 C 
ATOM     17  C   UNL     1      -7.544   3.719 133.845  0.00  0.00    +0.000 C 
ATOM     18  C   UNL     1      -8.833   2.736 133.225  0.00  0.00    +0.000 C 
ATOM     19  C   UNL     1      -8.423   1.841 132.047  0.00  0.00    +0.000 C 
BRANCH  17  20
ATOM     20  N   UNL     1      -6.420   5.136 133.417  0.00  0.00    +0.000 N 
ATOM     21  C   UNL     1      -7.518   5.532 132.588  0.00  0.00    +0.000 C 
ATOM     22  O   UNL     1      -8.752   5.628 132.840  0.00  0.00    +0.000 OA
ATOM     23  O   UNL     1      -7.246   5.569 131.310  0.00  0.00    +0.000 OA
ATOM     24  C   UNL     1      -7.040   6.923 131.243  0.00  0.00    +0.000 C 
ATOM     25  C   UNL     1      -5.596   6.765 131.255  0.00  0.00    +0.000 A 
ATOM     26  C   UNL     1      -5.027   7.604 130.104  0.00  0.00    +0.000 A 
ATOM     27  C   UNL     1      -3.716   7.871 129.896  0.00  0.00    +0.000 A 
ATOM     28  C   UNL     1      -3.053   7.556 131.057  0.00  0.00    +0.000 A 
ATOM     29  C   UNL     1      -3.745   6.726 132.329  0.00  0.00    +0.000 A 
ATOM     30  C   UNL     1      -5.111   5.982 132.383  0.00  0.00    +0.000 A 
ENDBRANCH  17  20
ENDBRANCH   9  12
BRANCH   5  31
ATOM     31  C   UNL     1      -6.101  -1.298 125.299  0.00  0.00    +0.000 C 
BRANCH  31  32
ATOM     32  C   UNL     1      -6.761  -0.043 124.731  0.00  0.00    +0.000 C 
ATOM     33  C   UNL     1      -6.994  -0.201 123.226  0.00  0.00    +0.000 C 
ATOM     34  C   UNL     1      -8.317  -0.858 123.069  0.00  0.00    +0.000 C 
ATOM     35  C   UNL     1      -9.086  -0.437 124.304  0.00  0.00    +0.000 C 
ATOM     36  N   UNL     1      -8.130   0.303 125.187  0.00  0.00    +0.000 NA
BRANCH  36  37
ATOM     37  S   UNL     1      -8.415   2.009 125.336  0.00  0.00    +0.000 S 
ATOM     38  C   UNL     1      -6.853   2.798 124.899  0.00  0.00    +0.000 C 
ATOM     39  O   UNL     1      -9.385   2.369 124.326  0.00  0.00    +0.000 OA
ATOM     40  O   UNL     1      -8.652   2.296 126.736  0.00  0.00    +0.000 OA
ENDBRANCH  36  37
ENDBRANCH  31  32
ENDBRANCH   5  31
TORSDOF 5
ENDMDL
MODEL 4
REMARK VINA RESULT:      -9.9      4.528      6.115
REMARK  Name = CHEMBL30865
REMARK  8 active torsions:
REMARK  status: ('A' for Active; 'I' for Inactive)
REMARK    1  A    between atoms: C_1  and  C_2
REMARK    2  A    between atoms: C_3  and  C_4
REMARK    3  A    between atoms: N_5  and  C_6
REMARK    4  A    between atoms: C_6  and  C_7
REMARK    5  A    between atoms: N_11  and  S_12
REMARK    6  A    between atoms: S_12  and  C_13
REMARK    7  A    between atoms: C_19  and  C_20
REMARK    8  A    between atoms: C_25  and  N_26
REMARK                            x       y       z     vdW  Elec       q    Type
REMARK                         _______ _______ _______ _____ _____    ______ ____
ROOT
ATOM      1  C   UNL     1      -9.455  -4.092 128.081  0.00  0.00    +0.000 C 
ATOM      2  C   UNL     1      -8.368  -3.225 127.561  0.00  0.00    +0.000 A 
ATOM      3  C   UNL     1      -8.211  -2.878 126.236  0.00  0.00    +0.000 A 
ATOM      4  C   UNL     1      -9.118  -3.396 125.152  0.00  0.00    +0.000 C 
ATOM      5  N   UNL     1      -7.106  -2.016 126.152  0.00  0.00    +0.000 N 
ATOM      6  C   UNL     1      -6.520  -1.912 127.418  0.00  0.00    +0.000 A 
ATOM      7  C   UNL     1      -5.372  -1.244 127.874  0.00  0.00    +0.000 A 
ATOM      8  C   UNL     1      -5.027  -1.360 129.232  0.00  0.00    +0.000 A 
ATOM      9  C   UNL     1      -5.794  -2.076 130.145  0.00  0.00    +0.000 A 
ATOM     10  C   UNL     1      -6.932  -2.751 129.669  0.00  0.00    +0.000 A 
ATOM     11  C   UNL     1      -7.300  -2.662 128.303  0.00  0.00    +0.000 A 
ENDROOT
BRANCH   9  12
ATOM     12  C   UNL     1      -5.369  -2.236 131.580  0.00  0.00    +0.000 C 
ATOM     13  O   UNL     1      -5.088  -3.368 131.978  0.00  0.00    +0.000 OA
ATOM     14  N   UNL     1      -5.125  -1.091 132.370  0.00  0.00    +0.000 N 
ATOM     15  C   UNL     1      -3.753  -0.843 132.772  0.00  0.00    +0.000 C 
ATOM     16  C   UNL     1      -3.660  -0.431 134.224  0.00  0.00    +0.000 C 
ATOM     17  C   UNL     1      -4.337   1.206 134.420  0.00  0.00    +0.000 C 
ATOM     18  C   UNL     1      -5.910   0.555 134.080  0.00  0.00    +0.000 C 
ATOM     19  C   UNL     1      -6.064   0.008 132.654  0.00  0.00    +0.000 C 
BRANCH  17  20
ATOM     20  N   UNL     1      -3.173   2.586 133.977  0.00  0.00    +0.000 N 
ATOM     21  C   UNL     1      -3.838   3.260 135.051  0.00  0.00    +0.000 C 
ATOM     22  O   UNL     1      -4.109   2.880 136.225  0.00  0.00    +0.000 OA
ATOM     23  O   UNL     1      -4.481   4.342 134.697  0.00  0.00    +0.000 OA
ATOM     24  C   UNL     1      -3.506   5.224 135.088  0.00  0.00    +0.000 C 
ATOM     25  C   UNL     1      -3.036   5.401 133.725  0.00  0.00    +0.000 A 
ATOM     26  C   UNL     1      -2.929   6.908 133.462  0.00  0.00    +0.000 A 
ATOM     27  C   UNL     1      -2.351   7.481 132.379  0.00  0.00    +0.000 A 
ATOM     28  C   UNL     1      -1.601   6.509 131.763  0.00  0.00    +0.000 A 
ATOM     29  C   UNL     1      -1.676   4.888 132.152  0.00  0.00    +0.000 A 
ATOM     30  C   UNL     1      -2.699   4.147 133.064  0.00  0.00    +0.000 A 
ENDBRANCH  17  20
ENDBRANCH   9  12
BRANCH   5  31
ATOM     31  C   UNL     1      -6.595  -1.289 124.963  0.00  0.00    +0.000 C 
BRANCH  31  32
ATOM     32  C   UNL     1      -7.002   0.184 124.983  0.00  0.00    +0.000 C 
ATOM     33  C   UNL     1      -7.239   0.688 123.557  0.00  0.00    +0.000 C 
ATOM     34  C   UNL     1      -8.658   0.393 123.233  0.00  0.00    +0.000 C 
ATOM     35  C   UNL     1      -9.354   0.410 124.579  0.00  0.00    +0.000 C 
ATOM     36  N   UNL     1      -8.289   0.551 125.623  0.00  0.00    +0.000 NA
BRANCH  36  37
ATOM     37  S   UNL     1      -8.255   2.074 126.456  0.00  0.00    +0.000 S 
ATOM     38  C   UNL     1      -6.519   2.366 126.851  0.00  0.00    +0.000 C 
ATOM     39  O   UNL     1      -8.664   3.088 125.509  0.00  0.00    +0.000 OA
ATOM     40  O   UNL     1      -8.949   1.904 127.715  0.00  0.00    +0.000 OA
ENDBRANCH  36  37
ENDBRANCH  31  32
ENDBRANCH   5  31
TORSDOF 5
ENDMDL
MODEL 5
REMARK VINA RESULT:      -9.6      3.915      9.049
REMARK  Name = CHEMBL30865
REMARK  8 active torsions:
REMARK  status: ('A' for Active; 'I' for Inactive)
REMARK    1  A    between atoms: C_1  and  C_2
REMARK    2  A    between atoms: C_3  and  C_4
REMARK    3  A    between atoms: N_5  and  C_6
REMARK    4  A    between atoms: C_6  and  C_7
REMARK    5  A    between atoms: N_11  and  S_12
REMARK    6  A    between atoms: S_12  and  C_13
REMARK    7  A    between atoms: C_19  and  C_20
REMARK    8  A    between atoms: C_25  and  N_26
REMARK                            x       y       z     vdW  Elec       q    Type
REMARK                         _______ _______ _______ _____ _____    ______ ____
ROOT
ATOM      1  C   UNL     1      -4.199   0.147 130.111  0.00  0.00    +0.000 C 
ATOM      2  C   UNL     1      -4.140   1.387 130.924  0.00  0.00    +0.000 A 
ATOM      3  C   UNL     1      -4.046   1.416 132.299  0.00  0.00    +0.000 A 
ATOM      4  C   UNL     1      -4.041   0.165 133.136  0.00  0.00    +0.000 C 
ATOM      5  N   UNL     1      -3.969   2.763 132.690  0.00  0.00    +0.000 N 
ATOM      6  C   UNL     1      -4.117   3.568 131.556  0.00  0.00    +0.000 A 
ATOM      7  C   UNL     1      -4.183   4.962 131.391  0.00  0.00    +0.000 A 
ATOM      8  C   UNL     1      -4.369   5.473 130.095  0.00  0.00    +0.000 A 
ATOM      9  C   UNL     1      -4.453   4.659 128.970  0.00  0.00    +0.000 A 
ATOM     10  C   UNL     1      -4.401   3.266 129.154  0.00  0.00    +0.000 A 
ATOM     11  C   UNL     1      -4.225   2.720 130.450  0.00  0.00    +0.000 A 
ENDROOT
BRANCH   9  12
ATOM     12  C   UNL     1      -4.716   5.228 127.601  0.00  0.00    +0.000 C 
ATOM     13  O   UNL     1      -4.066   6.214 127.248  0.00  0.00    +0.000 OA
ATOM     14  N   UNL     1      -5.546   4.527 126.700  0.00  0.00    +0.000 N 
ATOM     15  C   UNL     1      -4.916   3.957 125.523  0.00  0.00    +0.000 C 
ATOM     16  C   UNL     1      -5.738   4.194 124.276  0.00  0.00    +0.000 C 
ATOM     17  C   UNL     1      -7.214   3.199 124.343  0.00  0.00    +0.000 C 
ATOM     18  C   UNL     1      -7.787   4.202 125.639  0.00  0.00    +0.000 C 
ATOM     19  C   UNL     1      -6.943   4.111 126.918  0.00  0.00    +0.000 C 
BRANCH  17  20
ATOM     20  N   UNL     1      -6.983   1.428 123.827  0.00  0.00    +0.000 N 
ATOM     21  C   UNL     1      -8.365   1.532 123.468  0.00  0.00    +0.000 C 
ATOM     22  O   UNL     1      -8.984   2.412 122.805  0.00  0.00    +0.000 OA
ATOM     23  O   UNL     1      -9.158   0.726 124.125  0.00  0.00    +0.000 OA
ATOM     24  C   UNL     1      -9.239  -0.229 123.144  0.00  0.00    +0.000 C 
ATOM     25  C   UNL     1      -8.279  -1.087 123.816  0.00  0.00    +0.000 A 
ATOM     26  C   UNL     1      -8.881  -2.496 123.883  0.00  0.00    +0.000 A 
ATOM     27  C   UNL     1      -8.224  -3.617 124.262  0.00  0.00    +0.000 A 
ATOM     28  C   UNL     1      -6.882  -3.324 124.239  0.00  0.00    +0.000 A 
ATOM     29  C   UNL     1      -6.269  -1.782 124.064  0.00  0.00    +0.000 A 
ATOM     30  C   UNL     1      -7.020  -0.419 124.117  0.00  0.00    +0.000 A 
ENDBRANCH  17  20
ENDBRANCH   9  12
BRANCH   5  31
ATOM     31  C   UNL     1      -3.751   3.314 134.051  0.00  0.00    +0.000 C 
BRANCH  31  32
ATOM     32  C   UNL     1      -5.072   3.580 134.771  0.00  0.00    +0.000 C 
ATOM     33  C   UNL     1      -4.840   3.697 136.280  0.00  0.00    +0.000 C 
ATOM     34  C   UNL     1      -4.510   5.119 136.549  0.00  0.00    +0.000 C 
ATOM     35  C   UNL     1      -5.215   5.876 135.442  0.00  0.00    +0.000 C 
ATOM     36  N   UNL     1      -5.778   4.857 134.501  0.00  0.00    +0.000 NA
BRANCH  36  37
ATOM     37  S   UNL     1      -7.509   4.719 134.495  0.00  0.00    +0.000 S 
ATOM     38  C   UNL     1      -8.069   5.751 133.125  0.00  0.00    +0.000 C 
ATOM     39  O   UNL     1      -7.827   3.347 134.168  0.00  0.00    +0.000 OA
ATOM     40  O   UNL     1      -8.005   5.331 135.710  0.00  0.00    +0.000 OA
ENDBRANCH  36  37
ENDBRANCH  31  32
ENDBRANCH   5  31
TORSDOF 5
ENDMDL
MODEL 6
REMARK VINA RESULT:      -9.6      5.254     10.202
REMARK  Name = CHEMBL30865
REMARK  8 active torsions:
REMARK  status: ('A' for Active; 'I' for Inactive)
REMARK    1  A    between atoms: C_1  and  C_2
REMARK    2  A    between atoms: C_3  and  C_4
REMARK    3  A    between atoms: N_5  and  C_6
REMARK    4  A    between atoms: C_6  and  C_7
REMARK    5  A    between atoms: N_11  and  S_12
REMARK    6  A    between atoms: S_12  and  C_13
REMARK    7  A    between atoms: C_19  and  C_20
REMARK    8  A    between atoms: C_25  and  N_26
REMARK                            x       y       z     vdW  Elec       q    Type
REMARK                         _______ _______ _______ _____ _____    ______ ____
ROOT
ATOM      1  C   UNL     1      -4.415   4.463 128.321  0.00  0.00    +0.000 C 
ATOM      2  C   UNL     1      -3.637   4.599 129.577  0.00  0.00    +0.000 A 
ATOM      3  C   UNL     1      -2.679   5.565 129.804  0.00  0.00    +0.000 A 
ATOM      4  C   UNL     1      -2.283   6.571 128.757  0.00  0.00    +0.000 C 
ATOM      5  N   UNL     1      -2.207   5.393 131.115  0.00  0.00    +0.000 N 
ATOM      6  C   UNL     1      -2.807   4.254 131.663  0.00  0.00    +0.000 A 
ATOM      7  C   UNL     1      -2.643   3.602 132.897  0.00  0.00    +0.000 A 
ATOM      8  C   UNL     1      -3.389   2.436 133.141  0.00  0.00    +0.000 A 
ATOM      9  C   UNL     1      -4.305   1.925 132.228  0.00  0.00    +0.000 A 
ATOM     10  C   UNL     1      -4.446   2.580 130.991  0.00  0.00    +0.000 A 
ATOM     11  C   UNL     1      -3.700   3.752 130.712  0.00  0.00    +0.000 A 
ENDROOT
BRANCH   9  12
ATOM     12  C   UNL     1      -5.045   0.639 132.487  0.00  0.00    +0.000 C 
ATOM     13  O   UNL     1      -5.362   0.377 133.649  0.00  0.00    +0.000 OA
ATOM     14  N   UNL     1      -5.512  -0.131 131.400  0.00  0.00    +0.000 N 
ATOM     15  C   UNL     1      -6.949  -0.213 131.215  0.00  0.00    +0.000 C 
ATOM     16  C   UNL     1      -7.394  -1.622 130.895  0.00  0.00    +0.000 C 
ATOM     17  C   UNL     1      -6.850  -2.056 129.254  0.00  0.00    +0.000 C 
ATOM     18  C   UNL     1      -5.215  -2.060 129.838  0.00  0.00    +0.000 C 
ATOM     19  C   UNL     1      -4.712  -0.683 130.293  0.00  0.00    +0.000 C 
BRANCH  17  20
ATOM     20  N   UNL     1      -7.936  -1.426 127.883  0.00  0.00    +0.000 N 
ATOM     21  C   UNL     1      -8.192  -2.820 127.678  0.00  0.00    +0.000 C 
ATOM     22  O   UNL     1      -8.500  -3.734 128.495  0.00  0.00    +0.000 OA
ATOM     23  O   UNL     1      -7.815  -3.275 126.512  0.00  0.00    +0.000 OA
ATOM     24  C   UNL     1      -9.055  -3.223 125.928  0.00  0.00    +0.000 C 
ATOM     25  C   UNL     1      -8.742  -1.989 125.230  0.00  0.00    +0.000 A 
ATOM     26  C   UNL     1      -9.129  -2.176 123.758  0.00  0.00    +0.000 A 
ATOM     27  C   UNL     1      -9.169  -1.197 122.822  0.00  0.00    +0.000 A 
ATOM     28  C   UNL     1      -9.139   0.001 123.493  0.00  0.00    +0.000 A 
ATOM     29  C   UNL     1      -8.811   0.149 125.122  0.00  0.00    +0.000 A 
ATOM     30  C   UNL     1      -8.279  -0.928 126.114  0.00  0.00    +0.000 A 
ENDBRANCH  17  20
ENDBRANCH   9  12
BRANCH   5  31
ATOM     31  C   UNL     1      -1.249   6.243 131.866  0.00  0.00    +0.000 C 
BRANCH  31  32
ATOM     32  C   UNL     1      -1.902   7.536 132.352  0.00  0.00    +0.000 C 
ATOM     33  C   UNL     1      -3.277   7.240 132.957  0.00  0.00    +0.000 C 
ATOM     34  C   UNL     1      -3.051   6.922 134.389  0.00  0.00    +0.000 C 
ATOM     35  C   UNL     1      -1.791   7.685 134.742  0.00  0.00    +0.000 C 
ATOM     36  N   UNL     1      -1.262   8.272 133.470  0.00  0.00    +0.000 NA
BRANCH  36  37
ATOM     37  S   UNL     1      -1.380  10.000 133.336  0.00  0.00    +0.000 S 
ATOM     38  C   UNL     1      -2.130  10.551 134.882  0.00  0.00    +0.000 C 
ATOM     39  O   UNL     1      -0.030  10.518 133.295  0.00  0.00    +0.000 OA
ATOM     40  O   UNL     1      -2.326  10.297 132.282  0.00  0.00    +0.000 OA
ENDBRANCH  36  37
ENDBRANCH  31  32
ENDBRANCH   5  31
TORSDOF 5
ENDMDL
MODEL 7
REMARK VINA RESULT:      -9.5      4.062      9.071
REMARK  Name = CHEMBL30865
REMARK  8 active torsions:
REMARK  status: ('A' for Active; 'I' for Inactive)
REMARK    1  A    between atoms: C_1  and  C_2
REMARK    2  A    between atoms: C_3  and  C_4
REMARK    3  A    between atoms: N_5  and  C_6
REMARK    4  A    between atoms: C_6  and  C_7
REMARK    5  A    between atoms: N_11  and  S_12
REMARK    6  A    between atoms: S_12  and  C_13
REMARK    7  A    between atoms: C_19  and  C_20
REMARK    8  A    between atoms: C_25  and  N_26
REMARK                            x       y       z     vdW  Elec       q    Type
REMARK                         _______ _______ _______ _____ _____    ______ ____
ROOT
ATOM      1  C   UNL     1      -9.136   3.141 133.361  0.00  0.00    +0.000 C 
ATOM      2  C   UNL     1      -7.670   3.082 133.582  0.00  0.00    +0.000 A 
ATOM      3  C   UNL     1      -6.894   4.152 133.974  0.00  0.00    +0.000 A 
ATOM      4  C   UNL     1      -7.461   5.532 134.174  0.00  0.00    +0.000 C 
ATOM      5  N   UNL     1      -5.576   3.688 134.119  0.00  0.00    +0.000 N 
ATOM      6  C   UNL     1      -5.524   2.349 133.719  0.00  0.00    +0.000 A 
ATOM      7  C   UNL     1      -4.460   1.439 133.604  0.00  0.00    +0.000 A 
ATOM      8  C   UNL     1      -4.736   0.144 133.134  0.00  0.00    +0.000 A 
ATOM      9  C   UNL     1      -6.021  -0.283 132.816  0.00  0.00    +0.000 A 
ATOM     10  C   UNL     1      -7.073   0.644 132.921  0.00  0.00    +0.000 A 
ATOM     11  C   UNL     1      -6.824   1.962 133.382  0.00  0.00    +0.000 A 
ENDROOT
BRANCH   9  12
ATOM     12  C   UNL     1      -6.282  -1.656 132.255  0.00  0.00    +0.000 C 
ATOM     13  O   UNL     1      -6.457  -2.582 133.048  0.00  0.00    +0.000 OA
ATOM     14  N   UNL     1      -6.500  -1.815 130.869  0.00  0.00    +0.000 N 
ATOM     15  C   UNL     1      -7.832  -2.207 130.448  0.00  0.00    +0.000 C 
ATOM     16  C   UNL     1      -7.792  -3.278 129.381  0.00  0.00    +0.000 C 
ATOM     17  C   UNL     1      -7.186  -2.574 127.860  0.00  0.00    +0.000 C 
ATOM     18  C   UNL     1      -5.625  -2.406 128.602  0.00  0.00    +0.000 C 
ATOM     19  C   UNL     1      -5.596  -1.417 129.775  0.00  0.00    +0.000 C 
BRANCH  17  20
ATOM     20  N   UNL     1      -8.462  -1.661 126.863  0.00  0.00    +0.000 N 
ATOM     21  C   UNL     1      -8.223  -2.709 125.917  0.00  0.00    +0.000 C 
ATOM     22  O   UNL     1      -8.171  -3.963 126.067  0.00  0.00    +0.000 OA
ATOM     23  O   UNL     1      -7.745  -2.305 124.769  0.00  0.00    +0.000 OA
ATOM     24  C   UNL     1      -8.943  -2.322 124.100  0.00  0.00    +0.000 C 
ATOM     25  C   UNL     1      -9.098  -0.883 124.218  0.00  0.00    +0.000 A 
ATOM     26  C   UNL     1      -9.438  -0.336 122.826  0.00  0.00    +0.000 A 
ATOM     27  C   UNL     1      -9.843   0.927 122.553  0.00  0.00    +0.000 A 
ATOM     28  C   UNL     1     -10.212   1.498 123.746  0.00  0.00    +0.000 A 
ATOM     29  C   UNL     1      -9.909   0.816 125.238  0.00  0.00    +0.000 A 
ATOM     30  C   UNL     1      -9.008  -0.405 125.591  0.00  0.00    +0.000 A 
ENDBRANCH  17  20
ENDBRANCH   9  12
BRANCH   5  31
ATOM     31  C   UNL     1      -4.391   4.428 134.623  0.00  0.00    +0.000 C 
BRANCH  31  32
ATOM     32  C   UNL     1      -3.866   5.424 133.589  0.00  0.00    +0.000 C 
ATOM     33  C   UNL     1      -2.335   5.418 133.579  0.00  0.00    +0.000 C 
ATOM     34  C   UNL     1      -1.921   4.353 132.630  0.00  0.00    +0.000 C 
ATOM     35  C   UNL     1      -3.069   4.272 131.644  0.00  0.00    +0.000 C 
ATOM     36  N   UNL     1      -4.152   5.170 132.156  0.00  0.00    +0.000 NA
BRANCH  36  37
ATOM     37  S   UNL     1      -4.434   6.609 131.226  0.00  0.00    +0.000 S 
ATOM     38  C   UNL     1      -3.613   6.328 129.644  0.00  0.00    +0.000 C 
ATOM     39  O   UNL     1      -5.856   6.684 130.975  0.00  0.00    +0.000 OA
ATOM     40  O   UNL     1      -3.732   7.697 131.875  0.00  0.00    +0.000 OA
ENDBRANCH  36  37
ENDBRANCH  31  32
ENDBRANCH   5  31
TORSDOF 5
ENDMDL
MODEL 8
REMARK VINA RESULT:      -9.4      3.898      5.712
REMARK  Name = CHEMBL30865
REMARK  8 active torsions:
REMARK  status: ('A' for Active; 'I' for Inactive)
REMARK    1  A    between atoms: C_1  and  C_2
REMARK    2  A    between atoms: C_3  and  C_4
REMARK    3  A    between atoms: N_5  and  C_6
REMARK    4  A    between atoms: C_6  and  C_7
REMARK    5  A    between atoms: N_11  and  S_12
REMARK    6  A    between atoms: S_12  and  C_13
REMARK    7  A    between atoms: C_19  and  C_20
REMARK    8  A    between atoms: C_25  and  N_26
REMARK                            x       y       z     vdW  Elec       q    Type
REMARK                         _______ _______ _______ _____ _____    ______ ____
ROOT
ATOM      1  C   UNL     1      -7.998   0.820 130.128  0.00  0.00    +0.000 C 
ATOM      2  C   UNL     1      -7.198   0.461 128.931  0.00  0.00    +0.000 A 
ATOM      3  C   UNL     1      -7.106  -0.810 128.405  0.00  0.00    +0.000 A 
ATOM      4  C   UNL     1      -7.784  -1.997 129.035  0.00  0.00    +0.000 C 
ATOM      5  N   UNL     1      -6.300  -0.735 127.257  0.00  0.00    +0.000 N 
ATOM      6  C   UNL     1      -5.814   0.570 127.134  0.00  0.00    +0.000 A 
ATOM      7  C   UNL     1      -4.929   1.165 126.220  0.00  0.00    +0.000 A 
ATOM      8  C   UNL     1      -4.610   2.524 126.385  0.00  0.00    +0.000 A 
ATOM      9  C   UNL     1      -5.164   3.309 127.391  0.00  0.00    +0.000 A 
ATOM     10  C   UNL     1      -6.036   2.695 128.307  0.00  0.00    +0.000 A 
ATOM     11  C   UNL     1      -6.368   1.324 128.173  0.00  0.00    +0.000 A 
ENDROOT
BRANCH   9  12
ATOM     12  C   UNL     1      -4.758   4.746 127.585  0.00  0.00    +0.000 C 
ATOM     13  O   UNL     1      -5.025   5.550 126.690  0.00  0.00    +0.000 OA
ATOM     14  N   UNL     1      -4.259   5.169 128.836  0.00  0.00    +0.000 N 
ATOM     15  C   UNL     1      -5.087   6.079 129.606  0.00  0.00    +0.000 C 
ATOM     16  C   UNL     1      -4.273   7.199 130.214  0.00  0.00    +0.000 C 
ATOM     17  C   UNL     1      -3.246   6.546 131.515  0.00  0.00    +0.000 C 
ATOM     18  C   UNL     1      -2.314   5.712 130.310  0.00  0.00    +0.000 C 
ATOM     19  C   UNL     1      -3.096   4.626 129.559  0.00  0.00    +0.000 C 
BRANCH  17  20
ATOM     20  N   UNL     1      -4.108   6.318 133.146  0.00  0.00    +0.000 N 
ATOM     21  C   UNL     1      -2.999   7.074 133.643  0.00  0.00    +0.000 C 
ATOM     22  O   UNL     1      -2.482   8.152 133.233  0.00  0.00    +0.000 OA
ATOM     23  O   UNL     1      -2.250   6.436 134.504  0.00  0.00    +0.000 OA
ATOM     24  C   UNL     1      -2.806   6.998 135.625  0.00  0.00    +0.000 C 
ATOM     25  C   UNL     1      -3.614   5.820 135.888  0.00  0.00    +0.000 A 
ATOM     26  C   UNL     1      -3.420   5.441 137.361  0.00  0.00    +0.000 A 
ATOM     27  C   UNL     1      -4.143   4.519 138.040  0.00  0.00    +0.000 A 
ATOM     28  C   UNL     1      -5.262   4.255 137.290  0.00  0.00    +0.000 A 
ATOM     29  C   UNL     1      -5.475   4.774 135.719  0.00  0.00    +0.000 A 
ATOM     30  C   UNL     1      -4.439   5.423 134.754  0.00  0.00    +0.000 A 
ENDBRANCH  17  20
ENDBRANCH   9  12
BRANCH   5  31
ATOM     31  C   UNL     1      -5.987  -1.811 126.282  0.00  0.00    +0.000 C 
BRANCH  31  32
ATOM     32  C   UNL     1      -6.849  -1.704 125.026  0.00  0.00    +0.000 C 
ATOM     33  C   UNL     1      -7.066  -3.089 124.412  0.00  0.00    +0.000 C 
ATOM     34  C   UNL     1      -8.263  -3.665 125.076  0.00  0.00    +0.000 C 
ATOM     35  C   UNL     1      -9.081  -2.454 125.474  0.00  0.00    +0.000 C 
ATOM     36  N   UNL     1      -8.253  -1.244 125.171  0.00  0.00    +0.000 NA
BRANCH  36  37
ATOM     37  S   UNL     1      -8.814  -0.263 123.852  0.00  0.00    +0.000 S 
ATOM     38  C   UNL     1      -9.744   1.081 124.615  0.00  0.00    +0.000 C 
ATOM     39  O   UNL     1      -7.647   0.313 123.223  0.00  0.00    +0.000 OA
ATOM     40  O   UNL     1      -9.763  -1.049 123.090  0.00  0.00    +0.000 OA
ENDBRANCH  36  37
ENDBRANCH  31  32
ENDBRANCH   5  31
TORSDOF 5
ENDMDL
MODEL 9
REMARK VINA RESULT:      -9.4      3.853      9.273
REMARK  Name = CHEMBL30865
REMARK  8 active torsions:
REMARK  status: ('A' for Active; 'I' for Inactive)
REMARK    1  A    between atoms: C_1  and  C_2
REMARK    2  A    between atoms: C_3  and  C_4
REMARK    3  A    between atoms: N_5  and  C_6
REMARK    4  A    between atoms: C_6  and  C_7
REMARK    5  A    between atoms: N_11  and  S_12
REMARK    6  A    between atoms: S_12  and  C_13
REMARK    7  A    between atoms: C_19  and  C_20
REMARK    8  A    between atoms: C_25  and  N_26
REMARK                            x       y       z     vdW  Elec       q    Type
REMARK                         _______ _______ _______ _____ _____    ______ ____
ROOT
ATOM      1  C   UNL     1      -9.429   3.666 131.750  0.00  0.00    +0.000 C 
ATOM      2  C   UNL     1      -8.047   4.033 132.150  0.00  0.00    +0.000 A 
ATOM      3  C   UNL     1      -7.458   5.253 131.897  0.00  0.00    +0.000 A 
ATOM      4  C   UNL     1      -8.156   6.344 131.130  0.00  0.00    +0.000 C 
ATOM      5  N   UNL     1      -6.174   5.230 132.466  0.00  0.00    +0.000 N 
ATOM      6  C   UNL     1      -5.937   3.953 132.985  0.00  0.00    +0.000 A 
ATOM      7  C   UNL     1      -4.809   3.376 133.593  0.00  0.00    +0.000 A 
ATOM      8  C   UNL     1      -4.878   2.030 133.989  0.00  0.00    +0.000 A 
ATOM      9  C   UNL     1      -6.026   1.259 133.836  0.00  0.00    +0.000 A 
ATOM     10  C   UNL     1      -7.141   1.846 133.212  0.00  0.00    +0.000 A 
ATOM     11  C   UNL     1      -7.098   3.199 132.792  0.00  0.00    +0.000 A 
ENDROOT
BRANCH   9  12
ATOM     12  C   UNL     1      -6.054  -0.199 134.211  0.00  0.00    +0.000 C 
ATOM     13  O   UNL     1      -6.448  -0.501 135.339  0.00  0.00    +0.000 OA
ATOM     14  N   UNL     1      -5.811  -1.180 133.224  0.00  0.00    +0.000 N 
ATOM     15  C   UNL     1      -6.927  -2.025 132.841  0.00  0.00    +0.000 C 
ATOM     16  C   UNL     1      -6.516  -3.475 132.720  0.00  0.00    +0.000 C 
ATOM     17  C   UNL     1      -5.475  -3.677 131.288  0.00  0.00    +0.000 C 
ATOM     18  C   UNL     1      -4.240  -2.769 132.104  0.00  0.00    +0.000 C 
ATOM     19  C   UNL     1      -4.616  -1.306 132.371  0.00  0.00    +0.000 C 
BRANCH  17  20
ATOM     20  N   UNL     1      -6.389  -3.826 129.676  0.00  0.00    +0.000 N 
ATOM     21  C   UNL     1      -5.280  -3.071 129.176  0.00  0.00    +0.000 C 
ATOM     22  O   UNL     1      -4.036  -3.228 129.328  0.00  0.00    +0.000 OA
ATOM     23  O   UNL     1      -5.597  -1.900 128.687  0.00  0.00    +0.000 OA
ATOM     24  C   UNL     1      -5.599  -2.287 127.372  0.00  0.00    +0.000 C 
ATOM     25  C   UNL     1      -7.048  -2.377 127.337  0.00  0.00    +0.000 A 
ATOM     26  C   UNL     1      -7.532  -1.609 126.101  0.00  0.00    +0.000 A 
ATOM     27  C   UNL     1      -8.796  -1.616 125.613  0.00  0.00    +0.000 A 
ATOM     28  C   UNL     1      -9.449  -2.671 126.203  0.00  0.00    +0.000 A 
ATOM     29  C   UNL     1      -8.837  -3.545 127.486  0.00  0.00    +0.000 A 
ATOM     30  C   UNL     1      -7.597  -3.236 128.377  0.00  0.00    +0.000 A 
ENDBRANCH  17  20
ENDBRANCH   9  12
BRANCH   5  31
ATOM     31  C   UNL     1      -5.188   6.336 132.556  0.00  0.00    +0.000 C 
BRANCH  31  32
ATOM     32  C   UNL     1      -4.462   6.554 131.230  0.00  0.00    +0.000 C 
ATOM     33  C   UNL     1      -3.478   7.722 131.350  0.00  0.00    +0.000 C 
ATOM     34  C   UNL     1      -2.202   7.151 131.852  0.00  0.00    +0.000 C 
ATOM     35  C   UNL     1      -2.219   5.720 131.354  0.00  0.00    +0.000 C 
ATOM     36  N   UNL     1      -3.561   5.485 130.734  0.00  0.00    +0.000 NA
BRANCH  36  37
ATOM     37  S   UNL     1      -3.567   5.301 129.007  0.00  0.00    +0.000 S 
ATOM     38  C   UNL     1      -2.300   6.432 128.399  0.00  0.00    +0.000 C 
ATOM     39  O   UNL     1      -3.125   3.954 128.720  0.00  0.00    +0.000 OA
ATOM     40  O   UNL     1      -4.838   5.791 128.515  0.00  0.00    +0.000 OA
ENDBRANCH  36  37
ENDBRANCH  31  32
ENDBRANCH   5  31
TORSDOF 5
ENDMDL
