MODEL 1
REMARK VINA RESULT:      -9.3      0.000      0.000
REMARK  Name = CHEMBL31986
REMARK  4 active torsions:
REMARK  status: ('A' for Active; 'I' for Inactive)
REMARK    1  A    between atoms: C_1  and  C_2
REMARK    2  A    between atoms: C_4  and  C_5
REMARK    3  A    between atoms: C_12  and  C_13
REMARK    4  A    between atoms: C_18  and  N_19
REMARK                            x       y       z     vdW  Elec       q    Type
REMARK                         _______ _______ _______ _____ _____    ______ ____
ROOT
ATOM      1  C   UNL     1      -8.634   2.810 132.400  0.00  0.00    +0.000 C 
ATOM      2  O   UNL     1      -8.734   2.307 133.522  0.00  0.00    +0.000 OA
ATOM      3  N   UNL     1      -8.112   2.017 131.367  0.00  0.00    +0.000 N 
ATOM      4  C   UNL     1      -8.730   0.727 131.074  0.00  0.00    +0.000 C 
ATOM      5  C   UNL     1      -7.700  -0.391 131.069  0.00  0.00    +0.000 C 
ATOM      6  C   UNL     1      -6.523  -0.082 130.120  0.00  0.00    +0.000 C 
ATOM      7  C   UNL     1      -5.888   1.260 130.513  0.00  0.00    +0.000 C 
ATOM      8  C   UNL     1      -6.917   2.368 130.605  0.00  0.00    +0.000 C 
ENDROOT
BRANCH   6   9
ATOM      9  N   UNL     1      -6.882  -0.259 128.667  0.00  0.00    +0.000 N 
ATOM     10  C   UNL     1      -6.619   0.675 127.664  0.00  0.00    +0.000 C 
ATOM     11  O   UNL     1      -5.562   1.250 127.426  0.00  0.00    +0.000 OA
ATOM     12  O   UNL     1      -7.711   0.993 126.927  0.00  0.00    +0.000 OA
ATOM     13  C   UNL     1      -8.087  -0.102 126.122  0.00  0.00    +0.000 C 
ATOM     14  C   UNL     1      -8.201  -1.348 126.944  0.00  0.00    +0.000 A 
ATOM     15  C   UNL     1      -8.864  -2.452 126.407  0.00  0.00    +0.000 A 
ATOM     16  C   UNL     1      -8.955  -3.625 127.143  0.00  0.00    +0.000 A 
ATOM     17  C   UNL     1      -8.375  -3.696 128.407  0.00  0.00    +0.000 A 
ATOM     18  C   UNL     1      -7.710  -2.593 128.950  0.00  0.00    +0.000 A 
ATOM     19  C   UNL     1      -7.618  -1.403 128.226  0.00  0.00    +0.000 A 
ENDBRANCH   6   9
BRANCH   1  25
ATOM     20  C   UNL     1      -8.120   5.708 133.835  0.00  0.00    +0.000 C 
ATOM     21  C   UNL     1      -8.914   5.398 132.634  0.00  0.00    +0.000 A 
ATOM     22  N   UNL     1      -9.492   6.483 131.999  0.00  0.00    +0.000 NA
ATOM     23  C   UNL     1     -10.179   6.100 130.950  0.00  0.00    +0.000 A 
ATOM     24  S   UNL     1     -10.145   4.400 130.661  0.00  0.00    +0.000 S 
ATOM     25  C   UNL     1      -9.145   4.151 132.066  0.00  0.00    +0.000 A 
BRANCH  23  26
ATOM     26  C   UNL     1     -10.897   7.051 130.085  0.00  0.00    +0.000 A 
ATOM     27  C   UNL     1     -12.148   7.562 130.433  0.00  0.00    +0.000 A 
ATOM     28  C   UNL     1     -12.729   8.521 129.614  0.00  0.00    +0.000 A 
ATOM     29  N   UNL     1     -12.164   8.991 128.483  0.00  0.00    +0.000 NA
ATOM     30  C   UNL     1     -10.950   8.498 128.166  0.00  0.00    +0.000 A 
ATOM     31  C   UNL     1     -10.279   7.554 128.931  0.00  0.00    +0.000 A 
ENDBRANCH  23  26
ENDBRANCH   1  25
TORSDOF 3
ENDMDL
MODEL 2
REMARK VINA RESULT:      -9.1      4.119      5.521
REMARK  Name = CHEMBL31986
REMARK  4 active torsions:
REMARK  status: ('A' for Active; 'I' for Inactive)
REMARK    1  A    between atoms: C_1  and  C_2
REMARK    2  A    between atoms: C_4  and  C_5
REMARK    3  A    between atoms: C_12  and  C_13
REMARK    4  A    between atoms: C_18  and  N_19
REMARK                            x       y       z     vdW  Elec       q    Type
REMARK                         _______ _______ _______ _____ _____    ______ ____
ROOT
ATOM      1  C   UNL     1      -6.666   3.802 129.042  0.00  0.00    +0.000 C 
ATOM      2  O   UNL     1      -5.986   2.972 129.650  0.00  0.00    +0.000 OA
ATOM      3  N   UNL     1      -6.659   3.759 127.640  0.00  0.00    +0.000 N 
ATOM      4  C   UNL     1      -7.007   2.516 126.960  0.00  0.00    +0.000 C 
ATOM      5  C   UNL     1      -5.937   2.113 125.959  0.00  0.00    +0.000 C 
ATOM      6  C   UNL     1      -5.626   3.251 124.964  0.00  0.00    +0.000 C 
ATOM      7  C   UNL     1      -5.219   4.511 125.740  0.00  0.00    +0.000 C 
ATOM      8  C   UNL     1      -6.236   4.878 126.800  0.00  0.00    +0.000 C 
ENDROOT
BRANCH   6   9
ATOM      9  N   UNL     1      -6.695   3.419 123.916  0.00  0.00    +0.000 N 
ATOM     10  C   UNL     1      -8.058   3.200 124.129  0.00  0.00    +0.000 C 
ATOM     11  O   UNL     1      -8.757   3.627 125.041  0.00  0.00    +0.000 OA
ATOM     12  O   UNL     1      -8.615   2.362 123.221  0.00  0.00    +0.000 OA
ATOM     13  C   UNL     1      -8.682   2.991 121.960  0.00  0.00    +0.000 C 
ATOM     14  C   UNL     1      -7.351   3.562 121.583  0.00  0.00    +0.000 A 
ATOM     15  C   UNL     1      -7.128   3.934 120.256  0.00  0.00    +0.000 A 
ATOM     16  C   UNL     1      -5.910   4.491 119.893  0.00  0.00    +0.000 A 
ATOM     17  C   UNL     1      -4.923   4.686 120.856  0.00  0.00    +0.000 A 
ATOM     18  C   UNL     1      -5.141   4.316 122.186  0.00  0.00    +0.000 A 
ATOM     19  C   UNL     1      -6.358   3.744 122.565  0.00  0.00    +0.000 A 
ENDBRANCH   6   9
BRANCH   1  25
ATOM     20  C   UNL     1      -6.127   5.911 131.488  0.00  0.00    +0.000 C 
ATOM     21  C   UNL     1      -7.364   5.678 130.722  0.00  0.00    +0.000 A 
ATOM     22  N   UNL     1      -8.437   6.487 131.052  0.00  0.00    +0.000 NA
ATOM     23  C   UNL     1      -9.485   6.196 130.321  0.00  0.00    +0.000 A 
ATOM     24  S   UNL     1      -9.222   4.937 129.173  0.00  0.00    +0.000 S 
ATOM     25  C   UNL     1      -7.575   4.749 129.711  0.00  0.00    +0.000 A 
BRANCH  23  26
ATOM     26  C   UNL     1     -10.767   6.907 130.459  0.00  0.00    +0.000 A 
ATOM     27  C   UNL     1     -11.618   6.684 131.543  0.00  0.00    +0.000 A 
ATOM     28  C   UNL     1     -12.770   7.451 131.657  0.00  0.00    +0.000 A 
ATOM     29  N   UNL     1     -13.134   8.403 130.773  0.00  0.00    +0.000 NA
ATOM     30  C   UNL     1     -12.296   8.617 129.738  0.00  0.00    +0.000 A 
ATOM     31  C   UNL     1     -11.112   7.917 129.550  0.00  0.00    +0.000 A 
ENDBRANCH  23  26
ENDBRANCH   1  25
TORSDOF 3
ENDMDL
MODEL 3
REMARK VINA RESULT:      -8.9      2.977      3.656
REMARK  Name = CHEMBL31986
REMARK  4 active torsions:
REMARK  status: ('A' for Active; 'I' for Inactive)
REMARK    1  A    between atoms: C_1  and  C_2
REMARK    2  A    between atoms: C_4  and  C_5
REMARK    3  A    between atoms: C_12  and  C_13
REMARK    4  A    between atoms: C_18  and  N_19
REMARK                            x       y       z     vdW  Elec       q    Type
REMARK                         _______ _______ _______ _____ _____    ______ ____
ROOT
ATOM      1  C   UNL     1      -6.698   3.610 129.409  0.00  0.00    +0.000 C 
ATOM      2  O   UNL     1      -5.887   3.034 130.137  0.00  0.00    +0.000 OA
ATOM      3  N   UNL     1      -6.890   3.111 128.112  0.00  0.00    +0.000 N 
ATOM      4  C   UNL     1      -7.254   1.709 127.932  0.00  0.00    +0.000 C 
ATOM      5  C   UNL     1      -6.315   1.014 126.959  0.00  0.00    +0.000 C 
ATOM      6  C   UNL     1      -6.224   1.767 125.615  0.00  0.00    +0.000 C 
ATOM      7  C   UNL     1      -5.789   3.218 125.871  0.00  0.00    +0.000 C 
ATOM      8  C   UNL     1      -6.665   3.898 126.903  0.00  0.00    +0.000 C 
ENDROOT
BRANCH   6   9
ATOM      9  N   UNL     1      -7.441   1.570 124.750  0.00  0.00    +0.000 N 
ATOM     10  C   UNL     1      -8.457   2.512 124.580  0.00  0.00    +0.000 C 
ATOM     11  O   UNL     1      -8.345   3.702 124.306  0.00  0.00    +0.000 OA
ATOM     12  O   UNL     1      -9.696   2.014 124.813  0.00  0.00    +0.000 OA
ATOM     13  C   UNL     1     -10.054   1.111 123.791  0.00  0.00    +0.000 C 
ATOM     14  C   UNL     1      -8.976   0.094 123.583  0.00  0.00    +0.000 A 
ATOM     15  C   UNL     1      -9.269  -1.061 122.856  0.00  0.00    +0.000 A 
ATOM     16  C   UNL     1      -8.275  -2.002 122.629  0.00  0.00    +0.000 A 
ATOM     17  C   UNL     1      -6.989  -1.784 123.118  0.00  0.00    +0.000 A 
ATOM     18  C   UNL     1      -6.690  -0.629 123.847  0.00  0.00    +0.000 A 
ATOM     19  C   UNL     1      -7.682   0.323 124.092  0.00  0.00    +0.000 A 
ENDBRANCH   6   9
BRANCH   1  25
ATOM     20  C   UNL     1      -5.946   6.416 130.922  0.00  0.00    +0.000 C 
ATOM     21  C   UNL     1      -7.263   5.926 130.480  0.00  0.00    +0.000 A 
ATOM     22  N   UNL     1      -8.327   6.784 130.698  0.00  0.00    +0.000 NA
ATOM     23  C   UNL     1      -9.450   6.254 130.278  0.00  0.00    +0.000 A 
ATOM     24  S   UNL     1      -9.276   4.689 129.573  0.00  0.00    +0.000 S 
ATOM     25  C   UNL     1      -7.560   4.713 129.872  0.00  0.00    +0.000 A 
BRANCH  23  26
ATOM     26  C   UNL     1     -10.742   6.953 130.382  0.00  0.00    +0.000 A 
ATOM     27  C   UNL     1     -11.617   6.725 131.445  0.00  0.00    +0.000 A 
ATOM     28  C   UNL     1     -12.779   7.481 131.528  0.00  0.00    +0.000 A 
ATOM     29  N   UNL     1     -13.129   8.427 130.632  0.00  0.00    +0.000 NA
ATOM     30  C   UNL     1     -12.268   8.645 129.617  0.00  0.00    +0.000 A 
ATOM     31  C   UNL     1     -11.073   7.955 129.461  0.00  0.00    +0.000 A 
ENDBRANCH  23  26
ENDBRANCH   1  25
TORSDOF 3
ENDMDL
MODEL 4
REMARK VINA RESULT:      -8.6      4.947      6.801
REMARK  Name = CHEMBL31986
REMARK  4 active torsions:
REMARK  status: ('A' for Active; 'I' for Inactive)
REMARK    1  A    between atoms: C_1  and  C_2
REMARK    2  A    between atoms: C_4  and  C_5
REMARK    3  A    between atoms: C_12  and  C_13
REMARK    4  A    between atoms: C_18  and  N_19
REMARK                            x       y       z     vdW  Elec       q    Type
REMARK                         _______ _______ _______ _____ _____    ______ ____
ROOT
ATOM      1  C   UNL     1      -5.255   4.722 126.793  0.00  0.00    +0.000 C 
ATOM      2  O   UNL     1      -5.599   5.543 125.940  0.00  0.00    +0.000 OA
ATOM      3  N   UNL     1      -5.783   3.424 126.708  0.00  0.00    +0.000 N 
ATOM      4  C   UNL     1      -5.629   2.669 125.469  0.00  0.00    +0.000 C 
ATOM      5  C   UNL     1      -6.965   2.144 124.972  0.00  0.00    +0.000 C 
ATOM      6  C   UNL     1      -7.703   1.333 126.058  0.00  0.00    +0.000 C 
ATOM      7  C   UNL     1      -7.877   2.200 127.313  0.00  0.00    +0.000 C 
ATOM      8  C   UNL     1      -6.564   2.800 127.773  0.00  0.00    +0.000 C 
ENDROOT
BRANCH   6   9
ATOM      9  N   UNL     1      -7.117  -0.040 126.262  0.00  0.00    +0.000 N 
ATOM     10  C   UNL     1      -6.910  -0.640 127.505  0.00  0.00    +0.000 C 
ATOM     11  O   UNL     1      -7.703  -0.742 128.435  0.00  0.00    +0.000 OA
ATOM     12  O   UNL     1      -5.647  -1.098 127.676  0.00  0.00    +0.000 OA
ATOM     13  C   UNL     1      -5.422  -2.217 126.847  0.00  0.00    +0.000 C 
ATOM     14  C   UNL     1      -5.816  -1.915 125.435  0.00  0.00    +0.000 A 
ATOM     15  C   UNL     1      -5.378  -2.763 124.416  0.00  0.00    +0.000 A 
ATOM     16  C   UNL     1      -5.755  -2.516 123.105  0.00  0.00    +0.000 A 
ATOM     17  C   UNL     1      -6.578  -1.430 122.813  0.00  0.00    +0.000 A 
ATOM     18  C   UNL     1      -7.020  -0.578 123.830  0.00  0.00    +0.000 A 
ATOM     19  C   UNL     1      -6.640  -0.808 125.154  0.00  0.00    +0.000 A 
ENDBRANCH   6   9
BRANCH   1  25
ATOM     20  C   UNL     1      -2.176   3.640 127.073  0.00  0.00    +0.000 C 
ATOM     21  C   UNL     1      -2.909   4.583 127.936  0.00  0.00    +0.000 A 
ATOM     22  N   UNL     1      -2.188   5.118 128.989  0.00  0.00    +0.000 NA
ATOM     23  C   UNL     1      -2.929   5.935 129.696  0.00  0.00    +0.000 A 
ATOM     24  S   UNL     1      -4.540   6.119 129.111  0.00  0.00    +0.000 S 
ATOM     25  C   UNL     1      -4.229   4.997 127.814  0.00  0.00    +0.000 A 
BRANCH  23  26
ATOM     26  C   UNL     1      -2.413   6.649 130.876  0.00  0.00    +0.000 A 
ATOM     27  C   UNL     1      -1.176   6.337 131.442  0.00  0.00    +0.000 A 
ATOM     28  C   UNL     1      -0.711   7.107 132.500  0.00  0.00    +0.000 A 
ATOM     29  N   UNL     1      -1.388   8.145 133.033  0.00  0.00    +0.000 NA
ATOM     30  C   UNL     1      -2.575   8.444 132.468  0.00  0.00    +0.000 A 
ATOM     31  C   UNL     1      -3.114   7.747 131.395  0.00  0.00    +0.000 A 
ENDBRANCH  23  26
ENDBRANCH   1  25
TORSDOF 3
ENDMDL
MODEL 5
REMARK VINA RESULT:      -8.5      2.231      2.993
REMARK  Name = CHEMBL31986
REMARK  4 active torsions:
REMARK  status: ('A' for Active; 'I' for Inactive)
REMARK    1  A    between atoms: C_1  and  C_2
REMARK    2  A    between atoms: C_4  and  C_5
REMARK    3  A    between atoms: C_12  and  C_13
REMARK    4  A    between atoms: C_18  and  N_19
REMARK                            x       y       z     vdW  Elec       q    Type
REMARK                         _______ _______ _______ _____ _____    ______ ____
ROOT
ATOM      1  C   UNL     1      -7.239   4.484 133.021  0.00  0.00    +0.000 C 
ATOM      2  O   UNL     1      -7.074   4.676 134.228  0.00  0.00    +0.000 OA
ATOM      3  N   UNL     1      -6.921   3.219 132.506  0.00  0.00    +0.000 N 
ATOM      4  C   UNL     1      -7.534   2.033 133.095  0.00  0.00    +0.000 C 
ATOM      5  C   UNL     1      -6.486   1.006 133.491  0.00  0.00    +0.000 C 
ATOM      6  C   UNL     1      -5.555   0.653 132.311  0.00  0.00    +0.000 C 
ATOM      7  C   UNL     1      -4.905   1.936 131.772  0.00  0.00    +0.000 C 
ATOM      8  C   UNL     1      -5.934   3.001 131.452  0.00  0.00    +0.000 C 
ENDROOT
BRANCH   6   9
ATOM      9  N   UNL     1      -6.212  -0.248 131.298  0.00  0.00    +0.000 N 
ATOM     10  C   UNL     1      -7.240   0.140 130.437  0.00  0.00    +0.000 C 
ATOM     11  O   UNL     1      -7.288   1.132 129.719  0.00  0.00    +0.000 OA
ATOM     12  O   UNL     1      -8.315  -0.684 130.480  0.00  0.00    +0.000 OA
ATOM     13  C   UNL     1      -7.994  -1.929 129.900  0.00  0.00    +0.000 C 
ATOM     14  C   UNL     1      -6.734  -2.478 130.492  0.00  0.00    +0.000 A 
ATOM     15  C   UNL     1      -6.425  -3.824 130.292  0.00  0.00    +0.000 A 
ATOM     16  C   UNL     1      -5.248  -4.345 130.810  0.00  0.00    +0.000 A 
ATOM     17  C   UNL     1      -4.376  -3.519 131.516  0.00  0.00    +0.000 A 
ATOM     18  C   UNL     1      -4.681  -2.169 131.719  0.00  0.00    +0.000 A 
ATOM     19  C   UNL     1      -5.866  -1.633 131.213  0.00  0.00    +0.000 A 
ENDBRANCH   6   9
BRANCH   1  25
ATOM     20  C   UNL     1      -5.913   6.892 131.240  0.00  0.00    +0.000 C 
ATOM     21  C   UNL     1      -7.323   6.475 131.330  0.00  0.00    +0.000 A 
ATOM     22  N   UNL     1      -8.207   7.169 130.522  0.00  0.00    +0.000 NA
ATOM     23  C   UNL     1      -9.431   6.728 130.681  0.00  0.00    +0.000 A 
ATOM     24  S   UNL     1      -9.577   5.429 131.806  0.00  0.00    +0.000 S 
ATOM     25  C   UNL     1      -7.865   5.471 132.123  0.00  0.00    +0.000 A 
BRANCH  23  26
ATOM     26  C   UNL     1     -10.575   7.285 129.940  0.00  0.00    +0.000 A 
ATOM     27  C   UNL     1     -10.400   8.044 128.781  0.00  0.00    +0.000 A 
ATOM     28  C   UNL     1     -11.525   8.466 128.084  0.00  0.00    +0.000 A 
ATOM     29  N   UNL     1     -12.792   8.198 128.460  0.00  0.00    +0.000 NA
ATOM     30  C   UNL     1     -12.945   7.452 129.573  0.00  0.00    +0.000 A 
ATOM     31  C   UNL     1     -11.884   6.967 130.326  0.00  0.00    +0.000 A 
ENDBRANCH  23  26
ENDBRANCH   1  25
TORSDOF 3
ENDMDL
MODEL 6
REMARK VINA RESULT:      -8.5      2.732      3.991
REMARK  Name = CHEMBL31986
REMARK  4 active torsions:
REMARK  status: ('A' for Active; 'I' for Inactive)
REMARK    1  A    between atoms: C_1  and  C_2
REMARK    2  A    between atoms: C_4  and  C_5
REMARK    3  A    between atoms: C_12  and  C_13
REMARK    4  A    between atoms: C_18  and  N_19
REMARK                            x       y       z     vdW  Elec       q    Type
REMARK                         _______ _______ _______ _____ _____    ______ ____
ROOT
ATOM      1  C   UNL     1      -7.023   3.703 127.926  0.00  0.00    +0.000 C 
ATOM      2  O   UNL     1      -5.866   4.091 128.106  0.00  0.00    +0.000 OA
ATOM      3  N   UNL     1      -7.237   2.684 126.986  0.00  0.00    +0.000 N 
ATOM      4  C   UNL     1      -6.505   1.428 127.114  0.00  0.00    +0.000 C 
ATOM      5  C   UNL     1      -5.792   1.068 125.822  0.00  0.00    +0.000 C 
ATOM      6  C   UNL     1      -6.758   1.058 124.618  0.00  0.00    +0.000 C 
ATOM      7  C   UNL     1      -7.455   2.421 124.510  0.00  0.00    +0.000 C 
ATOM      8  C   UNL     1      -8.100   2.833 125.817  0.00  0.00    +0.000 C 
ENDROOT
BRANCH   6   9
ATOM      9  N   UNL     1      -7.646  -0.159 124.592  0.00  0.00    +0.000 N 
ATOM     10  C   UNL     1      -9.033  -0.135 124.752  0.00  0.00    +0.000 C 
ATOM     11  O   UNL     1      -9.845   0.582 124.178  0.00  0.00    +0.000 OA
ATOM     12  O   UNL     1      -9.478  -0.984 125.709  0.00  0.00    +0.000 OA
ATOM     13  C   UNL     1      -9.325  -2.319 125.279  0.00  0.00    +0.000 C 
ATOM     14  C   UNL     1      -7.929  -2.562 124.797  0.00  0.00    +0.000 A 
ATOM     15  C   UNL     1      -7.490  -3.877 124.636  0.00  0.00    +0.000 A 
ATOM     16  C   UNL     1      -6.209  -4.121 124.163  0.00  0.00    +0.000 A 
ATOM     17  C   UNL     1      -5.373  -3.054 123.841  0.00  0.00    +0.000 A 
ATOM     18  C   UNL     1      -5.808  -1.735 124.000  0.00  0.00    +0.000 A 
ATOM     19  C   UNL     1      -7.091  -1.473 124.484  0.00  0.00    +0.000 A 
ENDBRANCH   6   9
BRANCH   1  25
ATOM     20  C   UNL     1      -8.334   2.488 130.670  0.00  0.00    +0.000 C 
ATOM     21  C   UNL     1      -8.717   3.694 129.916  0.00  0.00    +0.000 A 
ATOM     22  N   UNL     1      -9.748   4.440 130.460  0.00  0.00    +0.000 NA
ATOM     23  C   UNL     1     -10.016   5.483 129.712  0.00  0.00    +0.000 A 
ATOM     24  S   UNL     1      -9.015   5.630 128.315  0.00  0.00    +0.000 S 
ATOM     25  C   UNL     1      -8.166   4.167 128.732  0.00  0.00    +0.000 A 
BRANCH  23  26
ATOM     26  C   UNL     1     -11.068   6.454 130.058  0.00  0.00    +0.000 A 
ATOM     27  C   UNL     1     -11.807   6.348 131.237  0.00  0.00    +0.000 A 
ATOM     28  C   UNL     1     -12.724   7.345 131.542  0.00  0.00    +0.000 A 
ATOM     29  N   UNL     1     -12.959   8.420 130.761  0.00  0.00    +0.000 NA
ATOM     30  C   UNL     1     -12.228   8.516 129.632  0.00  0.00    +0.000 A 
ATOM     31  C   UNL     1     -11.274   7.581 129.251  0.00  0.00    +0.000 A 
ENDBRANCH  23  26
ENDBRANCH   1  25
TORSDOF 3
ENDMDL
MODEL 7
REMARK VINA RESULT:      -8.4      4.667      8.316
REMARK  Name = CHEMBL31986
REMARK  4 active torsions:
REMARK  status: ('A' for Active; 'I' for Inactive)
REMARK    1  A    between atoms: C_1  and  C_2
REMARK    2  A    between atoms: C_4  and  C_5
REMARK    3  A    between atoms: C_12  and  C_13
REMARK    4  A    between atoms: C_18  and  N_19
REMARK                            x       y       z     vdW  Elec       q    Type
REMARK                         _______ _______ _______ _____ _____    ______ ____
ROOT
ATOM      1  C   UNL     1      -6.034   0.616 127.540  0.00  0.00    +0.000 C 
ATOM      2  O   UNL     1      -5.696  -0.508 127.919  0.00  0.00    +0.000 OA
ATOM      3  N   UNL     1      -5.743   1.706 128.373  0.00  0.00    +0.000 N 
ATOM      4  C   UNL     1      -4.368   1.926 128.809  0.00  0.00    +0.000 C 
ATOM      5  C   UNL     1      -4.281   2.059 130.321  0.00  0.00    +0.000 C 
ATOM      6  C   UNL     1      -5.241   3.142 130.857  0.00  0.00    +0.000 C 
ATOM      7  C   UNL     1      -6.674   2.824 130.406  0.00  0.00    +0.000 C 
ATOM      8  C   UNL     1      -6.762   2.606 128.910  0.00  0.00    +0.000 C 
ENDROOT
BRANCH   6   9
ATOM      9  N   UNL     1      -4.747   4.541 130.598  0.00  0.00    +0.000 N 
ATOM     10  C   UNL     1      -5.434   5.503 129.856  0.00  0.00    +0.000 C 
ATOM     11  O   UNL     1      -6.608   5.840 129.962  0.00  0.00    +0.000 OA
ATOM     12  O   UNL     1      -4.685   6.060 128.874  0.00  0.00    +0.000 OA
ATOM     13  C   UNL     1      -3.687   6.883 129.436  0.00  0.00    +0.000 C 
ATOM     14  C   UNL     1      -2.925   6.143 130.491  0.00  0.00    +0.000 A 
ATOM     15  C   UNL     1      -1.707   6.661 130.933  0.00  0.00    +0.000 A 
ATOM     16  C   UNL     1      -1.000   6.004 131.930  0.00  0.00    +0.000 A 
ATOM     17  C   UNL     1      -1.516   4.838 132.491  0.00  0.00    +0.000 A 
ATOM     18  C   UNL     1      -2.735   4.314 132.052  0.00  0.00    +0.000 A 
ATOM     19  C   UNL     1      -3.453   4.958 131.043  0.00  0.00    +0.000 A 
ENDBRANCH   6   9
BRANCH   1  25
ATOM     20  C   UNL     1      -8.515  -0.828 125.964  0.00  0.00    +0.000 C 
ATOM     21  C   UNL     1      -7.684   0.311 125.537  0.00  0.00    +0.000 A 
ATOM     22  N   UNL     1      -8.020   0.877 124.319  0.00  0.00    +0.000 NA
ATOM     23  C   UNL     1      -7.220   1.873 124.029  0.00  0.00    +0.000 A 
ATOM     24  S   UNL     1      -6.024   2.195 125.229  0.00  0.00    +0.000 S 
ATOM     25  C   UNL     1      -6.612   0.881 126.210  0.00  0.00    +0.000 A 
BRANCH  23  26
ATOM     26  C   UNL     1      -7.353   2.659 122.791  0.00  0.00    +0.000 A 
ATOM     27  C   UNL     1      -6.242   3.025 122.029  0.00  0.00    +0.000 A 
ATOM     28  C   UNL     1      -6.445   3.692 120.828  0.00  0.00    +0.000 A 
ATOM     29  N   UNL     1      -7.661   4.023 120.345  0.00  0.00    +0.000 NA
ATOM     30  C   UNL     1      -8.725   3.651 121.084  0.00  0.00    +0.000 A 
ATOM     31  C   UNL     1      -8.625   2.965 122.287  0.00  0.00    +0.000 A 
ENDBRANCH  23  26
ENDBRANCH   1  25
TORSDOF 3
ENDMDL
MODEL 8
REMARK VINA RESULT:      -8.2      2.806      4.663
REMARK  Name = CHEMBL31986
REMARK  4 active torsions:
REMARK  status: ('A' for Active; 'I' for Inactive)
REMARK    1  A    between atoms: C_1  and  C_2
REMARK    2  A    between atoms: C_4  and  C_5
REMARK    3  A    between atoms: C_12  and  C_13
REMARK    4  A    between atoms: C_18  and  N_19
REMARK                            x       y       z     vdW  Elec       q    Type
REMARK                         _______ _______ _______ _____ _____    ______ ____
ROOT
ATOM      1  C   UNL     1      -7.353  -1.613 131.674  0.00  0.00    +0.000 C 
ATOM      2  O   UNL     1      -7.506  -2.688 132.258  0.00  0.00    +0.000 OA
ATOM      3  N   UNL     1      -7.225  -1.633 130.277  0.00  0.00    +0.000 N 
ATOM      4  C   UNL     1      -8.259  -2.277 129.474  0.00  0.00    +0.000 C 
ATOM      5  C   UNL     1      -7.663  -3.300 128.521  0.00  0.00    +0.000 C 
ATOM      6  C   UNL     1      -6.547  -2.688 127.648  0.00  0.00    +0.000 C 
ATOM      7  C   UNL     1      -5.470  -2.074 128.554  0.00  0.00    +0.000 C 
ATOM      8  C   UNL     1      -6.060  -1.114 129.566  0.00  0.00    +0.000 C 
ENDROOT
BRANCH   6   9
ATOM      9  N   UNL     1      -7.082  -1.812 126.546  0.00  0.00    +0.000 N 
ATOM     10  C   UNL     1      -8.032  -0.804 126.721  0.00  0.00    +0.000 C 
ATOM     11  O   UNL     1      -8.036   0.092 127.557  0.00  0.00    +0.000 OA
ATOM     12  O   UNL     1      -9.087  -0.907 125.876  0.00  0.00    +0.000 OA
ATOM     13  C   UNL     1      -8.682  -0.607 124.559  0.00  0.00    +0.000 C 
ATOM     14  C   UNL     1      -7.471  -1.404 124.184  0.00  0.00    +0.000 A 
ATOM     15  C   UNL     1      -7.113  -1.494 122.838  0.00  0.00    +0.000 A 
ATOM     16  C   UNL     1      -5.978  -2.205 122.474  0.00  0.00    +0.000 A 
ATOM     17  C   UNL     1      -5.198  -2.814 123.454  0.00  0.00    +0.000 A 
ATOM     18  C   UNL     1      -5.553  -2.727 124.803  0.00  0.00    +0.000 A 
ATOM     19  C   UNL     1      -6.697  -2.024 125.185  0.00  0.00    +0.000 A 
ENDBRANCH   6   9
BRANCH   1  25
ATOM     20  C   UNL     1      -5.695  -0.458 134.252  0.00  0.00    +0.000 C 
ATOM     21  C   UNL     1      -6.706   0.220 133.422  0.00  0.00    +0.000 A 
ATOM     22  N   UNL     1      -6.965   1.539 133.749  0.00  0.00    +0.000 NA
ATOM     23  C   UNL     1      -7.880   2.046 132.959  0.00  0.00    +0.000 A 
ATOM     24  S   UNL     1      -8.463   0.956 131.758  0.00  0.00    +0.000 S 
ATOM     25  C   UNL     1      -7.422  -0.307 132.354  0.00  0.00    +0.000 A 
BRANCH  23  26
ATOM     26  C   UNL     1      -8.346   3.438 133.081  0.00  0.00    +0.000 A 
ATOM     27  C   UNL     1      -7.891   4.279 134.098  0.00  0.00    +0.000 A 
ATOM     28  C   UNL     1      -8.305   5.604 134.103  0.00  0.00    +0.000 A 
ATOM     29  N   UNL     1      -9.136   6.140 133.185  0.00  0.00    +0.000 NA
ATOM     30  C   UNL     1      -9.556   5.319 132.201  0.00  0.00    +0.000 A 
ATOM     31  C   UNL     1      -9.182   3.986 132.099  0.00  0.00    +0.000 A 
ENDBRANCH  23  26
ENDBRANCH   1  25
TORSDOF 3
ENDMDL
MODEL 9
REMARK VINA RESULT:      -8.1      3.039      3.997
REMARK  Name = CHEMBL31986
REMARK  4 active torsions:
REMARK  status: ('A' for Active; 'I' for Inactive)
REMARK    1  A    between atoms: C_1  and  C_2
REMARK    2  A    between atoms: C_4  and  C_5
REMARK    3  A    between atoms: C_12  and  C_13
REMARK    4  A    between atoms: C_18  and  N_19
REMARK                            x       y       z     vdW  Elec       q    Type
REMARK                         _______ _______ _______ _____ _____    ______ ____
ROOT
ATOM      1  C   UNL     1      -6.103   4.210 131.670  0.00  0.00    +0.000 C 
ATOM      2  O   UNL     1      -5.018   4.792 131.592  0.00  0.00    +0.000 OA
ATOM      3  N   UNL     1      -6.095   2.810 131.748  0.00  0.00    +0.000 N 
ATOM      4  C   UNL     1      -5.317   2.157 132.796  0.00  0.00    +0.000 C 
ATOM      5  C   UNL     1      -4.379   1.109 132.218  0.00  0.00    +0.000 C 
ATOM      6  C   UNL     1      -5.131   0.092 131.334  0.00  0.00    +0.000 C 
ATOM      7  C   UNL     1      -5.885   0.840 130.224  0.00  0.00    +0.000 C 
ATOM      8  C   UNL     1      -6.762   1.943 130.779  0.00  0.00    +0.000 C 
ENDROOT
BRANCH   6   9
ATOM      9  N   UNL     1      -5.925  -0.905 132.136  0.00  0.00    +0.000 N 
ATOM     10  C   UNL     1      -6.908  -0.572 133.071  0.00  0.00    +0.000 C 
ATOM     11  O   UNL     1      -7.848   0.202 132.933  0.00  0.00    +0.000 OA
ATOM     12  O   UNL     1      -6.721  -1.158 134.278  0.00  0.00    +0.000 OA
ATOM     13  C   UNL     1      -6.961  -2.545 134.185  0.00  0.00    +0.000 C 
ATOM     14  C   UNL     1      -6.187  -3.140 133.050  0.00  0.00    +0.000 A 
ATOM     15  C   UNL     1      -6.035  -4.526 132.990  0.00  0.00    +0.000 A 
ATOM     16  C   UNL     1      -5.344  -5.097 131.931  0.00  0.00    +0.000 A 
ATOM     17  C   UNL     1      -4.818  -4.286 130.928  0.00  0.00    +0.000 A 
ATOM     18  C   UNL     1      -4.968  -2.897 130.983  0.00  0.00    +0.000 A 
ATOM     19  C   UNL     1      -5.651  -2.306 132.048  0.00  0.00    +0.000 A 
ENDBRANCH   6   9
BRANCH   1  25
ATOM     20  C   UNL     1      -7.654   5.318 134.333  0.00  0.00    +0.000 C 
ATOM     21  C   UNL     1      -8.050   5.427 132.918  0.00  0.00    +0.000 A 
ATOM     22  N   UNL     1      -9.219   6.127 132.673  0.00  0.00    +0.000 NA
ATOM     23  C   UNL     1      -9.485   6.159 131.390  0.00  0.00    +0.000 A 
ATOM     24  S   UNL     1      -8.319   5.359 130.403  0.00  0.00    +0.000 S 
ATOM     25  C   UNL     1      -7.390   4.915 131.808  0.00  0.00    +0.000 A 
BRANCH  23  26
ATOM     26  C   UNL     1     -10.670   6.843 130.846  0.00  0.00    +0.000 A 
ATOM     27  C   UNL     1     -11.887   6.861 131.529  0.00  0.00    +0.000 A 
ATOM     28  C   UNL     1     -12.939   7.597 131.000  0.00  0.00    +0.000 A 
ATOM     29  N   UNL     1     -12.867   8.299 129.850  0.00  0.00    +0.000 NA
ATOM     30  C   UNL     1     -11.682   8.283 129.208  0.00  0.00    +0.000 A 
ATOM     31  C   UNL     1     -10.567   7.594 129.667  0.00  0.00    +0.000 A 
ENDBRANCH  23  26
ENDBRANCH   1  25
TORSDOF 3
ENDMDL
