MODEL 1
REMARK VINA RESULT:      -9.2      0.000      0.000
REMARK  Name = CHEMBL555148
REMARK  12 active torsions:
REMARK  status: ('A' for Active; 'I' for Inactive)
REMARK    1  A    between atoms: C_1  and  C_2
REMARK    2  A    between atoms: C_5  and  C_6
REMARK    3  A    between atoms: C_6  and  C_7
REMARK    4  A    between atoms: C_6  and  N_13
REMARK    5  A    between atoms: N_9  and  C_10
REMARK    6  A    between atoms: C_10  and  C_11
REMARK    7  A    between atoms: C_10  and  C_12
REMARK    8  A    between atoms: C_16  and  C_17
REMARK    9  A    between atoms: CA_29  and  CB_30
REMARK   10  A    between atoms: CB_30  and  CG_31
REMARK   11  A    between atoms: CG_31  and  CD1_32
REMARK   12  A    between atoms: CG_31  and  CD2_33
REMARK                            x       y       z     vdW  Elec       q    Type
REMARK                         _______ _______ _______ _____ _____    ______ ____
ROOT
ATOM      1  N   LEU A   1      -8.819   5.228 131.992  0.00  0.00    +0.000 N 
ATOM      2  C   UNK A   2     -10.015   5.796 131.862  0.00  0.00    +0.000 C 
ATOM      3  O   UNK A   2     -10.286   6.758 132.617  0.00  0.00    +0.000 OA
ATOM      4  C   UNK A   2     -11.111   5.262 130.973  0.00  0.00    +0.000 C 
ATOM      5  N   UNK A   2     -10.465   4.682 129.845  0.00  0.00    +0.000 N 
ATOM      6  C   LEU A   1      -9.730   3.597 130.218  0.00  0.00    +0.000 C 
ATOM      7  O   LEU A   1      -9.803   2.578 129.538  0.00  0.00    +0.000 OA
ATOM      8  CA  LEU A   1      -8.890   3.813 131.544  0.00  0.00    +0.000 C 
ATOM      9  H   UNK A   2     -10.926   4.613 128.944  0.00  0.00    +0.000 HD
ENDROOT
BRANCH   4  10
ATOM     10  C   UNK A   2     -11.747   6.544 130.688  0.00  0.00    +0.000 C 
ATOM     11  C   UNK A   2     -10.861   7.767 130.039  0.00  0.00    +0.000 C 
ATOM     12  C   UNK A   2     -11.677   8.128 128.854  0.00  0.00    +0.000 A 
ATOM     13  C   UNK A   2     -11.141   8.459 127.598  0.00  0.00    +0.000 A 
ATOM     14  C   UNK A   2     -11.631   7.880 126.445  0.00  0.00    +0.000 A 
ATOM     15  C   UNK A   2     -12.551   6.858 126.630  0.00  0.00    +0.000 A 
ATOM     16  C   UNK A   2     -13.170   6.653 127.983  0.00  0.00    +0.000 A 
ATOM     17  C   UNK A   2     -12.891   7.547 129.160  0.00  0.00    +0.000 A 
ATOM     18  C   UNK A   2     -12.775   7.474 131.007  0.00  0.00    +0.000 C 
ENDBRANCH   4  10
BRANCH   1  19
ATOM     19  C   UNK A   0      -7.885   5.918 133.021  0.00  0.00    +0.000 C 
BRANCH  19  24
ATOM     20  C   UNK A   0      -2.565   7.705 131.687  0.00  0.00    +0.000 C 
ATOM     21  C   UNK A   0      -3.874   7.062 131.984  0.00  0.00    +0.000 A 
ATOM     22  C   UNK A   0      -4.083   6.346 133.161  0.00  0.00    +0.000 A 
ATOM     23  C   UNK A   0      -5.320   5.744 133.433  0.00  0.00    +0.000 A 
ATOM     24  C   UNK A   0      -6.411   6.044 132.597  0.00  0.00    +0.000 A 
ATOM     25  C   UNK A   0      -6.141   6.670 131.372  0.00  0.00    +0.000 A 
ATOM     26  C   UNK A   0      -4.888   7.137 131.047  0.00  0.00    +0.000 A 
ENDBRANCH  19  24
BRANCH  19  27
ATOM     27  C   UNK A   0      -7.905   5.371 134.579  0.00  0.00    +0.000 C 
ATOM     28  O   UNK A   0      -7.928   4.157 134.805  0.00  0.00    +0.000 OA
ATOM     29  N   UNK A   0      -7.871   6.258 135.635  0.00  0.00    +0.000 N 
ATOM     30  H   UNK A   0      -7.326   7.084 135.429  0.00  0.00    +0.000 HD
BRANCH  29  31
ATOM     31  C   UNK A   0      -7.757   5.924 137.036  0.00  0.00    +0.000 C 
ATOM     32  C   UNK A   0      -6.319   5.738 137.504  0.00  0.00    +0.000 C 
ATOM     33  C   UNK A   0      -8.456   6.984 137.904  0.00  0.00    +0.000 C 
ENDBRANCH  29  31
ENDBRANCH  19  27
ENDBRANCH   1  19
BRANCH   8  34
ATOM     34  CB  LEU A   1      -7.505   3.332 131.289  0.00  0.00    +0.000 C 
BRANCH  34  35
ATOM     35  CG  LEU A   1      -7.014   2.000 131.781  0.00  0.00    +0.000 C 
ATOM     36  CD1 LEU A   1      -5.790   2.189 132.715  0.00  0.00    +0.000 C 
ATOM     37  CD2 LEU A   1      -8.074   1.330 132.635  0.00  0.00    +0.000 C 
ENDBRANCH  34  35
ENDBRANCH   8  34
TORSDOF 7
ENDMDL
MODEL 2
REMARK VINA RESULT:      -8.6      1.828      4.459
REMARK  Name = CHEMBL555148
REMARK  12 active torsions:
REMARK  status: ('A' for Active; 'I' for Inactive)
REMARK    1  A    between atoms: C_1  and  C_2
REMARK    2  A    between atoms: C_5  and  C_6
REMARK    3  A    between atoms: C_6  and  C_7
REMARK    4  A    between atoms: C_6  and  N_13
REMARK    5  A    between atoms: N_9  and  C_10
REMARK    6  A    between atoms: C_10  and  C_11
REMARK    7  A    between atoms: C_10  and  C_12
REMARK    8  A    between atoms: C_16  and  C_17
REMARK    9  A    between atoms: CA_29  and  CB_30
REMARK   10  A    between atoms: CB_30  and  CG_31
REMARK   11  A    between atoms: CG_31  and  CD1_32
REMARK   12  A    between atoms: CG_31  and  CD2_33
REMARK                            x       y       z     vdW  Elec       q    Type
REMARK                         _______ _______ _______ _____ _____    ______ ____
ROOT
ATOM      1  N   LEU A   1      -7.715   4.872 132.443  0.00  0.00    +0.000 N 
ATOM      2  C   UNK A   2      -8.761   4.724 131.634  0.00  0.00    +0.000 C 
ATOM      3  O   UNK A   2      -9.498   3.728 131.816  0.00  0.00    +0.000 OA
ATOM      4  C   UNK A   2      -9.025   5.591 130.428  0.00  0.00    +0.000 C 
ATOM      5  N   UNK A   2      -8.552   6.892 130.759  0.00  0.00    +0.000 N 
ATOM      6  C   LEU A   1      -7.199   6.885 130.919  0.00  0.00    +0.000 C 
ATOM      7  O   LEU A   1      -6.544   7.785 130.404  0.00  0.00    +0.000 OA
ATOM      8  CA  LEU A   1      -6.656   5.648 131.747  0.00  0.00    +0.000 C 
ATOM      9  H   UNK A   2      -8.940   7.725 130.330  0.00  0.00    +0.000 HD
ENDROOT
BRANCH   4  10
ATOM     10  C   UNK A   2     -10.480   5.475 130.444  0.00  0.00    +0.000 C 
ATOM     11  C   UNK A   2     -11.363   6.425 131.453  0.00  0.00    +0.000 C 
ATOM     12  C   UNK A   2     -12.329   7.042 130.512  0.00  0.00    +0.000 A 
ATOM     13  C   UNK A   2     -12.739   8.384 130.568  0.00  0.00    +0.000 A 
ATOM     14  C   UNK A   2     -12.743   9.172 129.434  0.00  0.00    +0.000 A 
ATOM     15  C   UNK A   2     -12.175   8.600 128.304  0.00  0.00    +0.000 A 
ATOM     16  C   UNK A   2     -11.883   7.127 128.285  0.00  0.00    +0.000 A 
ATOM     17  C   UNK A   2     -12.232   6.203 129.419  0.00  0.00    +0.000 A 
ATOM     18  C   UNK A   2     -11.624   4.656 130.235  0.00  0.00    +0.000 C 
ENDBRANCH   4  10
BRANCH   1  19
ATOM     19  C   UNK A   0      -7.617   3.814 133.573  0.00  0.00    +0.000 C 
BRANCH  19  24
ATOM     20  C   UNK A   0      -5.041   6.427 138.024  0.00  0.00    +0.000 C 
ATOM     21  C   UNK A   0      -5.834   5.681 137.009  0.00  0.00    +0.000 A 
ATOM     22  C   UNK A   0      -7.059   6.160 136.547  0.00  0.00    +0.000 A 
ATOM     23  C   UNK A   0      -7.798   5.451 135.590  0.00  0.00    +0.000 A 
ATOM     24  C   UNK A   0      -7.194   4.353 134.951  0.00  0.00    +0.000 A 
ATOM     25  C   UNK A   0      -6.018   3.837 135.515  0.00  0.00    +0.000 A 
ATOM     26  C   UNK A   0      -5.366   4.462 136.554  0.00  0.00    +0.000 A 
ENDBRANCH  19  24
BRANCH  19  27
ATOM     27  C   UNK A   0      -6.734   2.449 133.286  0.00  0.00    +0.000 C 
ATOM     28  O   UNK A   0      -7.123   1.361 133.723  0.00  0.00    +0.000 OA
ATOM     29  N   UNK A   0      -5.575   2.506 132.540  0.00  0.00    +0.000 N 
ATOM     30  H   UNK A   0      -5.618   3.205 131.812  0.00  0.00    +0.000 HD
BRANCH  29  31
ATOM     31  C   UNK A   0      -4.775   1.384 132.106  0.00  0.00    +0.000 C 
ATOM     32  C   UNK A   0      -4.285   1.503 130.668  0.00  0.00    +0.000 C 
ATOM     33  C   UNK A   0      -3.578   1.176 133.049  0.00  0.00    +0.000 C 
ENDBRANCH  29  31
ENDBRANCH  19  27
ENDBRANCH   1  19
BRANCH   8  34
ATOM     34  CB  LEU A   1      -5.707   6.166 132.770  0.00  0.00    +0.000 C 
BRANCH  34  35
ATOM     35  CG  LEU A   1      -4.263   5.748 132.811  0.00  0.00    +0.000 C 
ATOM     36  CD1 LEU A   1      -3.536   6.200 131.517  0.00  0.00    +0.000 C 
ATOM     37  CD2 LEU A   1      -3.544   6.451 133.946  0.00  0.00    +0.000 C 
ENDBRANCH  34  35
ENDBRANCH   8  34
TORSDOF 7
ENDMDL
MODEL 3
REMARK VINA RESULT:      -8.5      4.033      7.596
REMARK  Name = CHEMBL555148
REMARK  12 active torsions:
REMARK  status: ('A' for Active; 'I' for Inactive)
REMARK    1  A    between atoms: C_1  and  C_2
REMARK    2  A    between atoms: C_5  and  C_6
REMARK    3  A    between atoms: C_6  and  C_7
REMARK    4  A    between atoms: C_6  and  N_13
REMARK    5  A    between atoms: N_9  and  C_10
REMARK    6  A    between atoms: C_10  and  C_11
REMARK    7  A    between atoms: C_10  and  C_12
REMARK    8  A    between atoms: C_16  and  C_17
REMARK    9  A    between atoms: CA_29  and  CB_30
REMARK   10  A    between atoms: CB_30  and  CG_31
REMARK   11  A    between atoms: CG_31  and  CD1_32
REMARK   12  A    between atoms: CG_31  and  CD2_33
REMARK                            x       y       z     vdW  Elec       q    Type
REMARK                         _______ _______ _______ _____ _____    ______ ____
ROOT
ATOM      1  N   LEU A   1      -7.303   2.417 130.284  0.00  0.00    +0.000 N 
ATOM      2  C   UNK A   2      -7.640   1.323 129.607  0.00  0.00    +0.000 C 
ATOM      3  O   UNK A   2      -7.882   1.448 128.385  0.00  0.00    +0.000 OA
ATOM      4  C   UNK A   2      -7.893  -0.021 130.246  0.00  0.00    +0.000 C 
ATOM      5  N   UNK A   2      -7.008  -0.107 131.358  0.00  0.00    +0.000 N 
ATOM      6  C   LEU A   1      -7.333   0.818 132.304  0.00  0.00    +0.000 C 
ATOM      7  O   LEU A   1      -7.364   0.468 133.480  0.00  0.00    +0.000 OA
ATOM      8  CA  LEU A   1      -7.671   2.250 131.714  0.00  0.00    +0.000 C 
ATOM      9  H   UNK A   2      -6.682  -1.001 131.710  0.00  0.00    +0.000 HD
ENDROOT
BRANCH   4  10
ATOM     10  C   UNK A   2      -7.483  -0.836 129.107  0.00  0.00    +0.000 C 
ATOM     11  C   UNK A   2      -5.908  -0.852 128.640  0.00  0.00    +0.000 C 
ATOM     12  C   UNK A   2      -5.615  -2.307 128.629  0.00  0.00    +0.000 A 
ATOM     13  C   UNK A   2      -4.412  -2.873 129.080  0.00  0.00    +0.000 A 
ATOM     14  C   UNK A   2      -4.417  -3.953 129.941  0.00  0.00    +0.000 A 
ATOM     15  C   UNK A   2      -5.660  -4.317 130.439  0.00  0.00    +0.000 A 
ATOM     16  C   UNK A   2      -6.904  -3.756 129.813  0.00  0.00    +0.000 A 
ATOM     17  C   UNK A   2      -6.885  -2.849 128.614  0.00  0.00    +0.000 A 
ATOM     18  C   UNK A   2      -7.842  -1.446 127.874  0.00  0.00    +0.000 C 
ENDBRANCH   4  10
BRANCH   1  19
ATOM     19  C   UNK A   0      -7.170   3.698 129.417  0.00  0.00    +0.000 C 
BRANCH  19  24
ATOM     20  C   UNK A   0      -1.989   3.210 126.927  0.00  0.00    +0.000 C 
ATOM     21  C   UNK A   0      -3.291   3.531 127.573  0.00  0.00    +0.000 A 
ATOM     22  C   UNK A   0      -4.360   4.044 126.839  0.00  0.00    +0.000 A 
ATOM     23  C   UNK A   0      -5.583   4.343 127.455  0.00  0.00    +0.000 A 
ATOM     24  C   UNK A   0      -5.786   3.928 128.785  0.00  0.00    +0.000 A 
ATOM     25  C   UNK A   0      -4.663   3.520 129.518  0.00  0.00    +0.000 A 
ATOM     26  C   UNK A   0      -3.424   3.362 128.938  0.00  0.00    +0.000 A 
ENDBRANCH  19  24
BRANCH  19  27
ATOM     27  C   UNK A   0      -7.658   5.133 130.069  0.00  0.00    +0.000 C 
ATOM     28  O   UNK A   0      -6.835   6.033 130.265  0.00  0.00    +0.000 OA
ATOM     29  N   UNK A   0      -8.986   5.350 130.376  0.00  0.00    +0.000 N 
ATOM     30  H   UNK A   0      -9.612   4.882 129.736  0.00  0.00    +0.000 HD
BRANCH  29  31
ATOM     31  C   UNK A   0      -9.573   6.589 130.830  0.00  0.00    +0.000 C 
ATOM     32  C   UNK A   0     -10.078   7.475 129.698  0.00  0.00    +0.000 C 
ATOM     33  C   UNK A   0     -10.711   6.316 131.828  0.00  0.00    +0.000 C 
ENDBRANCH  29  31
ENDBRANCH  19  27
ENDBRANCH   1  19
BRANCH   8  34
ATOM     34  CB  LEU A   1      -6.922   3.259 132.511  0.00  0.00    +0.000 C 
BRANCH  34  35
ATOM     35  CG  LEU A   1      -7.493   3.888 133.751  0.00  0.00    +0.000 C 
ATOM     36  CD1 LEU A   1      -7.276   5.424 133.723  0.00  0.00    +0.000 C 
ATOM     37  CD2 LEU A   1      -8.996   3.693 133.796  0.00  0.00    +0.000 C 
ENDBRANCH  34  35
ENDBRANCH   8  34
TORSDOF 7
ENDMDL
MODEL 4
REMARK VINA RESULT:      -8.5      1.514      2.268
REMARK  Name = CHEMBL555148
REMARK  12 active torsions:
REMARK  status: ('A' for Active; 'I' for Inactive)
REMARK    1  A    between atoms: C_1  and  C_2
REMARK    2  A    between atoms: C_5  and  C_6
REMARK    3  A    between atoms: C_6  and  C_7
REMARK    4  A    between atoms: C_6  and  N_13
REMARK    5  A    between atoms: N_9  and  C_10
REMARK    6  A    between atoms: C_10  and  C_11
REMARK    7  A    between atoms: C_10  and  C_12
REMARK    8  A    between atoms: C_16  and  C_17
REMARK    9  A    between atoms: CA_29  and  CB_30
REMARK   10  A    between atoms: CB_30  and  CG_31
REMARK   11  A    between atoms: CG_31  and  CD1_32
REMARK   12  A    between atoms: CG_31  and  CD2_33
REMARK                            x       y       z     vdW  Elec       q    Type
REMARK                         _______ _______ _______ _____ _____    ______ ____
ROOT
ATOM      1  N   LEU A   1      -8.523   4.839 131.963  0.00  0.00    +0.000 N 
ATOM      2  C   UNK A   2      -9.678   5.490 131.851  0.00  0.00    +0.000 C 
ATOM      3  O   UNK A   2      -9.907   6.409 132.670  0.00  0.00    +0.000 OA
ATOM      4  C   UNK A   2     -10.783   5.092 130.904  0.00  0.00    +0.000 C 
ATOM      5  N   UNK A   2     -10.146   4.556 129.749  0.00  0.00    +0.000 N 
ATOM      6  C   LEU A   1      -9.490   3.402 130.055  0.00  0.00    +0.000 C 
ATOM      7  O   LEU A   1      -9.609   2.442 129.300  0.00  0.00    +0.000 OA
ATOM      8  CA  LEU A   1      -8.671   3.467 131.410  0.00  0.00    +0.000 C 
ATOM      9  H   UNK A   2     -10.588   4.582 128.837  0.00  0.00    +0.000 HD
ENDROOT
BRANCH   4  10
ATOM     10  C   UNK A   2     -11.331   6.430 130.703  0.00  0.00    +0.000 C 
ATOM     11  C   UNK A   2     -10.406   7.592 129.998  0.00  0.00    +0.000 C 
ATOM     12  C   UNK A   2     -11.292   8.050 128.899  0.00  0.00    +0.000 A 
ATOM     13  C   UNK A   2     -10.844   8.369 127.606  0.00  0.00    +0.000 A 
ATOM     14  C   UNK A   2     -11.483   7.862 126.491  0.00  0.00    +0.000 A 
ATOM     15  C   UNK A   2     -12.466   6.915 126.741  0.00  0.00    +0.000 A 
ATOM     16  C   UNK A   2     -12.977   6.727 128.141  0.00  0.00    +0.000 A 
ATOM     17  C   UNK A   2     -12.518   7.563 129.304  0.00  0.00    +0.000 A 
ATOM     18  C   UNK A   2     -12.243   7.433 131.131  0.00  0.00    +0.000 C 
ENDBRANCH   4  10
BRANCH   1  19
ATOM     19  C   UNK A   0      -7.573   5.391 133.059  0.00  0.00    +0.000 C 
BRANCH  19  24
ATOM     20  C   UNK A   0      -2.555   7.107 130.789  0.00  0.00    +0.000 C 
ATOM     21  C   UNK A   0      -3.883   6.856 131.412  0.00  0.00    +0.000 A 
ATOM     22  C   UNK A   0      -5.069   7.100 130.720  0.00  0.00    +0.000 A 
ATOM     23  C   UNK A   0      -6.316   6.859 131.314  0.00  0.00    +0.000 A 
ATOM     24  C   UNK A   0      -6.355   6.177 132.544  0.00  0.00    +0.000 A 
ATOM     25  C   UNK A   0      -5.154   6.049 133.257  0.00  0.00    +0.000 A 
ATOM     26  C   UNK A   0      -3.940   6.419 132.722  0.00  0.00    +0.000 A 
ENDBRANCH  19  24
BRANCH  19  27
ATOM     27  C   UNK A   0      -7.032   4.347 134.217  0.00  0.00    +0.000 C 
ATOM     28  O   UNK A   0      -7.369   4.506 135.395  0.00  0.00    +0.000 OA
ATOM     29  N   UNK A   0      -6.225   3.280 133.880  0.00  0.00    +0.000 N 
ATOM     30  H   UNK A   0      -6.441   2.905 132.968  0.00  0.00    +0.000 HD
BRANCH  29  31
ATOM     31  C   UNK A   0      -5.783   2.224 134.761  0.00  0.00    +0.000 C 
ATOM     32  C   UNK A   0      -5.952   0.828 134.172  0.00  0.00    +0.000 C 
ATOM     33  C   UNK A   0      -4.318   2.442 135.176  0.00  0.00    +0.000 C 
ENDBRANCH  29  31
ENDBRANCH  19  27
ENDBRANCH   1  19
BRANCH   8  34
ATOM     34  CB  LEU A   1      -7.312   2.919 131.148  0.00  0.00    +0.000 C 
BRANCH  34  35
ATOM     35  CG  LEU A   1      -6.391   3.513 130.119  0.00  0.00    +0.000 C 
ATOM     36  CD1 LEU A   1      -4.920   3.432 130.604  0.00  0.00    +0.000 C 
ATOM     37  CD2 LEU A   1      -6.440   2.703 128.838  0.00  0.00    +0.000 C 
ENDBRANCH  34  35
ENDBRANCH   8  34
TORSDOF 7
ENDMDL
MODEL 5
REMARK VINA RESULT:      -8.4      6.525     10.875
REMARK  Name = CHEMBL555148
REMARK  12 active torsions:
REMARK  status: ('A' for Active; 'I' for Inactive)
REMARK    1  A    between atoms: C_1  and  C_2
REMARK    2  A    between atoms: C_5  and  C_6
REMARK    3  A    between atoms: C_6  and  C_7
REMARK    4  A    between atoms: C_6  and  N_13
REMARK    5  A    between atoms: N_9  and  C_10
REMARK    6  A    between atoms: C_10  and  C_11
REMARK    7  A    between atoms: C_10  and  C_12
REMARK    8  A    between atoms: C_16  and  C_17
REMARK    9  A    between atoms: CA_29  and  CB_30
REMARK   10  A    between atoms: CB_30  and  CG_31
REMARK   11  A    between atoms: CG_31  and  CD1_32
REMARK   12  A    between atoms: CG_31  and  CD2_33
REMARK                            x       y       z     vdW  Elec       q    Type
REMARK                         _______ _______ _______ _____ _____    ______ ____
ROOT
ATOM      1  N   LEU A   1      -7.439   0.588 126.700  0.00  0.00    +0.000 N 
ATOM      2  C   UNK A   2      -7.876  -0.454 127.402  0.00  0.00    +0.000 C 
ATOM      3  O   UNK A   2      -8.439  -1.380 126.775  0.00  0.00    +0.000 OA
ATOM      4  C   UNK A   2      -7.870  -0.519 128.909  0.00  0.00    +0.000 C 
ATOM      5  N   UNK A   2      -6.719   0.203 129.336  0.00  0.00    +0.000 N 
ATOM      6  C   LEU A   1      -6.838   1.524 129.024  0.00  0.00    +0.000 C 
ATOM      7  O   LEU A   1      -6.536   2.356 129.874  0.00  0.00    +0.000 OA
ATOM      8  CA  LEU A   1      -7.405   1.793 127.569  0.00  0.00    +0.000 C 
ATOM      9  H   UNK A   2      -6.258  -0.001 130.216  0.00  0.00    +0.000 HD
ENDROOT
BRANCH   4  10
ATOM     10  C   UNK A   2      -7.727  -1.967 129.022  0.00  0.00    +0.000 C 
ATOM     11  C   UNK A   2      -6.340  -2.691 128.519  0.00  0.00    +0.000 C 
ATOM     12  C   UNK A   2      -5.958  -3.471 129.722  0.00  0.00    +0.000 A 
ATOM     13  C   UNK A   2      -4.641  -3.610 130.187  0.00  0.00    +0.000 A 
ATOM     14  C   UNK A   2      -4.334  -3.405 131.518  0.00  0.00    +0.000 A 
ATOM     15  C   UNK A   2      -5.365  -2.908 132.302  0.00  0.00    +0.000 A 
ATOM     16  C   UNK A   2      -6.770  -2.912 131.770  0.00  0.00    +0.000 A 
ATOM     17  C   UNK A   2      -7.143  -3.490 130.432  0.00  0.00    +0.000 A 
ATOM     18  C   UNK A   2      -8.362  -3.239 129.061  0.00  0.00    +0.000 C 
ENDBRANCH   4  10
BRANCH   1  19
ATOM     19  C   UNK A   0      -7.616   0.453 125.164  0.00  0.00    +0.000 C 
BRANCH  19  24
ATOM     20  C   UNK A   0      -4.499  -4.071 123.405  0.00  0.00    +0.000 C 
ATOM     21  C   UNK A   0      -5.203  -2.799 123.724  0.00  0.00    +0.000 A 
ATOM     22  C   UNK A   0      -6.218  -2.304 122.905  0.00  0.00    +0.000 A 
ATOM     23  C   UNK A   0      -6.877  -1.106 123.214  0.00  0.00    +0.000 A 
ATOM     24  C   UNK A   0      -6.641  -0.512 124.468  0.00  0.00    +0.000 A 
ATOM     25  C   UNK A   0      -5.543  -0.970 125.210  0.00  0.00    +0.000 A 
ATOM     26  C   UNK A   0      -4.806  -2.069 124.828  0.00  0.00    +0.000 A 
ENDBRANCH  19  24
BRANCH  19  27
ATOM     27  C   UNK A   0      -7.670   1.835 124.263  0.00  0.00    +0.000 C 
ATOM     28  O   UNK A   0      -8.698   2.520 124.247  0.00  0.00    +0.000 OA
ATOM     29  N   UNK A   0      -6.568   2.248 123.544  0.00  0.00    +0.000 N 
ATOM     30  H   UNK A   0      -5.698   2.014 124.001  0.00  0.00    +0.000 HD
BRANCH  29  31
ATOM     31  C   UNK A   0      -6.430   3.490 122.818  0.00  0.00    +0.000 C 
ATOM     32  C   UNK A   0      -5.460   4.470 123.465  0.00  0.00    +0.000 C 
ATOM     33  C   UNK A   0      -6.009   3.222 121.363  0.00  0.00    +0.000 C 
ENDBRANCH  29  31
ENDBRANCH  19  27
ENDBRANCH   1  19
BRANCH   8  34
ATOM     34  CB  LEU A   1      -6.534   2.812 126.922  0.00  0.00    +0.000 C 
BRANCH  34  35
ATOM     35  CG  LEU A   1      -5.090   2.991 127.300  0.00  0.00    +0.000 C 
ATOM     36  CD1 LEU A   1      -4.176   2.218 126.313  0.00  0.00    +0.000 C 
ATOM     37  CD2 LEU A   1      -4.688   4.447 127.169  0.00  0.00    +0.000 C 
ENDBRANCH  34  35
ENDBRANCH   8  34
TORSDOF 7
ENDMDL
MODEL 6
REMARK VINA RESULT:      -8.4      3.139      6.184
REMARK  Name = CHEMBL555148
REMARK  12 active torsions:
REMARK  status: ('A' for Active; 'I' for Inactive)
REMARK    1  A    between atoms: C_1  and  C_2
REMARK    2  A    between atoms: C_5  and  C_6
REMARK    3  A    between atoms: C_6  and  C_7
REMARK    4  A    between atoms: C_6  and  N_13
REMARK    5  A    between atoms: N_9  and  C_10
REMARK    6  A    between atoms: C_10  and  C_11
REMARK    7  A    between atoms: C_10  and  C_12
REMARK    8  A    between atoms: C_16  and  C_17
REMARK    9  A    between atoms: CA_29  and  CB_30
REMARK   10  A    between atoms: CB_30  and  CG_31
REMARK   11  A    between atoms: CG_31  and  CD1_32
REMARK   12  A    between atoms: CG_31  and  CD2_33
REMARK                            x       y       z     vdW  Elec       q    Type
REMARK                         _______ _______ _______ _____ _____    ______ ____
ROOT
ATOM      1  N   LEU A   1      -7.228   4.447 129.814  0.00  0.00    +0.000 N 
ATOM      2  C   UNK A   2      -8.409   5.059 129.829  0.00  0.00    +0.000 C 
ATOM      3  O   UNK A   2      -9.087   5.035 128.776  0.00  0.00    +0.000 OA
ATOM      4  C   UNK A   2      -8.909   5.901 130.976  0.00  0.00    +0.000 C 
ATOM      5  N   UNK A   2      -8.394   5.306 132.163  0.00  0.00    +0.000 N 
ATOM      6  C   LEU A   1      -7.035   5.405 132.198  0.00  0.00    +0.000 C 
ATOM      7  O   LEU A   1      -6.500   5.755 133.245  0.00  0.00    +0.000 OA
ATOM      8  CA  LEU A   1      -6.330   5.076 130.818  0.00  0.00    +0.000 C 
ATOM      9  H   UNK A   2      -8.866   5.404 133.055  0.00  0.00    +0.000 HD
ENDROOT
BRANCH   4  10
ATOM     10  C   UNK A   2     -10.333   5.653 130.768  0.00  0.00    +0.000 C 
ATOM     11  C   UNK A   2     -11.442   6.452 131.680  0.00  0.00    +0.000 C 
ATOM     12  C   UNK A   2     -12.318   7.039 130.636  0.00  0.00    +0.000 A 
ATOM     13  C   UNK A   2     -12.862   8.332 130.699  0.00  0.00    +0.000 A 
ATOM     14  C   UNK A   2     -12.781   9.187 129.617  0.00  0.00    +0.000 A 
ATOM     15  C   UNK A   2     -12.001   8.743 128.558  0.00  0.00    +0.000 A 
ATOM     16  C   UNK A   2     -11.565   7.307 128.509  0.00  0.00    +0.000 A 
ATOM     17  C   UNK A   2     -11.982   6.284 129.530  0.00  0.00    +0.000 A 
ATOM     18  C   UNK A   2     -11.347   4.749 130.349  0.00  0.00    +0.000 C 
ENDBRANCH   4  10
BRANCH   1  19
ATOM     19  C   UNK A   0      -6.902   3.701 128.493  0.00  0.00    +0.000 C 
BRANCH  19  24
ATOM     20  C   UNK A   0      -7.716  -2.005 128.735  0.00  0.00    +0.000 C 
ATOM     21  C   UNK A   0      -7.314  -0.572 128.706  0.00  0.00    +0.000 A 
ATOM     22  C   UNK A   0      -6.688  -0.014 127.593  0.00  0.00    +0.000 A 
ATOM     23  C   UNK A   0      -6.314   1.337 127.573  0.00  0.00    +0.000 A 
ATOM     24  C   UNK A   0      -6.762   2.173 128.612  0.00  0.00    +0.000 A 
ATOM     25  C   UNK A   0      -7.288   1.563 129.760  0.00  0.00    +0.000 A 
ATOM     26  C   UNK A   0      -7.523   0.208 129.828  0.00  0.00    +0.000 A 
ENDBRANCH  19  24
BRANCH  19  27
ATOM     27  C   UNK A   0      -5.635   4.243 127.585  0.00  0.00    +0.000 C 
ATOM     28  O   UNK A   0      -5.829   5.069 126.687  0.00  0.00    +0.000 OA
ATOM     29  N   UNK A   0      -4.352   3.801 127.835  0.00  0.00    +0.000 N 
ATOM     30  H   UNK A   0      -4.190   3.619 128.816  0.00  0.00    +0.000 HD
BRANCH  29  31
ATOM     31  C   UNK A   0      -3.140   4.279 127.210  0.00  0.00    +0.000 C 
ATOM     32  C   UNK A   0      -2.510   5.465 127.931  0.00  0.00    +0.000 C 
ATOM     33  C   UNK A   0      -2.113   3.142 127.079  0.00  0.00    +0.000 C 
ENDBRANCH  29  31
ENDBRANCH  19  27
ENDBRANCH   1  19
BRANCH   8  34
ATOM     34  CB  LEU A   1      -5.206   4.140 131.093  0.00  0.00    +0.000 C 
BRANCH  34  35
ATOM     35  CG  LEU A   1      -3.777   4.600 131.166  0.00  0.00    +0.000 C 
ATOM     36  CD1 LEU A   1      -3.716   6.147 131.276  0.00  0.00    +0.000 C 
ATOM     37  CD2 LEU A   1      -3.120   4.079 132.430  0.00  0.00    +0.000 C 
ENDBRANCH  34  35
ENDBRANCH   8  34
TORSDOF 7
ENDMDL
MODEL 7
REMARK VINA RESULT:      -8.1      2.188      5.137
REMARK  Name = CHEMBL555148
REMARK  12 active torsions:
REMARK  status: ('A' for Active; 'I' for Inactive)
REMARK    1  A    between atoms: C_1  and  C_2
REMARK    2  A    between atoms: C_5  and  C_6
REMARK    3  A    between atoms: C_6  and  C_7
REMARK    4  A    between atoms: C_6  and  N_13
REMARK    5  A    between atoms: N_9  and  C_10
REMARK    6  A    between atoms: C_10  and  C_11
REMARK    7  A    between atoms: C_10  and  C_12
REMARK    8  A    between atoms: C_16  and  C_17
REMARK    9  A    between atoms: CA_29  and  CB_30
REMARK   10  A    between atoms: CB_30  and  CG_31
REMARK   11  A    between atoms: CG_31  and  CD1_32
REMARK   12  A    between atoms: CG_31  and  CD2_33
REMARK                            x       y       z     vdW  Elec       q    Type
REMARK                         _______ _______ _______ _____ _____    ______ ____
ROOT
ATOM      1  N   LEU A   1      -7.261   4.738 131.364  0.00  0.00    +0.000 N 
ATOM      2  C   UNK A   2      -8.409   5.297 130.989  0.00  0.00    +0.000 C 
ATOM      3  O   UNK A   2      -8.685   5.290 129.767  0.00  0.00    +0.000 OA
ATOM      4  C   UNK A   2      -9.317   6.064 131.918  0.00  0.00    +0.000 C 
ATOM      5  N   UNK A   2      -9.204   5.441 133.193  0.00  0.00    +0.000 N 
ATOM      6  C   LEU A   1      -7.947   5.597 133.694  0.00  0.00    +0.000 C 
ATOM      7  O   LEU A   1      -7.822   5.923 134.870  0.00  0.00    +0.000 OA
ATOM      8  CA  LEU A   1      -6.796   5.360 132.631  0.00  0.00    +0.000 C 
ATOM      9  H   UNK A   2      -9.957   5.478 133.872  0.00  0.00    +0.000 HD
ENDROOT
BRANCH   4  10
ATOM     10  C   UNK A   2     -10.568   5.763 131.227  0.00  0.00    +0.000 C 
ATOM     11  C   UNK A   2     -11.943   6.558 131.650  0.00  0.00    +0.000 C 
ATOM     12  C   UNK A   2     -12.399   7.080 130.338  0.00  0.00    +0.000 A 
ATOM     13  C   UNK A   2     -12.953   8.357 130.146  0.00  0.00    +0.000 A 
ATOM     14  C   UNK A   2     -12.506   9.176 129.128  0.00  0.00    +0.000 A 
ATOM     15  C   UNK A   2     -11.392   8.722 128.437  0.00  0.00    +0.000 A 
ATOM     16  C   UNK A   2     -10.942   7.299 128.608  0.00  0.00    +0.000 A 
ATOM     17  C   UNK A   2     -11.677   6.299 129.458  0.00  0.00    +0.000 A 
ATOM     18  C   UNK A   2     -11.350   4.814 130.515  0.00  0.00    +0.000 C 
ENDBRANCH   4  10
BRANCH   1  19
ATOM     19  C   UNK A   0      -6.463   4.066 130.215  0.00  0.00    +0.000 C 
BRANCH  19  24
ATOM     20  C   UNK A   0      -4.637  -1.400 130.476  0.00  0.00    +0.000 C 
ATOM     21  C   UNK A   0      -4.995   0.042 130.569  0.00  0.00    +0.000 A 
ATOM     22  C   UNK A   0      -4.121   1.039 130.136  0.00  0.00    +0.000 A 
ATOM     23  C   UNK A   0      -4.467   2.394 130.226  0.00  0.00    +0.000 A 
ATOM     24  C   UNK A   0      -5.790   2.729 130.570  0.00  0.00    +0.000 A 
ATOM     25  C   UNK A   0      -6.601   1.716 131.102  0.00  0.00    +0.000 A 
ATOM     26  C   UNK A   0      -6.201   0.400 131.142  0.00  0.00    +0.000 A 
ENDBRANCH  19  24
BRANCH  19  27
ATOM     27  C   UNK A   0      -5.352   4.977 129.403  0.00  0.00    +0.000 C 
ATOM     28  O   UNK A   0      -5.364   5.007 128.168  0.00  0.00    +0.000 OA
ATOM     29  N   UNK A   0      -4.422   5.729 130.091  0.00  0.00    +0.000 N 
ATOM     30  H   UNK A   0      -4.785   6.088 130.962  0.00  0.00    +0.000 HD
BRANCH  29  31
ATOM     31  C   UNK A   0      -3.479   6.663 129.520  0.00  0.00    +0.000 C 
ATOM     32  C   UNK A   0      -3.887   8.121 129.691  0.00  0.00    +0.000 C 
ATOM     33  C   UNK A   0      -2.075   6.441 130.107  0.00  0.00    +0.000 C 
ENDBRANCH  29  31
ENDBRANCH  19  27
ENDBRANCH   1  19
BRANCH   8  34
ATOM     34  CB  LEU A   1      -5.783   4.463 133.249  0.00  0.00    +0.000 C 
BRANCH  34  35
ATOM     35  CG  LEU A   1      -4.489   4.980 133.812  0.00  0.00    +0.000 C 
ATOM     36  CD1 LEU A   1      -3.287   4.250 133.158  0.00  0.00    +0.000 C 
ATOM     37  CD2 LEU A   1      -4.311   6.445 133.462  0.00  0.00    +0.000 C 
ENDBRANCH  34  35
ENDBRANCH   8  34
TORSDOF 7
ENDMDL
MODEL 8
REMARK VINA RESULT:      -8.1      5.493      9.035
REMARK  Name = CHEMBL555148
REMARK  12 active torsions:
REMARK  status: ('A' for Active; 'I' for Inactive)
REMARK    1  A    between atoms: C_1  and  C_2
REMARK    2  A    between atoms: C_5  and  C_6
REMARK    3  A    between atoms: C_6  and  C_7
REMARK    4  A    between atoms: C_6  and  N_13
REMARK    5  A    between atoms: N_9  and  C_10
REMARK    6  A    between atoms: C_10  and  C_11
REMARK    7  A    between atoms: C_10  and  C_12
REMARK    8  A    between atoms: C_16  and  C_17
REMARK    9  A    between atoms: CA_29  and  CB_30
REMARK   10  A    between atoms: CB_30  and  CG_31
REMARK   11  A    between atoms: CG_31  and  CD1_32
REMARK   12  A    between atoms: CG_31  and  CD2_33
REMARK                            x       y       z     vdW  Elec       q    Type
REMARK                         _______ _______ _______ _____ _____    ______ ____
ROOT
ATOM      1  N   LEU A   1      -7.874   1.703 126.627  0.00  0.00    +0.000 N 
ATOM      2  C   UNK A   2      -8.198   2.435 127.689  0.00  0.00    +0.000 C 
ATOM      3  O   UNK A   2      -8.965   1.920 128.535  0.00  0.00    +0.000 OA
ATOM      4  C   UNK A   2      -7.824   3.886 127.860  0.00  0.00    +0.000 C 
ATOM      5  N   UNK A   2      -6.555   4.049 127.236  0.00  0.00    +0.000 N 
ATOM      6  C   LEU A   1      -6.651   3.848 125.892  0.00  0.00    +0.000 C 
ATOM      7  O   LEU A   1      -6.089   4.638 125.140  0.00  0.00    +0.000 OA
ATOM      8  CA  LEU A   1      -7.539   2.599 125.489  0.00  0.00    +0.000 C 
ATOM      9  H   UNK A   2      -5.907   4.772 127.528  0.00  0.00    +0.000 HD
ENDROOT
BRANCH   4  10
ATOM     10  C   UNK A   2      -7.764   3.881 129.318  0.00  0.00    +0.000 C 
ATOM     11  C   UNK A   2      -7.442   5.276 130.126  0.00  0.00    +0.000 C 
ATOM     12  C   UNK A   2      -8.579   5.338 131.077  0.00  0.00    +0.000 A 
ATOM     13  C   UNK A   2      -9.264   6.517 131.412  0.00  0.00    +0.000 A 
ATOM     14  C   UNK A   2     -10.644   6.562 131.399  0.00  0.00    +0.000 A 
ATOM     15  C   UNK A   2     -11.277   5.438 130.887  0.00  0.00    +0.000 A 
ATOM     16  C   UNK A   2     -10.490   4.176 130.676  0.00  0.00    +0.000 A 
ATOM     17  C   UNK A   2      -9.040   4.037 131.050  0.00  0.00    +0.000 A 
ATOM     18  C   UNK A   2      -7.508   3.147 130.509  0.00  0.00    +0.000 C 
ENDBRANCH   4  10
BRANCH   1  19
ATOM     19  C   UNK A   0      -8.434   0.256 126.643  0.00  0.00    +0.000 C 
BRANCH  19  24
ATOM     20  C   UNK A   0      -4.655  -2.910 129.638  0.00  0.00    +0.000 C 
ATOM     21  C   UNK A   0      -5.629  -2.241 128.733  0.00  0.00    +0.000 A 
ATOM     22  C   UNK A   0      -6.969  -2.627 128.693  0.00  0.00    +0.000 A 
ATOM     23  C   UNK A   0      -7.879  -1.990 127.839  0.00  0.00    +0.000 A 
ATOM     24  C   UNK A   0      -7.470  -0.822 127.169  0.00  0.00    +0.000 A 
ATOM     25  C   UNK A   0      -6.099  -0.531 127.145  0.00  0.00    +0.000 A 
ATOM     26  C   UNK A   0      -5.183  -1.251 127.879  0.00  0.00    +0.000 A 
ENDBRANCH  19  24
BRANCH  19  27
ATOM     27  C   UNK A   0      -9.120  -0.329 125.260  0.00  0.00    +0.000 C 
ATOM     28  O   UNK A   0     -10.165   0.171 124.832  0.00  0.00    +0.000 OA
ATOM     29  N   UNK A   0      -8.522  -1.357 124.560  0.00  0.00    +0.000 N 
ATOM     30  H   UNK A   0      -7.514  -1.326 124.613  0.00  0.00    +0.000 HD
BRANCH  29  31
ATOM     31  C   UNK A   0      -8.937  -1.880 123.279  0.00  0.00    +0.000 C 
ATOM     32  C   UNK A   0      -7.812  -1.946 122.253  0.00  0.00    +0.000 C 
ATOM     33  C   UNK A   0      -9.575  -3.270 123.443  0.00  0.00    +0.000 C 
ENDBRANCH  29  31
ENDBRANCH  19  27
ENDBRANCH   1  19
BRANCH   8  34
ATOM     34  CB  LEU A   1      -6.783   1.810 124.479  0.00  0.00    +0.000 C 
BRANCH  34  35
ATOM     35  CG  LEU A   1      -7.145   1.817 123.020  0.00  0.00    +0.000 C 
ATOM     36  CD1 LEU A   1      -8.577   2.383 122.824  0.00  0.00    +0.000 C 
ATOM     37  CD2 LEU A   1      -6.232   2.754 122.254  0.00  0.00    +0.000 C 
ENDBRANCH  34  35
ENDBRANCH   8  34
TORSDOF 7
ENDMDL
MODEL 9
REMARK VINA RESULT:      -8.1      5.615      7.862
REMARK  Name = CHEMBL555148
REMARK  12 active torsions:
REMARK  status: ('A' for Active; 'I' for Inactive)
REMARK    1  A    between atoms: C_1  and  C_2
REMARK    2  A    between atoms: C_5  and  C_6
REMARK    3  A    between atoms: C_6  and  C_7
REMARK    4  A    between atoms: C_6  and  N_13
REMARK    5  A    between atoms: N_9  and  C_10
REMARK    6  A    between atoms: C_10  and  C_11
REMARK    7  A    between atoms: C_10  and  C_12
REMARK    8  A    between atoms: C_16  and  C_17
REMARK    9  A    between atoms: CA_29  and  CB_30
REMARK   10  A    between atoms: CB_30  and  CG_31
REMARK   11  A    between atoms: CG_31  and  CD1_32
REMARK   12  A    between atoms: CG_31  and  CD2_33
REMARK                            x       y       z     vdW  Elec       q    Type
REMARK                         _______ _______ _______ _____ _____    ______ ____
ROOT
ATOM      1  N   LEU A   1      -7.549   1.444 127.973  0.00  0.00    +0.000 N 
ATOM      2  C   UNK A   2      -8.015   0.955 126.827  0.00  0.00    +0.000 C 
ATOM      3  O   UNK A   2      -8.228   1.765 125.895  0.00  0.00    +0.000 OA
ATOM      4  C   UNK A   2      -8.439  -0.479 126.631  0.00  0.00    +0.000 C 
ATOM      5  N   UNK A   2      -7.583  -1.266 127.452  0.00  0.00    +0.000 N 
ATOM      6  C   LEU A   1      -7.798  -0.994 128.770  0.00  0.00    +0.000 C 
ATOM      7  O   LEU A   1      -7.883  -1.932 129.556  0.00  0.00    +0.000 OA
ATOM      8  CA  LEU A   1      -7.948   0.551 129.092  0.00  0.00    +0.000 C 
ATOM      9  H   UNK A   2      -7.374  -2.233 127.231  0.00  0.00    +0.000 HD
ENDROOT
BRANCH   4  10
ATOM     10  C   UNK A   2      -8.125  -0.563 125.208  0.00  0.00    +0.000 C 
ATOM     11  C   UNK A   2      -6.574  -0.367 124.703  0.00  0.00    +0.000 C 
ATOM     12  C   UNK A   2      -6.367  -1.593 123.893  0.00  0.00    +0.000 A 
ATOM     13  C   UNK A   2      -5.182  -2.345 123.889  0.00  0.00    +0.000 A 
ATOM     14  C   UNK A   2      -5.215  -3.718 124.034  0.00  0.00    +0.000 A 
ATOM     15  C   UNK A   2      -6.455  -4.261 124.340  0.00  0.00    +0.000 A 
ATOM     16  C   UNK A   2      -7.689  -3.416 124.196  0.00  0.00    +0.000 A 
ATOM     17  C   UNK A   2      -7.666  -2.006 123.674  0.00  0.00    +0.000 A 
ATOM     18  C   UNK A   2      -8.569  -0.401 123.867  0.00  0.00    +0.000 C 
ENDBRANCH   4  10
BRANCH   1  19
ATOM     19  C   UNK A   0      -7.249   2.966 127.952  0.00  0.00    +0.000 C 
BRANCH  19  24
ATOM     20  C   UNK A   0      -1.641   3.233 126.623  0.00  0.00    +0.000 C 
ATOM     21  C   UNK A   0      -3.060   3.335 127.063  0.00  0.00    +0.000 A 
ATOM     22  C   UNK A   0      -3.957   4.196 126.432  0.00  0.00    +0.000 A 
ATOM     23  C   UNK A   0      -5.292   4.285 126.851  0.00  0.00    +0.000 A 
ATOM     24  C   UNK A   0      -5.767   3.346 127.785  0.00  0.00    +0.000 A 
ATOM     25  C   UNK A   0      -4.820   2.576 128.475  0.00  0.00    +0.000 A 
ATOM     26  C   UNK A   0      -3.481   2.596 128.152  0.00  0.00    +0.000 A 
ENDBRANCH  19  24
BRANCH  19  27
ATOM     27  C   UNK A   0      -7.862   3.897 129.169  0.00  0.00    +0.000 C 
ATOM     28  O   UNK A   0      -9.083   4.053 129.270  0.00  0.00    +0.000 OA
ATOM     29  N   UNK A   0      -7.024   4.486 130.094  0.00  0.00    +0.000 N 
ATOM     30  H   UNK A   0      -6.211   3.922 130.292  0.00  0.00    +0.000 HD
BRANCH  29  31
ATOM     31  C   UNK A   0      -7.424   5.217 131.274  0.00  0.00    +0.000 C 
ATOM     32  C   UNK A   0      -6.739   4.739 132.549  0.00  0.00    +0.000 C 
ATOM     33  C   UNK A   0      -7.183   6.724 131.086  0.00  0.00    +0.000 C 
ENDBRANCH  29  31
ENDBRANCH  19  27
ENDBRANCH   1  19
BRANCH   8  34
ATOM     34  CB  LEU A   1      -7.085   0.857 130.266  0.00  0.00    +0.000 C 
BRANCH  34  35
ATOM     35  CG  LEU A   1      -7.653   1.119 131.632  0.00  0.00    +0.000 C 
ATOM     36  CD1 LEU A   1      -9.198   1.234 131.560  0.00  0.00    +0.000 C 
ATOM     37  CD2 LEU A   1      -7.377  -0.055 132.552  0.00  0.00    +0.000 C 
ENDBRANCH  34  35
ENDBRANCH   8  34
TORSDOF 7
ENDMDL
