MODEL 1
REMARK VINA RESULT:      -9.4      0.000      0.000
REMARK  Name = CHEMBL2037507
REMARK  12 active torsions:
REMARK  status: ('A' for Active; 'I' for Inactive)
REMARK    1  A    between atoms: CD1_1  and  CG1_2
REMARK    2  A    between atoms: CG1_2  and  CB_3
REMARK    3  A    between atoms: CB_3  and  CG2_4
REMARK    4  A    between atoms: CB_3  and  CA_5
REMARK    5  A    between atoms: C_9  and  C_10
REMARK    6  A    between atoms: N_21  and  C_22
REMARK    7  A    between atoms: C_22  and  C_23
REMARK    8  A    between atoms: C_22  and  C_28
REMARK    9  A    between atoms: N_25  and  C_26
REMARK   10  A    between atoms: N_25  and  C_27
REMARK   11  A    between atoms: C_31  and  C_32
REMARK   12  A    between atoms: C_34  and  C_35
REMARK                            x       y       z     vdW  Elec       q    Type
REMARK                         _______ _______ _______ _____ _____    ______ ____
ROOT
ATOM      1  CA  ILE A   2      -7.090   2.150 126.615  0.00  0.00    +0.000 C 
ATOM      2  C   ILE A   2      -6.814   3.541 127.243  0.00  0.00    +0.000 C 
ATOM      3  O   ILE A   2      -6.277   4.499 126.753  0.00  0.00    +0.000 OA
ATOM      4  N   UNK A   1      -7.331   3.615 128.484  0.00  0.00    +0.000 N 
ATOM      5  C   UNK A   1      -8.419   2.747 128.830  0.00  0.00    +0.000 C 
ATOM      6  C   UNK A   1      -7.967   1.296 128.692  0.00  0.00    +0.000 C 
ATOM      7  O   UNK A   1      -8.366   0.476 129.499  0.00  0.00    +0.000 OA
ATOM      8  N   ILE A   2      -7.164   1.045 127.588  0.00  0.00    +0.000 N 
ATOM      9  H   UNK A   1      -7.111   4.488 128.943  0.00  0.00    +0.000 HD
ENDROOT
BRANCH   5  10
ATOM     10  C   UNK A   1      -8.805   2.875 130.292  0.00  0.00    +0.000 C 
ATOM     11  C   UNK A   1     -10.291   3.188 130.425  0.00  0.00    +0.000 C 
ATOM     12  C   UNK A   1     -10.263   4.689 130.424  0.00  0.00    +0.000 A 
ATOM     13  C   UNK A   1     -11.280   5.541 130.050  0.00  0.00    +0.000 A 
ATOM     14  C   UNK A   1     -10.999   6.905 129.971  0.00  0.00    +0.000 A 
ATOM     15  C   UNK A   1      -9.709   7.398 130.231  0.00  0.00    +0.000 A 
ATOM     16  C   UNK A   1      -8.674   6.531 130.575  0.00  0.00    +0.000 A 
ATOM     17  C   UNK A   1      -8.976   5.184 130.688  0.00  0.00    +0.000 A 
ATOM     18  C   UNK A   1      -8.021   4.064 130.931  0.00  0.00    +0.000 C 
ENDBRANCH   5  10
BRANCH   1  19
ATOM     19  CB  ILE A   2      -5.981   1.914 125.672  0.00  0.00    +0.000 C 
ATOM     20  CG2 ILE A   2      -6.626   2.649 124.183  0.00  0.00    +0.000 C 
BRANCH  19  22
ATOM     21  CD1 ILE A   2      -3.120   2.983 126.609  0.00  0.00    +0.000 C 
ATOM     22  CG1 ILE A   2      -4.488   2.263 126.692  0.00  0.00    +0.000 C 
ENDBRANCH  19  22
ENDBRANCH   1  19
BRANCH   8  23
ATOM     23  C   UNK A   0      -6.517  -0.301 127.346  0.00  0.00    +0.000 C 
BRANCH  23  24
ATOM     24  C   UNK A   0      -7.272  -1.158 126.308  0.00  0.00    +0.000 A 
ATOM     25  C   UNK A   0      -8.628  -1.391 126.441  0.00  0.00    +0.000 A 
ATOM     26  N   UNK A   0      -9.363  -2.067 125.551  0.00  0.00    +0.000 NA
ATOM     27  C   UNK A   0      -8.741  -2.510 124.443  0.00  0.00    +0.000 A 
ATOM     28  C   UNK A   0      -9.637  -3.182 123.466  0.00  0.00    +0.000 C 
ATOM     29  C   UNK A   0      -7.376  -2.385 124.214  0.00  0.00    +0.000 A 
ATOM     30  C   UNK A   0      -6.589  -1.757 125.181  0.00  0.00    +0.000 A 
ATOM     31  C   UNK A   0      -5.089  -1.651 124.913  0.00  0.00    +0.000 C 
ENDBRANCH  23  24
BRANCH  23  32
ATOM     32  C   UNK A   0      -5.729  -1.093 128.725  0.00  0.00    +0.000 C 
ATOM     33  O   UNK A   0      -4.617  -0.618 129.025  0.00  0.00    +0.000 OA
ATOM     34  N   UNK A   0      -6.218  -2.325 129.599  0.00  0.00    +0.000 N 
ATOM     35  C   UNK A   0      -7.444  -3.552 129.695  0.00  0.00    +0.000 C 
ATOM     36  C   UNK A   0      -5.099  -2.779 130.406  0.00  0.00    +0.000 C 
ENDBRANCH  23  32
ENDBRANCH   8  23
TORSDOF 6
ENDMDL
MODEL 2
REMARK VINA RESULT:      -9.2      4.060      7.152
REMARK  Name = CHEMBL2037507
REMARK  12 active torsions:
REMARK  status: ('A' for Active; 'I' for Inactive)
REMARK    1  A    between atoms: CD1_1  and  CG1_2
REMARK    2  A    between atoms: CG1_2  and  CB_3
REMARK    3  A    between atoms: CB_3  and  CG2_4
REMARK    4  A    between atoms: CB_3  and  CA_5
REMARK    5  A    between atoms: C_9  and  C_10
REMARK    6  A    between atoms: N_21  and  C_22
REMARK    7  A    between atoms: C_22  and  C_23
REMARK    8  A    between atoms: C_22  and  C_28
REMARK    9  A    between atoms: N_25  and  C_26
REMARK   10  A    between atoms: N_25  and  C_27
REMARK   11  A    between atoms: C_31  and  C_32
REMARK   12  A    between atoms: C_34  and  C_35
REMARK                            x       y       z     vdW  Elec       q    Type
REMARK                         _______ _______ _______ _____ _____    ______ ____
ROOT
ATOM      1  CA  ILE A   2      -5.913   2.882 132.529  0.00  0.00    +0.000 C 
ATOM      2  C   ILE A   2      -5.324   4.061 133.345  0.00  0.00    +0.000 C 
ATOM      3  O   ILE A   2      -5.173   4.158 134.534  0.00  0.00    +0.000 OA
ATOM      4  N   UNK A   1      -4.894   5.040 132.527  0.00  0.00    +0.000 N 
ATOM      5  C   UNK A   1      -4.544   4.705 131.176  0.00  0.00    +0.000 C 
ATOM      6  C   UNK A   1      -5.767   4.127 130.470  0.00  0.00    +0.000 C 
ATOM      7  O   UNK A   1      -5.954   4.401 129.298  0.00  0.00    +0.000 OA
ATOM      8  N   ILE A   2      -6.535   3.274 131.251  0.00  0.00    +0.000 N 
ATOM      9  H   UNK A   1      -4.563   5.850 133.033  0.00  0.00    +0.000 HD
ENDROOT
BRANCH   5  10
ATOM     10  C   UNK A   1      -4.194   5.935 130.359  0.00  0.00    +0.000 C 
ATOM     11  C   UNK A   1      -2.736   5.883 129.916  0.00  0.00    +0.000 C 
ATOM     12  C   UNK A   1      -2.071   6.597 131.057  0.00  0.00    +0.000 A 
ATOM     13  C   UNK A   1      -0.763   6.464 131.473  0.00  0.00    +0.000 A 
ATOM     14  C   UNK A   1      -0.382   7.101 132.654  0.00  0.00    +0.000 A 
ATOM     15  C   UNK A   1      -1.309   7.829 133.420  0.00  0.00    +0.000 A 
ATOM     16  C   UNK A   1      -2.638   7.933 133.014  0.00  0.00    +0.000 A 
ATOM     17  C   UNK A   1      -2.994   7.329 131.820  0.00  0.00    +0.000 A 
ATOM     18  C   UNK A   1      -4.365   7.210 131.244  0.00  0.00    +0.000 C 
ENDBRANCH   5  10
BRANCH   1  19
ATOM     19  CB  ILE A   2      -6.922   2.258 133.405  0.00  0.00    +0.000 C 
ATOM     20  CG2 ILE A   2      -5.939   1.040 134.257  0.00  0.00    +0.000 C 
BRANCH  19  22
ATOM     21  CD1 ILE A   2      -9.370   4.212 134.037  0.00  0.00    +0.000 C 
ATOM     22  CG1 ILE A   2      -7.910   3.698 133.991  0.00  0.00    +0.000 C 
ENDBRANCH  19  22
ENDBRANCH   1  19
BRANCH   8  23
ATOM     23  C   UNK A   0      -7.849   2.699 130.771  0.00  0.00    +0.000 C 
BRANCH  23  24
ATOM     24  C   UNK A   0      -7.685   1.362 130.018  0.00  0.00    +0.000 A 
ATOM     25  C   UNK A   0      -7.035   1.316 128.799  0.00  0.00    +0.000 A 
ATOM     26  N   UNK A   0      -6.797   0.189 128.118  0.00  0.00    +0.000 NA
ATOM     27  C   UNK A   0      -7.186  -0.968 128.682  0.00  0.00    +0.000 A 
ATOM     28  C   UNK A   0      -6.817  -2.181 127.905  0.00  0.00    +0.000 C 
ATOM     29  C   UNK A   0      -7.891  -1.054 129.877  0.00  0.00    +0.000 A 
ATOM     30  C   UNK A   0      -8.219   0.125 130.548  0.00  0.00    +0.000 A 
ATOM     31  C   UNK A   0      -9.012   0.003 131.847  0.00  0.00    +0.000 C 
ENDBRANCH  23  24
BRANCH  23  32
ATOM     32  C   UNK A   0      -9.108   3.841 130.260  0.00  0.00    +0.000 C 
ATOM     33  O   UNK A   0     -10.030   3.330 129.597  0.00  0.00    +0.000 OA
ATOM     34  N   UNK A   0      -9.208   5.408 130.496  0.00  0.00    +0.000 N 
ATOM     35  C   UNK A   0      -8.320   6.775 131.097  0.00  0.00    +0.000 C 
ATOM     36  C   UNK A   0     -10.258   5.928 129.639  0.00  0.00    +0.000 C 
ENDBRANCH  23  32
ENDBRANCH   8  23
TORSDOF 6
ENDMDL
MODEL 3
REMARK VINA RESULT:      -9.2      2.252      7.969
REMARK  Name = CHEMBL2037507
REMARK  12 active torsions:
REMARK  status: ('A' for Active; 'I' for Inactive)
REMARK    1  A    between atoms: CD1_1  and  CG1_2
REMARK    2  A    between atoms: CG1_2  and  CB_3
REMARK    3  A    between atoms: CB_3  and  CG2_4
REMARK    4  A    between atoms: CB_3  and  CA_5
REMARK    5  A    between atoms: C_9  and  C_10
REMARK    6  A    between atoms: N_21  and  C_22
REMARK    7  A    between atoms: C_22  and  C_23
REMARK    8  A    between atoms: C_22  and  C_28
REMARK    9  A    between atoms: N_25  and  C_26
REMARK   10  A    between atoms: N_25  and  C_27
REMARK   11  A    between atoms: C_31  and  C_32
REMARK   12  A    between atoms: C_34  and  C_35
REMARK                            x       y       z     vdW  Elec       q    Type
REMARK                         _______ _______ _______ _____ _____    ______ ____
ROOT
ATOM      1  CA  ILE A   2      -8.092   2.454 130.123  0.00  0.00    +0.000 C 
ATOM      2  C   ILE A   2      -7.163   1.247 129.829  0.00  0.00    +0.000 C 
ATOM      3  O   ILE A   2      -7.054   0.212 130.431  0.00  0.00    +0.000 OA
ATOM      4  N   UNK A   1      -6.464   1.448 128.696  0.00  0.00    +0.000 N 
ATOM      5  C   UNK A   1      -6.988   2.353 127.714  0.00  0.00    +0.000 C 
ATOM      6  C   UNK A   1      -7.119   3.742 128.332  0.00  0.00    +0.000 C 
ATOM      7  O   UNK A   1      -6.871   4.718 127.645  0.00  0.00    +0.000 OA
ATOM      8  N   ILE A   2      -7.579   3.750 129.642  0.00  0.00    +0.000 N 
ATOM      9  H   UNK A   1      -5.803   0.706 128.513  0.00  0.00    +0.000 HD
ENDROOT
BRANCH   5  10
ATOM     10  C   UNK A   1      -6.027   2.554 126.557  0.00  0.00    +0.000 C 
ATOM     11  C   UNK A   1      -6.762   2.430 125.227  0.00  0.00    +0.000 C 
ATOM     12  C   UNK A   1      -6.601   0.964 124.952  0.00  0.00    +0.000 A 
ATOM     13  C   UNK A   1      -7.416   0.167 124.176  0.00  0.00    +0.000 A 
ATOM     14  C   UNK A   1      -7.181  -1.208 124.174  0.00  0.00    +0.000 A 
ATOM     15  C   UNK A   1      -6.167  -1.774 124.966  0.00  0.00    +0.000 A 
ATOM     16  C   UNK A   1      -5.367  -0.970 125.775  0.00  0.00    +0.000 A 
ATOM     17  C   UNK A   1      -5.585   0.397 125.737  0.00  0.00    +0.000 A 
ATOM     18  C   UNK A   1      -4.937   1.437 126.590  0.00  0.00    +0.000 C 
ENDBRANCH   5  10
BRANCH   1  19
ATOM     19  CB  ILE A   2      -8.245   2.490 131.589  0.00  0.00    +0.000 C 
ATOM     20  CG2 ILE A   2      -9.687   1.469 131.814  0.00  0.00    +0.000 C 
BRANCH  19  22
ATOM     21  CD1 ILE A   2      -5.402   3.195 132.868  0.00  0.00    +0.000 C 
ATOM     22  CG1 ILE A   2      -6.509   2.350 132.190  0.00  0.00    +0.000 C 
ENDBRANCH  19  22
ENDBRANCH   1  19
BRANCH   8  23
ATOM     23  C   UNK A   0      -7.660   5.017 130.464  0.00  0.00    +0.000 C 
BRANCH  23  24
ATOM     24  C   UNK A   0      -9.059   5.667 130.439  0.00  0.00    +0.000 A 
ATOM     25  C   UNK A   0      -9.699   5.914 129.239  0.00  0.00    +0.000 A 
ATOM     26  N   UNK A   0     -10.936   6.413 129.138  0.00  0.00    +0.000 NA
ATOM     27  C   UNK A   0     -11.603   6.650 130.281  0.00  0.00    +0.000 A 
ATOM     28  C   UNK A   0     -12.998   7.128 130.088  0.00  0.00    +0.000 C 
ATOM     29  C   UNK A   0     -11.056   6.492 131.549  0.00  0.00    +0.000 A 
ATOM     30  C   UNK A   0      -9.736   6.054 131.660  0.00  0.00    +0.000 A 
ATOM     31  C   UNK A   0      -9.153   5.909 133.064  0.00  0.00    +0.000 C 
ENDBRANCH  23  24
BRANCH  23  32
ATOM     32  C   UNK A   0      -6.218   6.050 130.525  0.00  0.00    +0.000 C 
ATOM     33  O   UNK A   0      -6.451   7.246 130.783  0.00  0.00    +0.000 OA
ATOM     34  N   UNK A   0      -4.696   5.678 130.268  0.00  0.00    +0.000 N 
ATOM     35  C   UNK A   0      -3.660   4.395 129.722  0.00  0.00    +0.000 C 
ATOM     36  C   UNK A   0      -3.943   6.913 130.145  0.00  0.00    +0.000 C 
ENDBRANCH  23  32
ENDBRANCH   8  23
TORSDOF 6
ENDMDL
MODEL 4
REMARK VINA RESULT:      -9.1      3.207      5.324
REMARK  Name = CHEMBL2037507
REMARK  12 active torsions:
REMARK  status: ('A' for Active; 'I' for Inactive)
REMARK    1  A    between atoms: CD1_1  and  CG1_2
REMARK    2  A    between atoms: CG1_2  and  CB_3
REMARK    3  A    between atoms: CB_3  and  CG2_4
REMARK    4  A    between atoms: CB_3  and  CA_5
REMARK    5  A    between atoms: C_9  and  C_10
REMARK    6  A    between atoms: N_21  and  C_22
REMARK    7  A    between atoms: C_22  and  C_23
REMARK    8  A    between atoms: C_22  and  C_28
REMARK    9  A    between atoms: N_25  and  C_26
REMARK   10  A    between atoms: N_25  and  C_27
REMARK   11  A    between atoms: C_31  and  C_32
REMARK   12  A    between atoms: C_34  and  C_35
REMARK                            x       y       z     vdW  Elec       q    Type
REMARK                         _______ _______ _______ _____ _____    ______ ____
ROOT
ATOM      1  CA  ILE A   2      -7.815   3.042 129.089  0.00  0.00    +0.000 C 
ATOM      2  C   ILE A   2      -8.266   4.263 128.245  0.00  0.00    +0.000 C 
ATOM      3  O   ILE A   2      -8.258   4.402 127.051  0.00  0.00    +0.000 OA
ATOM      4  N   UNK A   1      -8.775   5.227 129.035  0.00  0.00    +0.000 N 
ATOM      5  C   UNK A   1      -9.305   4.858 130.316  0.00  0.00    +0.000 C 
ATOM      6  C   UNK A   1      -8.199   4.225 131.154  0.00  0.00    +0.000 C 
ATOM      7  O   UNK A   1      -8.160   4.455 132.350  0.00  0.00    +0.000 OA
ATOM      8  N   ILE A   2      -7.356   3.377 130.449  0.00  0.00    +0.000 N 
ATOM      9  H   UNK A   1      -9.019   6.061 128.520  0.00  0.00    +0.000 HD
ENDROOT
BRANCH   5  10
ATOM     10  C   UNK A   1      -9.731   6.071 131.124  0.00  0.00    +0.000 C 
ATOM     11  C   UNK A   1     -11.244   6.082 131.312  0.00  0.00    +0.000 C 
ATOM     12  C   UNK A   1     -11.669   6.879 130.113  0.00  0.00    +0.000 A 
ATOM     13  C   UNK A   1     -12.891   6.838 129.477  0.00  0.00    +0.000 A 
ATOM     14  C   UNK A   1     -13.034   7.544 128.282  0.00  0.00    +0.000 A 
ATOM     15  C   UNK A   1     -11.955   8.251 127.722  0.00  0.00    +0.000 A 
ATOM     16  C   UNK A   1     -10.712   8.262 128.350  0.00  0.00    +0.000 A 
ATOM     17  C   UNK A   1     -10.595   7.590 129.555  0.00  0.00    +0.000 A 
ATOM     18  C   UNK A   1      -9.350   7.370 130.347  0.00  0.00    +0.000 C 
ENDBRANCH   5  10
BRANCH   1  19
ATOM     19  CB  ILE A   2      -6.715   2.419 128.329  0.00  0.00    +0.000 C 
ATOM     20  CG2 ILE A   2      -7.596   1.196 127.380  0.00  0.00    +0.000 C 
BRANCH  19  22
ATOM     21  CD1 ILE A   2      -4.350   4.566 128.233  0.00  0.00    +0.000 C 
ATOM     22  CG1 ILE A   2      -5.674   3.861 127.848  0.00  0.00    +0.000 C 
ENDBRANCH  19  22
ENDBRANCH   1  19
BRANCH   8  23
ATOM     23  C   UNK A   0      -6.129   2.750 131.075  0.00  0.00    +0.000 C 
BRANCH  23  24
ATOM     24  C   UNK A   0      -6.387   1.331 131.624  0.00  0.00    +0.000 A 
ATOM     25  C   UNK A   0      -7.425   1.095 132.505  0.00  0.00    +0.000 A 
ATOM     26  N   UNK A   0      -7.751  -0.115 132.973  0.00  0.00    +0.000 NA
ATOM     27  C   UNK A   0      -7.042  -1.165 132.520  0.00  0.00    +0.000 A 
ATOM     28  C   UNK A   0      -7.513  -2.482 133.023  0.00  0.00    +0.000 C 
ATOM     29  C   UNK A   0      -5.945  -1.057 131.674  0.00  0.00    +0.000 A 
ATOM     30  C   UNK A   0      -5.546   0.212 131.251  0.00  0.00    +0.000 A 
ATOM     31  C   UNK A   0      -4.326   0.303 130.338  0.00  0.00    +0.000 C 
ENDBRANCH  23  24
BRANCH  23  32
ATOM     32  C   UNK A   0      -5.002   3.825 131.927  0.00  0.00    +0.000 C 
ATOM     33  O   UNK A   0      -4.269   3.252 132.754  0.00  0.00    +0.000 OA
ATOM     34  N   UNK A   0      -4.821   5.398 131.809  0.00  0.00    +0.000 N 
ATOM     35  C   UNK A   0      -5.518   6.820 131.097  0.00  0.00    +0.000 C 
ATOM     36  C   UNK A   0      -3.988   5.841 132.914  0.00  0.00    +0.000 C 
ENDBRANCH  23  32
ENDBRANCH   8  23
TORSDOF 6
ENDMDL
MODEL 5
REMARK VINA RESULT:      -8.7      2.710      7.955
REMARK  Name = CHEMBL2037507
REMARK  12 active torsions:
REMARK  status: ('A' for Active; 'I' for Inactive)
REMARK    1  A    between atoms: CD1_1  and  CG1_2
REMARK    2  A    between atoms: CG1_2  and  CB_3
REMARK    3  A    between atoms: CB_3  and  CG2_4
REMARK    4  A    between atoms: CB_3  and  CA_5
REMARK    5  A    between atoms: C_9  and  C_10
REMARK    6  A    between atoms: N_21  and  C_22
REMARK    7  A    between atoms: C_22  and  C_23
REMARK    8  A    between atoms: C_22  and  C_28
REMARK    9  A    between atoms: N_25  and  C_26
REMARK   10  A    between atoms: N_25  and  C_27
REMARK   11  A    between atoms: C_31  and  C_32
REMARK   12  A    between atoms: C_34  and  C_35
REMARK                            x       y       z     vdW  Elec       q    Type
REMARK                         _______ _______ _______ _____ _____    ______ ____
ROOT
ATOM      1  CA  ILE A   2      -6.897   2.044 131.586  0.00  0.00    +0.000 C 
ATOM      2  C   ILE A   2      -5.999   0.787 131.723  0.00  0.00    +0.000 C 
ATOM      3  O   ILE A   2      -5.336   0.430 132.660  0.00  0.00    +0.000 OA
ATOM      4  N   UNK A   1      -6.079   0.021 130.619  0.00  0.00    +0.000 N 
ATOM      5  C   UNK A   1      -7.248   0.122 129.793  0.00  0.00    +0.000 C 
ATOM      6  C   UNK A   1      -7.373   1.552 129.274  0.00  0.00    +0.000 C 
ATOM      7  O   UNK A   1      -7.775   1.732 128.139  0.00  0.00    +0.000 OA
ATOM      8  N   ILE A   2      -7.056   2.533 130.204  0.00  0.00    +0.000 N 
ATOM      9  H   UNK A   1      -5.455  -0.773 130.653  0.00  0.00    +0.000 HD
ENDROOT
BRANCH   5  10
ATOM     10  C   UNK A   1      -7.129  -0.718 128.535  0.00  0.00    +0.000 C 
ATOM     11  C   UNK A   1      -7.778  -2.082 128.741  0.00  0.00    +0.000 C 
ATOM     12  C   UNK A   1      -6.608  -2.877 129.241  0.00  0.00    +0.000 A 
ATOM     13  C   UNK A   1      -6.646  -4.008 130.028  0.00  0.00    +0.000 A 
ATOM     14  C   UNK A   1      -5.438  -4.510 130.516  0.00  0.00    +0.000 A 
ATOM     15  C   UNK A   1      -4.220  -3.864 130.243  0.00  0.00    +0.000 A 
ATOM     16  C   UNK A   1      -4.189  -2.701 129.476  0.00  0.00    +0.000 A 
ATOM     17  C   UNK A   1      -5.389  -2.237 128.966  0.00  0.00    +0.000 A 
ATOM     18  C   UNK A   1      -5.620  -0.965 128.219  0.00  0.00    +0.000 C 
ENDBRANCH   5  10
BRANCH   1  19
ATOM     19  CB  ILE A   2      -6.256   3.082 132.413  0.00  0.00    +0.000 C 
ATOM     20  CG2 ILE A   2      -7.145   2.905 133.947  0.00  0.00    +0.000 C 
BRANCH  19  22
ATOM     21  CD1 ILE A   2      -3.067   3.236 132.538  0.00  0.00    +0.000 C 
ATOM     22  CG1 ILE A   2      -4.474   2.920 131.975  0.00  0.00    +0.000 C 
ENDBRANCH  19  22
ENDBRANCH   1  19
BRANCH   8  23
ATOM     23  C   UNK A   0      -7.003   4.001 129.845  0.00  0.00    +0.000 C 
BRANCH  23  24
ATOM     24  C   UNK A   0      -8.295   4.762 130.209  0.00  0.00    +0.000 A 
ATOM     25  C   UNK A   0      -9.532   4.252 129.865  0.00  0.00    +0.000 A 
ATOM     26  N   UNK A   0     -10.696   4.818 130.201  0.00  0.00    +0.000 NA
ATOM     27  C   UNK A   0     -10.648   5.932 130.953  0.00  0.00    +0.000 A 
ATOM     28  C   UNK A   0     -11.980   6.458 131.353  0.00  0.00    +0.000 C 
ATOM     29  C   UNK A   0      -9.471   6.572 131.323  0.00  0.00    +0.000 A 
ATOM     30  C   UNK A   0      -8.254   6.033 130.901  0.00  0.00    +0.000 A 
ATOM     31  C   UNK A   0      -6.977   6.768 131.303  0.00  0.00    +0.000 C 
ENDBRANCH  23  24
BRANCH  23  32
ATOM     32  C   UNK A   0      -6.102   4.457 128.384  0.00  0.00    +0.000 C 
ATOM     33  O   UNK A   0      -6.815   4.684 127.389  0.00  0.00    +0.000 OA
ATOM     34  N   UNK A   0      -4.535   4.583 128.161  0.00  0.00    +0.000 N 
ATOM     35  C   UNK A   0      -3.002   4.278 128.918  0.00  0.00    +0.000 C 
ATOM     36  C   UNK A   0      -4.290   4.692 126.734  0.00  0.00    +0.000 C 
ENDBRANCH  23  32
ENDBRANCH   8  23
TORSDOF 6
ENDMDL
MODEL 6
REMARK VINA RESULT:      -8.7      2.320      7.771
REMARK  Name = CHEMBL2037507
REMARK  12 active torsions:
REMARK  status: ('A' for Active; 'I' for Inactive)
REMARK    1  A    between atoms: CD1_1  and  CG1_2
REMARK    2  A    between atoms: CG1_2  and  CB_3
REMARK    3  A    between atoms: CB_3  and  CG2_4
REMARK    4  A    between atoms: CB_3  and  CA_5
REMARK    5  A    between atoms: C_9  and  C_10
REMARK    6  A    between atoms: N_21  and  C_22
REMARK    7  A    between atoms: C_22  and  C_23
REMARK    8  A    between atoms: C_22  and  C_28
REMARK    9  A    between atoms: N_25  and  C_26
REMARK   10  A    between atoms: N_25  and  C_27
REMARK   11  A    between atoms: C_31  and  C_32
REMARK   12  A    between atoms: C_34  and  C_35
REMARK                            x       y       z     vdW  Elec       q    Type
REMARK                         _______ _______ _______ _____ _____    ______ ____
ROOT
ATOM      1  CA  ILE A   2      -8.103   2.221 129.556  0.00  0.00    +0.000 C 
ATOM      2  C   ILE A   2      -7.339   1.123 128.771  0.00  0.00    +0.000 C 
ATOM      3  O   ILE A   2      -7.052   0.008 129.117  0.00  0.00    +0.000 OA
ATOM      4  N   UNK A   1      -7.051   1.541 127.525  0.00  0.00    +0.000 N 
ATOM      5  C   UNK A   1      -7.858   2.574 126.940  0.00  0.00    +0.000 C 
ATOM      6  C   UNK A   1      -7.759   3.833 127.797  0.00  0.00    +0.000 C 
ATOM      7  O   UNK A   1      -7.738   4.919 127.246  0.00  0.00    +0.000 OA
ATOM      8  N   ILE A   2      -7.760   3.601 129.166  0.00  0.00    +0.000 N 
ATOM      9  H   UNK A   1      -6.497   0.871 127.010  0.00  0.00    +0.000 HD
ENDROOT
BRANCH   5  10
ATOM     10  C   UNK A   1      -7.330   3.008 125.585  0.00  0.00    +0.000 C 
ATOM     11  C   UNK A   1      -8.462   3.062 124.565  0.00  0.00    +0.000 C 
ATOM     12  C   UNK A   1      -8.406   1.670 124.009  0.00  0.00    +0.000 A 
ATOM     13  C   UNK A   1      -9.434   0.967 123.417  0.00  0.00    +0.000 A 
ATOM     14  C   UNK A   1      -9.219  -0.376 123.107  0.00  0.00    +0.000 A 
ATOM     15  C   UNK A   1      -8.002  -1.008 123.418  0.00  0.00    +0.000 A 
ATOM     16  C   UNK A   1      -6.978  -0.305 124.047  0.00  0.00    +0.000 A 
ATOM     17  C   UNK A   1      -7.190   1.037 124.314  0.00  0.00    +0.000 A 
ATOM     18  C   UNK A   1      -6.294   1.958 125.073  0.00  0.00    +0.000 C 
ENDBRANCH   5  10
BRANCH   1  19
ATOM     19  CB  ILE A   2      -7.763   2.004 130.975  0.00  0.00    +0.000 C 
ATOM     20  CG2 ILE A   2      -9.130   0.995 131.511  0.00  0.00    +0.000 C 
BRANCH  19  22
ATOM     21  CD1 ILE A   2      -4.760   1.359 131.857  0.00  0.00    +0.000 C 
ATOM     22  CG1 ILE A   2      -5.944   1.719 130.926  0.00  0.00    +0.000 C 
ENDBRANCH  19  22
ENDBRANCH   1  19
BRANCH   8  23
ATOM     23  C   UNK A   0      -7.549   4.707 130.175  0.00  0.00    +0.000 C 
BRANCH  23  24
ATOM     24  C   UNK A   0      -8.853   5.440 130.554  0.00  0.00    +0.000 A 
ATOM     25  C   UNK A   0      -9.688   5.942 129.574  0.00  0.00    +0.000 A 
ATOM     26  N   UNK A   0     -10.864   6.530 129.820  0.00  0.00    +0.000 NA
ATOM     27  C   UNK A   0     -11.266   6.596 131.102  0.00  0.00    +0.000 A 
ATOM     28  C   UNK A   0     -12.616   7.191 131.289  0.00  0.00    +0.000 C 
ATOM     29  C   UNK A   0     -10.499   6.174 132.182  0.00  0.00    +0.000 A 
ATOM     30  C   UNK A   0      -9.234   5.639 131.937  0.00  0.00    +0.000 A 
ATOM     31  C   UNK A   0      -8.404   5.203 133.142  0.00  0.00    +0.000 C 
ENDBRANCH  23  24
BRANCH  23  32
ATOM     32  C   UNK A   0      -6.028   5.620 130.086  0.00  0.00    +0.000 C 
ATOM     33  O   UNK A   0      -6.111   6.799 130.477  0.00  0.00    +0.000 OA
ATOM     34  N   UNK A   0      -4.604   5.162 129.555  0.00  0.00    +0.000 N 
ATOM     35  C   UNK A   0      -3.783   3.864 128.742  0.00  0.00    +0.000 C 
ATOM     36  C   UNK A   0      -3.773   6.344 129.414  0.00  0.00    +0.000 C 
ENDBRANCH  23  32
ENDBRANCH   8  23
TORSDOF 6
ENDMDL
MODEL 7
REMARK VINA RESULT:      -8.7      2.522      7.901
REMARK  Name = CHEMBL2037507
REMARK  12 active torsions:
REMARK  status: ('A' for Active; 'I' for Inactive)
REMARK    1  A    between atoms: CD1_1  and  CG1_2
REMARK    2  A    between atoms: CG1_2  and  CB_3
REMARK    3  A    between atoms: CB_3  and  CG2_4
REMARK    4  A    between atoms: CB_3  and  CA_5
REMARK    5  A    between atoms: C_9  and  C_10
REMARK    6  A    between atoms: N_21  and  C_22
REMARK    7  A    between atoms: C_22  and  C_23
REMARK    8  A    between atoms: C_22  and  C_28
REMARK    9  A    between atoms: N_25  and  C_26
REMARK   10  A    between atoms: N_25  and  C_27
REMARK   11  A    between atoms: C_31  and  C_32
REMARK   12  A    between atoms: C_34  and  C_35
REMARK                            x       y       z     vdW  Elec       q    Type
REMARK                         _______ _______ _______ _____ _____    ______ ____
ROOT
ATOM      1  CA  ILE A   2      -7.755   1.851 131.417  0.00  0.00    +0.000 C 
ATOM      2  C   ILE A   2      -7.399   0.423 131.907  0.00  0.00    +0.000 C 
ATOM      3  O   ILE A   2      -7.671  -0.107 132.951  0.00  0.00    +0.000 OA
ATOM      4  N   UNK A   1      -6.751  -0.263 130.947  0.00  0.00    +0.000 N 
ATOM      5  C   UNK A   1      -6.936   0.126 129.578  0.00  0.00    +0.000 C 
ATOM      6  C   UNK A   1      -6.467   1.567 129.399  0.00  0.00    +0.000 C 
ATOM      7  O   UNK A   1      -5.897   1.877 128.367  0.00  0.00    +0.000 OA
ATOM      8  N   ILE A   2      -6.803   2.417 130.443  0.00  0.00    +0.000 N 
ATOM      9  H   UNK A   1      -6.450  -1.175 131.260  0.00  0.00    +0.000 HD
ENDROOT
BRANCH   5  10
ATOM     10  C   UNK A   1      -6.049  -0.670 128.638  0.00  0.00    +0.000 C 
ATOM     11  C   UNK A   1      -6.638  -0.681 127.232  0.00  0.00    +0.000 C 
ATOM     12  C   UNK A   1      -7.484  -1.919 127.291  0.00  0.00    +0.000 A 
ATOM     13  C   UNK A   1      -8.597  -2.204 126.530  0.00  0.00    +0.000 A 
ATOM     14  C   UNK A   1      -9.337  -3.343 126.849  0.00  0.00    +0.000 A 
ATOM     15  C   UNK A   1      -8.980  -4.161 127.935  0.00  0.00    +0.000 A 
ATOM     16  C   UNK A   1      -7.874  -3.851 128.723  0.00  0.00    +0.000 A 
ATOM     17  C   UNK A   1      -7.127  -2.740 128.373  0.00  0.00    +0.000 A 
ATOM     18  C   UNK A   1      -5.979  -2.152 129.123  0.00  0.00    +0.000 C 
ENDBRANCH   5  10
BRANCH   1  19
ATOM     19  CB  ILE A   2      -7.788   2.690 132.629  0.00  0.00    +0.000 C 
ATOM     20  CG2 ILE A   2      -9.524   2.658 133.028  0.00  0.00    +0.000 C 
BRANCH  19  22
ATOM     21  CD1 ILE A   2      -5.566   2.365 134.902  0.00  0.00    +0.000 C 
ATOM     22  CG1 ILE A   2      -6.285   2.151 133.548  0.00  0.00    +0.000 C 
ENDBRANCH  19  22
ENDBRANCH   1  19
BRANCH   8  23
ATOM     23  C   UNK A   0      -6.325   3.851 130.507  0.00  0.00    +0.000 C 
BRANCH  23  24
ATOM     24  C   UNK A   0      -7.432   4.874 130.180  0.00  0.00    +0.000 A 
ATOM     25  C   UNK A   0      -8.205   4.735 129.043  0.00  0.00    +0.000 A 
ATOM     26  N   UNK A   0      -9.223   5.542 128.725  0.00  0.00    +0.000 NA
ATOM     27  C   UNK A   0      -9.530   6.523 129.593  0.00  0.00    +0.000 A 
ATOM     28  C   UNK A   0     -10.720   7.327 129.212  0.00  0.00    +0.000 C 
ATOM     29  C   UNK A   0      -8.801   6.800 130.744  0.00  0.00    +0.000 A 
ATOM     30  C   UNK A   0      -7.684   6.015 131.035  0.00  0.00    +0.000 A 
ATOM     31  C   UNK A   0      -6.890   6.353 132.295  0.00  0.00    +0.000 C 
ENDBRANCH  23  24
BRANCH  23  32
ATOM     32  C   UNK A   0      -4.653   4.181 130.006  0.00  0.00    +0.000 C 
ATOM     33  O   UNK A   0      -3.813   4.083 130.920  0.00  0.00    +0.000 OA
ATOM     34  N   UNK A   0      -4.089   4.610 128.585  0.00  0.00    +0.000 N 
ATOM     35  C   UNK A   0      -4.582   5.102 126.994  0.00  0.00    +0.000 C 
ATOM     36  C   UNK A   0      -2.715   5.045 128.758  0.00  0.00    +0.000 C 
ENDBRANCH  23  32
ENDBRANCH   8  23
TORSDOF 6
ENDMDL
MODEL 8
REMARK VINA RESULT:      -8.6      1.885      7.644
REMARK  Name = CHEMBL2037507
REMARK  12 active torsions:
REMARK  status: ('A' for Active; 'I' for Inactive)
REMARK    1  A    between atoms: CD1_1  and  CG1_2
REMARK    2  A    between atoms: CG1_2  and  CB_3
REMARK    3  A    between atoms: CB_3  and  CG2_4
REMARK    4  A    between atoms: CB_3  and  CA_5
REMARK    5  A    between atoms: C_9  and  C_10
REMARK    6  A    between atoms: N_21  and  C_22
REMARK    7  A    between atoms: C_22  and  C_23
REMARK    8  A    between atoms: C_22  and  C_28
REMARK    9  A    between atoms: N_25  and  C_26
REMARK   10  A    between atoms: N_25  and  C_27
REMARK   11  A    between atoms: C_31  and  C_32
REMARK   12  A    between atoms: C_34  and  C_35
REMARK                            x       y       z     vdW  Elec       q    Type
REMARK                         _______ _______ _______ _____ _____    ______ ____
ROOT
ATOM      1  CA  ILE A   2      -7.951   1.065 129.296  0.00  0.00    +0.000 C 
ATOM      2  C   ILE A   2      -7.421  -0.247 128.659  0.00  0.00    +0.000 C 
ATOM      3  O   ILE A   2      -7.221  -1.312 129.179  0.00  0.00    +0.000 OA
ATOM      4  N   UNK A   1      -7.246  -0.097 127.333  0.00  0.00    +0.000 N 
ATOM      5  C   UNK A   1      -7.998   0.916 126.649  0.00  0.00    +0.000 C 
ATOM      6  C   UNK A   1      -7.651   2.281 127.236  0.00  0.00    +0.000 C 
ATOM      7  O   UNK A   1      -7.576   3.241 126.490  0.00  0.00    +0.000 OA
ATOM      8  N   ILE A   2      -7.507   2.296 128.617  0.00  0.00    +0.000 N 
ATOM      9  H   UNK A   1      -6.841  -0.915 126.901  0.00  0.00    +0.000 HD
ENDROOT
BRANCH   5  10
ATOM     10  C   UNK A   1      -7.599   1.030 125.189  0.00  0.00    +0.000 C 
ATOM     11  C   UNK A   1      -8.725   0.536 124.289  0.00  0.00    +0.000 C 
ATOM     12  C   UNK A   1      -8.360  -0.914 124.153  0.00  0.00    +0.000 A 
ATOM     13  C   UNK A   1      -9.207  -1.963 123.869  0.00  0.00    +0.000 A 
ATOM     14  C   UNK A   1      -8.695  -3.259 123.941  0.00  0.00    +0.000 A 
ATOM     15  C   UNK A   1      -7.363  -3.494 124.324  0.00  0.00    +0.000 A 
ATOM     16  C   UNK A   1      -6.519  -2.433 124.643  0.00  0.00    +0.000 A 
ATOM     17  C   UNK A   1      -7.028  -1.151 124.530  0.00  0.00    +0.000 A 
ATOM     18  C   UNK A   1      -6.357   0.124 124.920  0.00  0.00    +0.000 C 
ENDBRANCH   5  10
BRANCH   1  19
ATOM     19  CB  ILE A   2      -7.463   1.056 130.687  0.00  0.00    +0.000 C 
ATOM     20  CG2 ILE A   2      -8.847   0.327 131.539  0.00  0.00    +0.000 C 
BRANCH  19  22
ATOM     21  CD1 ILE A   2      -4.287   1.162 130.348  0.00  0.00    +0.000 C 
ATOM     22  CG1 ILE A   2      -5.701   0.551 130.505  0.00  0.00    +0.000 C 
ENDBRANCH  19  22
ENDBRANCH   1  19
BRANCH   8  23
ATOM     23  C   UNK A   0      -7.046   3.524 129.370  0.00  0.00    +0.000 C 
BRANCH  23  24
ATOM     24  C   UNK A   0      -8.213   4.356 129.944  0.00  0.00    +0.000 A 
ATOM     25  C   UNK A   0      -9.188   4.868 129.110  0.00  0.00    +0.000 A 
ATOM     26  N   UNK A   0     -10.262   5.541 129.537  0.00  0.00    +0.000 NA
ATOM     27  C   UNK A   0     -10.411   5.690 130.865  0.00  0.00    +0.000 A 
ATOM     28  C   UNK A   0     -11.665   6.379 131.267  0.00  0.00    +0.000 C 
ATOM     29  C   UNK A   0      -9.478   5.268 131.806  0.00  0.00    +0.000 A 
ATOM     30  C   UNK A   0      -8.314   4.641 131.360  0.00  0.00    +0.000 A 
ATOM     31  C   UNK A   0      -7.296   4.205 132.412  0.00  0.00    +0.000 C 
ENDBRANCH  23  24
BRANCH  23  32
ATOM     32  C   UNK A   0      -5.590   4.351 128.780  0.00  0.00    +0.000 C 
ATOM     33  O   UNK A   0      -5.473   5.528 129.170  0.00  0.00    +0.000 OA
ATOM     34  N   UNK A   0      -4.448   3.820 127.814  0.00  0.00    +0.000 N 
ATOM     35  C   UNK A   0      -4.015   2.490 126.785  0.00  0.00    +0.000 C 
ATOM     36  C   UNK A   0      -3.643   4.956 127.399  0.00  0.00    +0.000 C 
ENDBRANCH  23  32
ENDBRANCH   8  23
TORSDOF 6
ENDMDL
MODEL 9
REMARK VINA RESULT:      -8.4      3.105      8.420
REMARK  Name = CHEMBL2037507
REMARK  12 active torsions:
REMARK  status: ('A' for Active; 'I' for Inactive)
REMARK    1  A    between atoms: CD1_1  and  CG1_2
REMARK    2  A    between atoms: CG1_2  and  CB_3
REMARK    3  A    between atoms: CB_3  and  CG2_4
REMARK    4  A    between atoms: CB_3  and  CA_5
REMARK    5  A    between atoms: C_9  and  C_10
REMARK    6  A    between atoms: N_21  and  C_22
REMARK    7  A    between atoms: C_22  and  C_23
REMARK    8  A    between atoms: C_22  and  C_28
REMARK    9  A    between atoms: N_25  and  C_26
REMARK   10  A    between atoms: N_25  and  C_27
REMARK   11  A    between atoms: C_31  and  C_32
REMARK   12  A    between atoms: C_34  and  C_35
REMARK                            x       y       z     vdW  Elec       q    Type
REMARK                         _______ _______ _______ _____ _____    ______ ____
ROOT
ATOM      1  CA  ILE A   2      -5.801   2.173 130.210  0.00  0.00    +0.000 C 
ATOM      2  C   ILE A   2      -5.796   1.032 129.160  0.00  0.00    +0.000 C 
ATOM      3  O   ILE A   2      -5.100   0.902 128.188  0.00  0.00    +0.000 OA
ATOM      4  N   UNK A   1      -6.678   0.072 129.494  0.00  0.00    +0.000 N 
ATOM      5  C   UNK A   1      -7.059  -0.065 130.870  0.00  0.00    +0.000 C 
ATOM      6  C   UNK A   1      -7.710   1.232 131.342  0.00  0.00    +0.000 C 
ATOM      7  O   UNK A   1      -8.653   1.171 132.112  0.00  0.00    +0.000 OA
ATOM      8  N   ILE A   2      -7.101   2.387 130.872  0.00  0.00    +0.000 N 
ATOM      9  H   UNK A   1      -6.743  -0.655 128.794  0.00  0.00    +0.000 HD
ENDROOT
BRANCH   5  10
ATOM     10  C   UNK A   1      -8.143  -1.111 131.057  0.00  0.00    +0.000 C 
ATOM     11  C   UNK A   1      -7.968  -1.828 132.391  0.00  0.00    +0.000 C 
ATOM     12  C   UNK A   1      -7.095  -2.977 131.979  0.00  0.00    +0.000 A 
ATOM     13  C   UNK A   1      -6.227  -3.692 132.777  0.00  0.00    +0.000 A 
ATOM     14  C   UNK A   1      -5.388  -4.624 132.165  0.00  0.00    +0.000 A 
ATOM     15  C   UNK A   1      -5.401  -4.808 130.772  0.00  0.00    +0.000 A 
ATOM     16  C   UNK A   1      -6.255  -4.061 129.965  0.00  0.00    +0.000 A 
ATOM     17  C   UNK A   1      -7.109  -3.167 130.588  0.00  0.00    +0.000 A 
ATOM     18  C   UNK A   1      -8.024  -2.187 129.933  0.00  0.00    +0.000 C 
ENDBRANCH   5  10
BRANCH   1  19
ATOM     19  CB  ILE A   2      -5.407   3.389 129.477  0.00  0.00    +0.000 C 
ATOM     20  CG2 ILE A   2      -3.645   3.403 129.743  0.00  0.00    +0.000 C 
BRANCH  19  22
ATOM     21  CD1 ILE A   2      -6.415   3.730 126.463  0.00  0.00    +0.000 C 
ATOM     22  CG1 ILE A   2      -6.439   3.308 127.953  0.00  0.00    +0.000 C 
ENDBRANCH  19  22
ENDBRANCH   1  19
BRANCH   8  23
ATOM     23  C   UNK A   0      -7.670   3.765 131.129  0.00  0.00    +0.000 C 
BRANCH  23  24
ATOM     24  C   UNK A   0      -7.209   4.370 132.472  0.00  0.00    +0.000 A 
ATOM     25  C   UNK A   0      -7.531   3.756 133.667  0.00  0.00    +0.000 A 
ATOM     26  N   UNK A   0      -7.114   4.182 134.865  0.00  0.00    +0.000 NA
ATOM     27  C   UNK A   0      -6.300   5.253 134.892  0.00  0.00    +0.000 A 
ATOM     28  C   UNK A   0      -5.816   5.619 136.249  0.00  0.00    +0.000 C 
ATOM     29  C   UNK A   0      -5.943   5.988 133.768  0.00  0.00    +0.000 A 
ATOM     30  C   UNK A   0      -6.446   5.599 132.525  0.00  0.00    +0.000 A 
ATOM     31  C   UNK A   0      -6.055   6.437 131.310  0.00  0.00    +0.000 C 
ENDBRANCH  23  24
BRANCH  23  32
ATOM     32  C   UNK A   0      -9.310   4.100 130.538  0.00  0.00    +0.000 C 
ATOM     33  O   UNK A   0      -9.608   3.509 129.482  0.00  0.00    +0.000 OA
ATOM     34  N   UNK A   0     -10.425   5.058 131.137  0.00  0.00    +0.000 N 
ATOM     35  C   UNK A   0     -10.702   6.264 132.356  0.00  0.00    +0.000 C 
ATOM     36  C   UNK A   0     -11.470   5.214 130.140  0.00  0.00    +0.000 C 
ENDBRANCH  23  32
ENDBRANCH   8  23
TORSDOF 6
ENDMDL
