MODEL 1
REMARK VINA RESULT:     -10.0      0.000      0.000
REMARK  Name = CHEMBL318174
REMARK  9 active torsions:
REMARK  status: ('A' for Active; 'I' for Inactive)
REMARK    1  A    between atoms: C_1  and  O_2
REMARK    2  A    between atoms: O_2  and  C_3
REMARK    3  A    between atoms: C_5  and  O_6
REMARK    4  A    between atoms: O_6  and  C_7
REMARK    5  A    between atoms: C_7  and  C_8
REMARK    6  A    between atoms: C_7  and  C_9
REMARK    7  A    between atoms: C_13  and  C_14
REMARK    8  A    between atoms: C_20  and  C_21
REMARK    9  A    between atoms: C_26  and  N_27
REMARK                            x       y       z     vdW  Elec       q    Type
REMARK                         _______ _______ _______ _____ _____    ______ ____
ROOT
ATOM      1  C   UNL     1      -5.277   0.472 126.887  0.00  0.00    +0.000 A 
ATOM      2  C   UNL     1      -5.431  -0.717 126.157  0.00  0.00    +0.000 A 
ATOM      3  C   UNL     1      -5.697  -1.911 126.781  0.00  0.00    +0.000 A 
ATOM      4  C   UNL     1      -5.612  -1.945 128.164  0.00  0.00    +0.000 A 
ATOM      5  C   UNL     1      -5.587  -0.762 128.914  0.00  0.00    +0.000 A 
ATOM      6  C   UNL     1      -5.400   0.502 128.297  0.00  0.00    +0.000 A 
ENDROOT
BRANCH   6   7
ATOM      7  C   UNL     1      -5.237   1.699 129.252  0.00  0.00    +0.000 C 
ATOM      8  O   UNL     1      -4.083   1.960 129.616  0.00  0.00    +0.000 OA
ATOM      9  N   UNL     1      -6.344   2.521 129.677  0.00  0.00    +0.000 N 
ATOM     10  C   UNL     1      -6.453   3.950 129.165  0.00  0.00    +0.000 C 
ATOM     11  C   UNL     1      -7.302   4.841 130.081  0.00  0.00    +0.000 C 
ATOM     12  C   UNL     1      -9.014   4.288 130.280  0.00  0.00    +0.000 C 
ATOM     13  C   UNL     1      -8.485   2.782 131.042  0.00  0.00    +0.000 C 
ATOM     14  C   UNL     1      -7.613   1.892 130.138  0.00  0.00    +0.000 C 
BRANCH  12  15
ATOM     15  N   UNL     1     -10.590   5.110 129.699  0.00  0.00    +0.000 N 
ATOM     16  C   UNL     1     -10.497   5.774 130.938  0.00  0.00    +0.000 C 
ATOM     17  O   UNL     1     -10.424   5.258 132.111  0.00  0.00    +0.000 OA
ATOM     18  O   UNL     1     -10.192   7.046 130.829  0.00  0.00    +0.000 OA
ATOM     19  C   UNL     1     -11.455   7.539 131.041  0.00  0.00    +0.000 C 
ATOM     20  C   UNL     1     -11.797   7.681 129.628  0.00  0.00    +0.000 A 
ATOM     21  C   UNL     1     -12.538   9.028 129.482  0.00  0.00    +0.000 A 
ATOM     22  C   UNL     1     -13.509   9.340 128.585  0.00  0.00    +0.000 A 
ATOM     23  C   UNL     1     -13.738   8.219 127.825  0.00  0.00    +0.000 A 
ATOM     24  C   UNL     1     -12.885   6.781 127.987  0.00  0.00    +0.000 A 
ATOM     25  C   UNL     1     -11.641   6.448 128.909  0.00  0.00    +0.000 A 
ENDBRANCH  12  15
ENDBRANCH   6   7
BRANCH   1  27
ATOM     26  C   UNL     1      -6.302   2.195 125.699  0.00  0.00    +0.000 C 
ATOM     27  O   UNL     1      -5.126   1.487 125.978  0.00  0.00    +0.000 OA
ENDBRANCH   1  27
BRANCH   3  28
ATOM     28  O   UNL     1      -6.117  -2.924 125.966  0.00  0.00    +0.000 OA
BRANCH  28  29
ATOM     29  C   UNL     1      -5.867  -2.748 124.572  0.00  0.00    +0.000 C 
ATOM     30  C   UNL     1      -4.776  -3.672 123.991  0.00  0.00    +0.000 C 
BRANCH  29  31
ATOM     31  C   UNL     1      -7.209  -2.844 123.768  0.00  0.00    +0.000 C 
ATOM     32  C   UNL     1      -7.357  -1.840 122.608  0.00  0.00    +0.000 C 
ATOM     33  C   UNL     1      -7.495  -0.418 123.107  0.00  0.00    +0.000 C 
ATOM     34  N   UNL     1      -8.618  -0.330 124.074  0.00  0.00    +0.000 N 
ATOM     35  C   UNL     1      -9.596   0.636 124.107  0.00  0.00    +0.000 C 
ATOM     36  C   UNL     1      -9.660   1.625 122.988  0.00  0.00    +0.000 C 
ATOM     37  O   UNL     1     -10.441   0.686 125.005  0.00  0.00    +0.000 OA
ATOM     38  C   UNL     1      -8.619  -1.248 125.207  0.00  0.00    +0.000 C 
ATOM     39  C   UNL     1      -8.395  -2.696 124.745  0.00  0.00    +0.000 C 
ENDBRANCH  29  31
ENDBRANCH  28  29
ENDBRANCH   3  28
TORSDOF 6
ENDMDL
MODEL 2
REMARK VINA RESULT:      -9.7      1.923      2.489
REMARK  Name = CHEMBL318174
REMARK  9 active torsions:
REMARK  status: ('A' for Active; 'I' for Inactive)
REMARK    1  A    between atoms: C_1  and  O_2
REMARK    2  A    between atoms: O_2  and  C_3
REMARK    3  A    between atoms: C_5  and  O_6
REMARK    4  A    between atoms: O_6  and  C_7
REMARK    5  A    between atoms: C_7  and  C_8
REMARK    6  A    between atoms: C_7  and  C_9
REMARK    7  A    between atoms: C_13  and  C_14
REMARK    8  A    between atoms: C_20  and  C_21
REMARK    9  A    between atoms: C_26  and  N_27
REMARK                            x       y       z     vdW  Elec       q    Type
REMARK                         _______ _______ _______ _____ _____    ______ ____
ROOT
ATOM      1  C   UNL     1      -6.155  -0.548 129.091  0.00  0.00    +0.000 A 
ATOM      2  C   UNL     1      -6.365  -1.311 127.932  0.00  0.00    +0.000 A 
ATOM      3  C   UNL     1      -7.288  -2.326 127.901  0.00  0.00    +0.000 A 
ATOM      4  C   UNL     1      -7.865  -2.706 129.102  0.00  0.00    +0.000 A 
ATOM      5  C   UNL     1      -7.773  -1.889 130.237  0.00  0.00    +0.000 A 
ATOM      6  C   UNL     1      -6.891  -0.778 130.278  0.00  0.00    +0.000 A 
ENDROOT
BRANCH   6   7
ATOM      7  C   UNL     1      -6.775  -0.063 131.637  0.00  0.00    +0.000 C 
ATOM      8  O   UNL     1      -5.930  -0.507 132.424  0.00  0.00    +0.000 OA
ATOM      9  N   UNL     1      -7.561   1.097 131.984  0.00  0.00    +0.000 N 
ATOM     10  C   UNL     1      -6.880   2.454 132.097  0.00  0.00    +0.000 C 
ATOM     11  C   UNL     1      -7.667   3.436 132.974  0.00  0.00    +0.000 C 
ATOM     12  C   UNL     1      -9.334   3.803 132.371  0.00  0.00    +0.000 C 
ATOM     13  C   UNL     1      -9.826   2.116 132.573  0.00  0.00    +0.000 C 
ATOM     14  C   UNL     1      -9.026   1.120 131.715  0.00  0.00    +0.000 C 
BRANCH  12  15
ATOM     15  N   UNL     1     -10.017   5.413 131.708  0.00  0.00    +0.000 N 
ATOM     16  C   UNL     1      -9.299   5.042 130.553  0.00  0.00    +0.000 C 
ATOM     17  O   UNL     1      -8.049   4.771 130.449  0.00  0.00    +0.000 OA
ATOM     18  O   UNL     1     -10.069   4.694 129.548  0.00  0.00    +0.000 OA
ATOM     19  C   UNL     1      -9.953   5.861 128.837  0.00  0.00    +0.000 C 
ATOM     20  C   UNL     1     -11.184   6.464 129.341  0.00  0.00    +0.000 A 
ATOM     21  C   UNL     1     -11.874   7.142 128.137  0.00  0.00    +0.000 A 
ATOM     22  C   UNL     1     -12.659   8.251 128.155  0.00  0.00    +0.000 A 
ATOM     23  C   UNL     1     -12.719   8.687 129.457  0.00  0.00    +0.000 A 
ATOM     24  C   UNL     1     -11.987   7.901 130.748  0.00  0.00    +0.000 A 
ATOM     25  C   UNL     1     -11.209   6.521 130.775  0.00  0.00    +0.000 A 
ENDBRANCH  12  15
ENDBRANCH   6   7
BRANCH   1  27
ATOM     26  C   UNL     1      -5.840   1.668 128.441  0.00  0.00    +0.000 C 
ATOM     27  O   UNL     1      -5.257   0.437 128.770  0.00  0.00    +0.000 OA
ENDBRANCH   1  27
BRANCH   3  28
ATOM     28  O   UNL     1      -7.613  -2.793 126.658  0.00  0.00    +0.000 OA
BRANCH  28  29
ATOM     29  C   UNL     1      -7.265  -1.946 125.563  0.00  0.00    +0.000 C 
ATOM     30  C   UNL     1      -6.261  -2.562 124.566  0.00  0.00    +0.000 C 
BRANCH  29  31
ATOM     31  C   UNL     1      -8.561  -1.429 124.850  0.00  0.00    +0.000 C 
ATOM     32  C   UNL     1      -8.356  -0.880 123.424  0.00  0.00    +0.000 C 
ATOM     33  C   UNL     1      -7.569   0.413 123.426  0.00  0.00    +0.000 C 
ATOM     34  N   UNL     1      -8.224   1.401 124.321  0.00  0.00    +0.000 N 
ATOM     35  C   UNL     1      -8.462   2.726 124.042  0.00  0.00    +0.000 C 
ATOM     36  C   UNL     1      -8.190   3.224 122.659  0.00  0.00    +0.000 C 
ATOM     37  O   UNL     1      -8.929   3.501 124.880  0.00  0.00    +0.000 OA
ATOM     38  C   UNL     1      -8.507   0.999 125.693  0.00  0.00    +0.000 C 
ATOM     39  C   UNL     1      -9.231  -0.356 125.734  0.00  0.00    +0.000 C 
ENDBRANCH  29  31
ENDBRANCH  28  29
ENDBRANCH   3  28
TORSDOF 6
ENDMDL
MODEL 3
REMARK VINA RESULT:      -9.7      3.226      9.104
REMARK  Name = CHEMBL318174
REMARK  9 active torsions:
REMARK  status: ('A' for Active; 'I' for Inactive)
REMARK    1  A    between atoms: C_1  and  O_2
REMARK    2  A    between atoms: O_2  and  C_3
REMARK    3  A    between atoms: C_5  and  O_6
REMARK    4  A    between atoms: O_6  and  C_7
REMARK    5  A    between atoms: C_7  and  C_8
REMARK    6  A    between atoms: C_7  and  C_9
REMARK    7  A    between atoms: C_13  and  C_14
REMARK    8  A    between atoms: C_20  and  C_21
REMARK    9  A    between atoms: C_26  and  N_27
REMARK                            x       y       z     vdW  Elec       q    Type
REMARK                         _______ _______ _______ _____ _____    ______ ____
ROOT
ATOM      1  C   UNL     1      -6.933   5.506 131.894  0.00  0.00    +0.000 A 
ATOM      2  C   UNL     1      -6.011   6.532 131.632  0.00  0.00    +0.000 A 
ATOM      3  C   UNL     1      -4.846   6.646 132.348  0.00  0.00    +0.000 A 
ATOM      4  C   UNL     1      -4.697   5.841 133.466  0.00  0.00    +0.000 A 
ATOM      5  C   UNL     1      -5.531   4.734 133.674  0.00  0.00    +0.000 A 
ATOM      6  C   UNL     1      -6.702   4.534 132.896  0.00  0.00    +0.000 A 
ENDROOT
BRANCH   6   7
ATOM      7  C   UNL     1      -7.606   3.367 133.333  0.00  0.00    +0.000 C 
ATOM      8  O   UNL     1      -8.271   3.539 134.362  0.00  0.00    +0.000 OA
ATOM      9  N   UNL     1      -7.731   2.144 132.576  0.00  0.00    +0.000 N 
ATOM     10  C   UNL     1      -9.032   1.848 131.845  0.00  0.00    +0.000 C 
ATOM     11  C   UNL     1      -9.226   0.352 131.570  0.00  0.00    +0.000 C 
ATOM     12  C   UNL     1      -7.936  -0.390 130.540  0.00  0.00    +0.000 C 
ATOM     13  C   UNL     1      -6.703  -0.044 131.759  0.00  0.00    +0.000 C 
ATOM     14  C   UNL     1      -6.517   1.454 132.058  0.00  0.00    +0.000 C 
BRANCH  12  15
ATOM     15  N   UNL     1      -8.069  -1.083 128.807  0.00  0.00    +0.000 N 
ATOM     16  C   UNL     1      -7.253   0.020 128.489  0.00  0.00    +0.000 C 
ATOM     17  O   UNL     1      -7.477   1.264 128.714  0.00  0.00    +0.000 OA
ATOM     18  O   UNL     1      -6.025  -0.313 128.165  0.00  0.00    +0.000 OA
ATOM     19  C   UNL     1      -6.166  -0.172 126.808  0.00  0.00    +0.000 C 
ATOM     20  C   UNL     1      -6.433  -1.583 126.539  0.00  0.00    +0.000 A 
ATOM     21  C   UNL     1      -5.645  -1.950 125.264  0.00  0.00    +0.000 A 
ATOM     22  C   UNL     1      -5.981  -2.874 124.325  0.00  0.00    +0.000 A 
ATOM     23  C   UNL     1      -7.181  -3.424 124.706  0.00  0.00    +0.000 A 
ATOM     24  C   UNL     1      -7.992  -3.027 126.123  0.00  0.00    +0.000 A 
ATOM     25  C   UNL     1      -7.540  -2.079 127.308  0.00  0.00    +0.000 A 
ENDBRANCH  12  15
ENDBRANCH   6   7
BRANCH   1  27
ATOM     26  C   UNL     1      -8.860   6.619 131.201  0.00  0.00    +0.000 C 
ATOM     27  O   UNL     1      -7.926   5.605 130.953  0.00  0.00    +0.000 OA
ENDBRANCH   1  27
BRANCH   3  28
ATOM     28  O   UNL     1      -3.905   7.483 131.817  0.00  0.00    +0.000 OA
BRANCH  28  29
ATOM     29  C   UNL     1      -3.799   7.480 130.393  0.00  0.00    +0.000 C 
ATOM     30  C   UNL     1      -3.855   8.877 129.739  0.00  0.00    +0.000 C 
BRANCH  29  31
ATOM     31  C   UNL     1      -2.531   6.672 129.950  0.00  0.00    +0.000 C 
ATOM     32  C   UNL     1      -2.337   6.531 128.427  0.00  0.00    +0.000 C 
ATOM     33  C   UNL     1      -3.395   5.648 127.804  0.00  0.00    +0.000 C 
ATOM     34  N   UNL     1      -3.424   4.332 128.492  0.00  0.00    +0.000 N 
ATOM     35  C   UNL     1      -3.480   3.096 127.892  0.00  0.00    +0.000 C 
ATOM     36  C   UNL     1      -3.347   3.018 126.405  0.00  0.00    +0.000 C 
ATOM     37  O   UNL     1      -3.595   2.054 128.543  0.00  0.00    +0.000 OA
ATOM     38  C   UNL     1      -3.571   4.322 129.942  0.00  0.00    +0.000 C 
ATOM     39  C   UNL     1      -2.567   5.276 130.606  0.00  0.00    +0.000 C 
ENDBRANCH  29  31
ENDBRANCH  28  29
ENDBRANCH   3  28
TORSDOF 6
ENDMDL
MODEL 4
REMARK VINA RESULT:      -9.7      4.137      5.961
REMARK  Name = CHEMBL318174
REMARK  9 active torsions:
REMARK  status: ('A' for Active; 'I' for Inactive)
REMARK    1  A    between atoms: C_1  and  O_2
REMARK    2  A    between atoms: O_2  and  C_3
REMARK    3  A    between atoms: C_5  and  O_6
REMARK    4  A    between atoms: O_6  and  C_7
REMARK    5  A    between atoms: C_7  and  C_8
REMARK    6  A    between atoms: C_7  and  C_9
REMARK    7  A    between atoms: C_13  and  C_14
REMARK    8  A    between atoms: C_20  and  C_21
REMARK    9  A    between atoms: C_26  and  N_27
REMARK                            x       y       z     vdW  Elec       q    Type
REMARK                         _______ _______ _______ _____ _____    ______ ____
ROOT
ATOM      1  C   UNL     1      -6.487  -2.164 127.436  0.00  0.00    +0.000 A 
ATOM      2  C   UNL     1      -7.251  -2.084 126.262  0.00  0.00    +0.000 A 
ATOM      3  C   UNL     1      -8.518  -2.609 126.195  0.00  0.00    +0.000 A 
ATOM      4  C   UNL     1      -8.944  -3.394 127.254  0.00  0.00    +0.000 A 
ATOM      5  C   UNL     1      -8.263  -3.386 128.478  0.00  0.00    +0.000 A 
ATOM      6  C   UNL     1      -6.987  -2.778 128.611  0.00  0.00    +0.000 A 
ENDROOT
BRANCH   6   7
ATOM      7  C   UNL     1      -6.285  -2.978 129.966  0.00  0.00    +0.000 C 
ATOM      8  O   UNL     1      -6.173  -4.145 130.362  0.00  0.00    +0.000 OA
ATOM      9  N   UNL     1      -5.732  -1.887 130.733  0.00  0.00    +0.000 N 
ATOM     10  C   UNL     1      -4.221  -1.752 130.857  0.00  0.00    +0.000 C 
ATOM     11  C   UNL     1      -3.802  -0.941 132.090  0.00  0.00    +0.000 C 
ATOM     12  C   UNL     1      -4.422   0.760 132.108  0.00  0.00    +0.000 C 
ATOM     13  C   UNL     1      -6.097   0.195 132.164  0.00  0.00    +0.000 C 
ATOM     14  C   UNL     1      -6.520  -0.641 130.942  0.00  0.00    +0.000 C 
BRANCH  12  15
ATOM     15  N   UNL     1      -3.465   2.362 131.976  0.00  0.00    +0.000 N 
ATOM     16  C   UNL     1      -4.137   2.460 130.741  0.00  0.00    +0.000 C 
ATOM     17  O   UNL     1      -4.141   1.620 129.771  0.00  0.00    +0.000 OA
ATOM     18  O   UNL     1      -5.055   3.400 130.718  0.00  0.00    +0.000 OA
ATOM     19  C   UNL     1      -4.327   4.326 130.014  0.00  0.00    +0.000 C 
ATOM     20  C   UNL     1      -3.854   5.062 131.183  0.00  0.00    +0.000 A 
ATOM     21  C   UNL     1      -3.948   6.563 130.833  0.00  0.00    +0.000 A 
ATOM     22  C   UNL     1      -3.151   7.565 131.285  0.00  0.00    +0.000 A 
ATOM     23  C   UNL     1      -2.211   6.998 132.112  0.00  0.00    +0.000 A 
ATOM     24  C   UNL     1      -2.163   5.365 132.501  0.00  0.00    +0.000 A 
ATOM     25  C   UNL     1      -3.178   4.210 132.120  0.00  0.00    +0.000 A 
ENDBRANCH  12  15
ENDBRANCH   6   7
BRANCH   1  27
ATOM     26  C   UNL     1      -5.454  -0.413 126.297  0.00  0.00    +0.000 C 
ATOM     27  O   UNL     1      -5.329  -1.466 127.214  0.00  0.00    +0.000 OA
ENDBRANCH   1  27
BRANCH   3  28
ATOM     28  O   UNL     1      -9.266  -2.215 125.121  0.00  0.00    +0.000 OA
BRANCH  28  29
ATOM     29  C   UNL     1      -8.619  -1.339 124.198  0.00  0.00    +0.000 C 
ATOM     30  C   UNL     1      -8.224  -1.992 122.857  0.00  0.00    +0.000 C 
BRANCH  29  31
ATOM     31  C   UNL     1      -9.480  -0.045 123.991  0.00  0.00    +0.000 C 
ATOM     32  C   UNL     1      -8.784   1.096 123.222  0.00  0.00    +0.000 C 
ATOM     33  C   UNL     1      -7.651   1.704 124.021  0.00  0.00    +0.000 C 
ATOM     34  N   UNL     1      -8.149   2.143 125.349  0.00  0.00    +0.000 N 
ATOM     35  C   UNL     1      -7.883   3.341 125.969  0.00  0.00    +0.000 C 
ATOM     36  C   UNL     1      -7.151   4.394 125.200  0.00  0.00    +0.000 C 
ATOM     37  O   UNL     1      -8.263   3.587 127.116  0.00  0.00    +0.000 OA
ATOM     38  C   UNL     1      -8.858   1.168 126.170  0.00  0.00    +0.000 C 
ATOM     39  C   UNL     1      -9.962   0.466 125.365  0.00  0.00    +0.000 C 
ENDBRANCH  29  31
ENDBRANCH  28  29
ENDBRANCH   3  28
TORSDOF 6
ENDMDL
MODEL 5
REMARK VINA RESULT:      -9.6      4.343      5.894
REMARK  Name = CHEMBL318174
REMARK  9 active torsions:
REMARK  status: ('A' for Active; 'I' for Inactive)
REMARK    1  A    between atoms: C_1  and  O_2
REMARK    2  A    between atoms: O_2  and  C_3
REMARK    3  A    between atoms: C_5  and  O_6
REMARK    4  A    between atoms: O_6  and  C_7
REMARK    5  A    between atoms: C_7  and  C_8
REMARK    6  A    between atoms: C_7  and  C_9
REMARK    7  A    between atoms: C_13  and  C_14
REMARK    8  A    between atoms: C_20  and  C_21
REMARK    9  A    between atoms: C_26  and  N_27
REMARK                            x       y       z     vdW  Elec       q    Type
REMARK                         _______ _______ _______ _____ _____    ______ ____
ROOT
ATOM      1  C   UNL     1      -6.621  -2.405 128.013  0.00  0.00    +0.000 A 
ATOM      2  C   UNL     1      -7.416  -2.148 126.885  0.00  0.00    +0.000 A 
ATOM      3  C   UNL     1      -8.653  -2.724 126.735  0.00  0.00    +0.000 A 
ATOM      4  C   UNL     1      -9.011  -3.719 127.631  0.00  0.00    +0.000 A 
ATOM      5  C   UNL     1      -8.302  -3.902 128.826  0.00  0.00    +0.000 A 
ATOM      6  C   UNL     1      -7.059  -3.257 129.056  0.00  0.00    +0.000 A 
ENDROOT
BRANCH   6   7
ATOM      7  C   UNL     1      -6.316  -3.669 130.339  0.00  0.00    +0.000 C 
ATOM      8  O   UNL     1      -5.766  -4.777 130.327  0.00  0.00    +0.000 OA
ATOM      9  N   UNL     1      -6.206  -2.809 131.494  0.00  0.00    +0.000 N 
ATOM     10  C   UNL     1      -4.857  -2.199 131.845  0.00  0.00    +0.000 C 
ATOM     11  C   UNL     1      -4.760  -1.796 133.321  0.00  0.00    +0.000 C 
ATOM     12  C   UNL     1      -5.977  -0.559 133.838  0.00  0.00    +0.000 C 
ATOM     13  C   UNL     1      -7.313  -1.664 133.488  0.00  0.00    +0.000 C 
ATOM     14  C   UNL     1      -7.404  -2.093 132.012  0.00  0.00    +0.000 C 
BRANCH  12  15
ATOM     15  N   UNL     1      -5.699   1.211 134.378  0.00  0.00    +0.000 N 
ATOM     16  C   UNL     1      -6.473   1.499 133.236  0.00  0.00    +0.000 C 
ATOM     17  O   UNL     1      -6.257   1.145 132.021  0.00  0.00    +0.000 OA
ATOM     18  O   UNL     1      -7.670   1.957 133.518  0.00  0.00    +0.000 OA
ATOM     19  C   UNL     1      -7.408   3.279 133.261  0.00  0.00    +0.000 C 
ATOM     20  C   UNL     1      -7.133   3.648 134.647  0.00  0.00    +0.000 A 
ATOM     21  C   UNL     1      -7.809   5.015 134.887  0.00  0.00    +0.000 A 
ATOM     22  C   UNL     1      -7.400   5.999 135.730  0.00  0.00    +0.000 A 
ATOM     23  C   UNL     1      -6.244   5.565 136.333  0.00  0.00    +0.000 A 
ATOM     24  C   UNL     1      -5.558   4.054 136.076  0.00  0.00    +0.000 A 
ATOM     25  C   UNL     1      -6.103   2.832 135.228  0.00  0.00    +0.000 A 
ENDBRANCH  12  15
ENDBRANCH   6   7
BRANCH   1  27
ATOM     26  C   UNL     1      -5.613  -0.380 128.576  0.00  0.00    +0.000 C 
ATOM     27  O   UNL     1      -5.508  -1.611 127.913  0.00  0.00    +0.000 OA
ENDBRANCH   1  27
BRANCH   3  28
ATOM     28  O   UNL     1      -9.446  -2.178 125.765  0.00  0.00    +0.000 OA
BRANCH  28  29
ATOM     29  C   UNL     1      -8.762  -1.561 124.674  0.00  0.00    +0.000 C 
ATOM     30  C   UNL     1      -8.661  -2.429 123.403  0.00  0.00    +0.000 C 
BRANCH  29  31
ATOM     31  C   UNL     1      -9.384  -0.153 124.378  0.00  0.00    +0.000 C 
ATOM     32  C   UNL     1      -8.739   0.621 123.210  0.00  0.00    +0.000 C 
ATOM     33  C   UNL     1      -7.329   1.062 123.537  0.00  0.00    +0.000 C 
ATOM     34  N   UNL     1      -7.323   1.842 124.800  0.00  0.00    +0.000 N 
ATOM     35  C   UNL     1      -6.664   3.028 125.026  0.00  0.00    +0.000 C 
ATOM     36  C   UNL     1      -6.004   3.708 123.871  0.00  0.00    +0.000 C 
ATOM     37  O   UNL     1      -6.637   3.563 126.137  0.00  0.00    +0.000 OA
ATOM     38  C   UNL     1      -7.932   1.239 125.979  0.00  0.00    +0.000 C 
ATOM     39  C   UNL     1      -9.336   0.701 125.663  0.00  0.00    +0.000 C 
ENDBRANCH  29  31
ENDBRANCH  28  29
ENDBRANCH   3  28
TORSDOF 6
ENDMDL
MODEL 6
REMARK VINA RESULT:      -9.5      3.627      9.370
REMARK  Name = CHEMBL318174
REMARK  9 active torsions:
REMARK  status: ('A' for Active; 'I' for Inactive)
REMARK    1  A    between atoms: C_1  and  O_2
REMARK    2  A    between atoms: O_2  and  C_3
REMARK    3  A    between atoms: C_5  and  O_6
REMARK    4  A    between atoms: O_6  and  C_7
REMARK    5  A    between atoms: C_7  and  C_8
REMARK    6  A    between atoms: C_7  and  C_9
REMARK    7  A    between atoms: C_13  and  C_14
REMARK    8  A    between atoms: C_20  and  C_21
REMARK    9  A    between atoms: C_26  and  N_27
REMARK                            x       y       z     vdW  Elec       q    Type
REMARK                         _______ _______ _______ _____ _____    ______ ____
ROOT
ATOM      1  C   UNL     1      -3.541   4.667 131.372  0.00  0.00    +0.000 A 
ATOM      2  C   UNL     1      -4.022   4.923 132.666  0.00  0.00    +0.000 A 
ATOM      3  C   UNL     1      -4.309   6.199 133.083  0.00  0.00    +0.000 A 
ATOM      4  C   UNL     1      -3.923   7.245 132.261  0.00  0.00    +0.000 A 
ATOM      5  C   UNL     1      -3.562   7.018 130.926  0.00  0.00    +0.000 A 
ATOM      6  C   UNL     1      -3.339   5.706 130.432  0.00  0.00    +0.000 A 
ENDROOT
BRANCH   6   7
ATOM      7  C   UNL     1      -2.798   5.612 128.994  0.00  0.00    +0.000 C 
ATOM      8  O   UNL     1      -1.867   6.375 128.705  0.00  0.00    +0.000 OA
ATOM      9  N   UNL     1      -3.294   4.662 128.028  0.00  0.00    +0.000 N 
ATOM     10  C   UNL     1      -2.410   3.500 127.601  0.00  0.00    +0.000 C 
ATOM     11  C   UNL     1      -2.809   2.927 126.235  0.00  0.00    +0.000 C 
ATOM     12  C   UNL     1      -4.496   2.275 126.164  0.00  0.00    +0.000 C 
ATOM     13  C   UNL     1      -5.174   3.876 126.491  0.00  0.00    +0.000 C 
ATOM     14  C   UNL     1      -4.760   4.469 127.850  0.00  0.00    +0.000 C 
BRANCH  12  15
ATOM     15  N   UNL     1      -5.066   0.507 125.946  0.00  0.00    +0.000 N 
ATOM     16  C   UNL     1      -5.578   0.694 127.245  0.00  0.00    +0.000 C 
ATOM     17  O   UNL     1      -4.945   1.050 128.304  0.00  0.00    +0.000 OA
ATOM     18  O   UNL     1      -6.889   0.754 127.287  0.00  0.00    +0.000 OA
ATOM     19  C   UNL     1      -7.100  -0.520 127.750  0.00  0.00    +0.000 C 
ATOM     20  C   UNL     1      -7.345  -1.115 126.439  0.00  0.00    +0.000 A 
ATOM     21  C   UNL     1      -8.532  -2.088 126.606  0.00  0.00    +0.000 A 
ATOM     22  C   UNL     1      -8.760  -3.235 125.914  0.00  0.00    +0.000 A 
ATOM     23  C   UNL     1      -7.717  -3.395 125.034  0.00  0.00    +0.000 A 
ATOM     24  C   UNL     1      -6.461  -2.294 124.852  0.00  0.00    +0.000 A 
ATOM     25  C   UNL     1      -6.263  -0.875 125.526  0.00  0.00    +0.000 A 
ENDBRANCH  12  15
ENDBRANCH   6   7
BRANCH   1  27
ATOM     26  C   UNL     1      -4.327   2.583 132.059  0.00  0.00    +0.000 C 
ATOM     27  O   UNL     1      -3.454   3.305 131.236  0.00  0.00    +0.000 OA
ENDBRANCH   1  27
BRANCH   3  28
ATOM     28  O   UNL     1      -5.041   6.295 134.233  0.00  0.00    +0.000 OA
BRANCH  28  29
ATOM     29  C   UNL     1      -5.851   5.165 134.553  0.00  0.00    +0.000 C 
ATOM     30  C   UNL     1      -5.620   4.583 135.964  0.00  0.00    +0.000 C 
BRANCH  29  31
ATOM     31  C   UNL     1      -7.361   5.496 134.293  0.00  0.00    +0.000 C 
ATOM     32  C   UNL     1      -8.357   4.385 134.683  0.00  0.00    +0.000 C 
ATOM     33  C   UNL     1      -8.234   3.176 133.782  0.00  0.00    +0.000 C 
ATOM     34  N   UNL     1      -8.377   3.587 132.362  0.00  0.00    +0.000 N 
ATOM     35  C   UNL     1      -9.139   2.964 131.402  0.00  0.00    +0.000 C 
ATOM     36  C   UNL     1     -10.045   1.852 131.822  0.00  0.00    +0.000 C 
ATOM     37  O   UNL     1      -9.128   3.319 130.221  0.00  0.00    +0.000 OA
ATOM     38  C   UNL     1      -7.515   4.654 131.869  0.00  0.00    +0.000 C 
ATOM     39  C   UNL     1      -7.548   5.870 132.808  0.00  0.00    +0.000 C 
ENDBRANCH  29  31
ENDBRANCH  28  29
ENDBRANCH   3  28
TORSDOF 6
ENDMDL
MODEL 7
REMARK VINA RESULT:      -9.3      2.620      9.235
REMARK  Name = CHEMBL318174
REMARK  9 active torsions:
REMARK  status: ('A' for Active; 'I' for Inactive)
REMARK    1  A    between atoms: C_1  and  O_2
REMARK    2  A    between atoms: O_2  and  C_3
REMARK    3  A    between atoms: C_5  and  O_6
REMARK    4  A    between atoms: O_6  and  C_7
REMARK    5  A    between atoms: C_7  and  C_8
REMARK    6  A    between atoms: C_7  and  C_9
REMARK    7  A    between atoms: C_13  and  C_14
REMARK    8  A    between atoms: C_20  and  C_21
REMARK    9  A    between atoms: C_26  and  N_27
REMARK                            x       y       z     vdW  Elec       q    Type
REMARK                         _______ _______ _______ _____ _____    ______ ____
ROOT
ATOM      1  C   UNL     1      -8.373   2.321 133.083  0.00  0.00    +0.000 A 
ATOM      2  C   UNL     1      -9.165   3.479 133.128  0.00  0.00    +0.000 A 
ATOM      3  C   UNL     1      -8.713   4.632 133.721  0.00  0.00    +0.000 A 
ATOM      4  C   UNL     1      -7.535   4.562 134.446  0.00  0.00    +0.000 A 
ATOM      5  C   UNL     1      -6.669   3.468 134.313  0.00  0.00    +0.000 A 
ATOM      6  C   UNL     1      -7.068   2.288 133.632  0.00  0.00    +0.000 A 
ENDROOT
BRANCH   6   7
ATOM      7  C   UNL     1      -6.080   1.110 133.696  0.00  0.00    +0.000 C 
ATOM      8  O   UNL     1      -5.726   0.746 134.824  0.00  0.00    +0.000 OA
ATOM      9  N   UNL     1      -5.611   0.413 132.521  0.00  0.00    +0.000 N 
ATOM     10  C   UNL     1      -6.077  -1.012 132.262  0.00  0.00    +0.000 C 
ATOM     11  C   UNL     1      -5.121  -1.787 131.348  0.00  0.00    +0.000 C 
ATOM     12  C   UNL     1      -4.910  -1.062 129.702  0.00  0.00    +0.000 C 
ATOM     13  C   UNL     1      -4.204   0.406 130.392  0.00  0.00    +0.000 C 
ATOM     14  C   UNL     1      -5.149   1.178 131.330  0.00  0.00    +0.000 C 
BRANCH  12  15
ATOM     15  N   UNL     1      -5.440  -1.741 128.042  0.00  0.00    +0.000 N 
ATOM     16  C   UNL     1      -6.425  -0.738 128.140  0.00  0.00    +0.000 C 
ATOM     17  O   UNL     1      -7.284  -0.559 129.076  0.00  0.00    +0.000 OA
ATOM     18  O   UNL     1      -6.248   0.254 127.298  0.00  0.00    +0.000 OA
ATOM     19  C   UNL     1      -7.203  -0.126 126.389  0.00  0.00    +0.000 C 
ATOM     20  C   UNL     1      -6.285  -0.820 125.491  0.00  0.00    +0.000 A 
ATOM     21  C   UNL     1      -6.704  -0.450 124.052  0.00  0.00    +0.000 A 
ATOM     22  C   UNL     1      -6.585  -1.216 122.936  0.00  0.00    +0.000 A 
ATOM     23  C   UNL     1      -6.031  -2.414 123.321  0.00  0.00    +0.000 A 
ATOM     24  C   UNL     1      -5.551  -2.767 124.891  0.00  0.00    +0.000 A 
ATOM     25  C   UNL     1      -5.527  -1.833 126.170  0.00  0.00    +0.000 A 
ENDBRANCH  12  15
ENDBRANCH   6   7
BRANCH   1  27
ATOM     26  C   UNL     1      -9.055   1.631 130.964  0.00  0.00    +0.000 C 
ATOM     27  O   UNL     1      -9.058   1.392 132.344  0.00  0.00    +0.000 OA
ENDBRANCH   1  27
BRANCH   3  28
ATOM     28  O   UNL     1      -9.434   5.760 133.446  0.00  0.00    +0.000 OA
BRANCH  28  29
ATOM     29  C   UNL     1      -9.324   6.263 132.115  0.00  0.00    +0.000 C 
ATOM     30  C   UNL     1      -7.879   6.363 131.581  0.00  0.00    +0.000 C 
BRANCH  29  31
ATOM     31  C   UNL     1     -10.251   5.444 131.152  0.00  0.00    +0.000 C 
ATOM     32  C   UNL     1      -9.740   5.301 129.705  0.00  0.00    +0.000 C 
ATOM     33  C   UNL     1      -9.761   6.621 128.967  0.00  0.00    +0.000 C 
ATOM     34  N   UNL     1     -11.122   7.212 129.027  0.00  0.00    +0.000 N 
ATOM     35  C   UNL     1     -11.818   7.772 127.982  0.00  0.00    +0.000 C 
ATOM     36  C   UNL     1     -11.249   7.658 126.604  0.00  0.00    +0.000 C 
ATOM     37  O   UNL     1     -12.909   8.325 128.140  0.00  0.00    +0.000 OA
ATOM     38  C   UNL     1     -11.740   7.374 130.337  0.00  0.00    +0.000 C 
ATOM     39  C   UNL     1     -11.660   6.074 131.151  0.00  0.00    +0.000 C 
ENDBRANCH  29  31
ENDBRANCH  28  29
ENDBRANCH   3  28
TORSDOF 6
ENDMDL
MODEL 8
REMARK VINA RESULT:      -9.3      4.078      5.056
REMARK  Name = CHEMBL318174
REMARK  9 active torsions:
REMARK  status: ('A' for Active; 'I' for Inactive)
REMARK    1  A    between atoms: C_1  and  O_2
REMARK    2  A    between atoms: O_2  and  C_3
REMARK    3  A    between atoms: C_5  and  O_6
REMARK    4  A    between atoms: O_6  and  C_7
REMARK    5  A    between atoms: C_7  and  C_8
REMARK    6  A    between atoms: C_7  and  C_9
REMARK    7  A    between atoms: C_13  and  C_14
REMARK    8  A    between atoms: C_20  and  C_21
REMARK    9  A    between atoms: C_26  and  N_27
REMARK                            x       y       z     vdW  Elec       q    Type
REMARK                         _______ _______ _______ _____ _____    ______ ____
ROOT
ATOM      1  C   UNL     1      -6.643  -2.018 128.505  0.00  0.00    +0.000 A 
ATOM      2  C   UNL     1      -6.778  -2.442 127.174  0.00  0.00    +0.000 A 
ATOM      3  C   UNL     1      -7.828  -3.231 126.777  0.00  0.00    +0.000 A 
ATOM      4  C   UNL     1      -8.643  -3.761 127.765  0.00  0.00    +0.000 A 
ATOM      5  C   UNL     1      -8.610  -3.258 129.072  0.00  0.00    +0.000 A 
ATOM      6  C   UNL     1      -7.588  -2.372 129.499  0.00  0.00    +0.000 A 
ENDROOT
BRANCH   6   7
ATOM      7  C   UNL     1      -7.584  -2.022 130.999  0.00  0.00    +0.000 C 
ATOM      8  O   UNL     1      -7.573  -2.976 131.787  0.00  0.00    +0.000 OA
ATOM      9  N   UNL     1      -7.545  -0.666 131.489  0.00  0.00    +0.000 N 
ATOM     10  C   UNL     1      -6.283  -0.154 132.169  0.00  0.00    +0.000 C 
ATOM     11  C   UNL     1      -6.555   1.040 133.093  0.00  0.00    +0.000 C 
ATOM     12  C   UNL     1      -7.252   2.487 132.257  0.00  0.00    +0.000 C 
ATOM     13  C   UNL     1      -8.706   1.584 131.812  0.00  0.00    +0.000 C 
ATOM     14  C   UNL     1      -8.440   0.371 130.904  0.00  0.00    +0.000 C 
BRANCH  12  15
ATOM     15  N   UNL     1      -6.480   4.168 131.979  0.00  0.00    +0.000 N 
ATOM     16  C   UNL     1      -6.636   4.279 133.375  0.00  0.00    +0.000 C 
ATOM     17  O   UNL     1      -7.711   4.161 134.065  0.00  0.00    +0.000 OA
ATOM     18  O   UNL     1      -5.500   4.242 134.033  0.00  0.00    +0.000 OA
ATOM     19  C   UNL     1      -5.402   5.589 134.274  0.00  0.00    +0.000 C 
ATOM     20  C   UNL     1      -4.532   5.880 133.138  0.00  0.00    +0.000 A 
ATOM     21  C   UNL     1      -3.464   6.876 133.638  0.00  0.00    +0.000 A 
ATOM     22  C   UNL     1      -2.839   7.844 132.918  0.00  0.00    +0.000 A 
ATOM     23  C   UNL     1      -3.347   7.795 131.642  0.00  0.00    +0.000 A 
ATOM     24  C   UNL     1      -4.480   6.669 131.122  0.00  0.00    +0.000 A 
ATOM     25  C   UNL     1      -5.098   5.433 131.896  0.00  0.00    +0.000 A 
ENDBRANCH  12  15
ENDBRANCH   6   7
BRANCH   1  27
ATOM     26  C   UNL     1      -4.460  -1.680 129.249  0.00  0.00    +0.000 C 
ATOM     27  O   UNL     1      -5.566  -1.172 128.554  0.00  0.00    +0.000 OA
ENDBRANCH   1  27
BRANCH   3  28
ATOM     28  O   UNL     1      -8.017  -3.330 125.426  0.00  0.00    +0.000 OA
BRANCH  28  29
ATOM     29  C   UNL     1      -6.981  -2.783 124.610  0.00  0.00    +0.000 C 
ATOM     30  C   UNL     1      -5.921  -3.803 124.143  0.00  0.00    +0.000 C 
BRANCH  29  31
ATOM     31  C   UNL     1      -7.605  -1.991 123.410  0.00  0.00    +0.000 C 
ATOM     32  C   UNL     1      -6.770  -0.799 122.901  0.00  0.00    +0.000 C 
ATOM     33  C   UNL     1      -6.719   0.327 123.911  0.00  0.00    +0.000 C 
ATOM     34  N   UNL     1      -8.098   0.727 124.291  0.00  0.00    +0.000 N 
ATOM     35  C   UNL     1      -8.578   2.011 124.394  0.00  0.00    +0.000 C 
ATOM     36  C   UNL     1      -7.706   3.137 123.942  0.00  0.00    +0.000 C 
ATOM     37  O   UNL     1      -9.714   2.257 124.807  0.00  0.00    +0.000 OA
ATOM     38  C   UNL     1      -9.006  -0.312 124.760  0.00  0.00    +0.000 C 
ATOM     39  C   UNL     1      -9.019  -1.511 123.801  0.00  0.00    +0.000 C 
ENDBRANCH  29  31
ENDBRANCH  28  29
ENDBRANCH   3  28
TORSDOF 6
ENDMDL
MODEL 9
REMARK VINA RESULT:      -9.2      2.521      3.983
REMARK  Name = CHEMBL318174
REMARK  9 active torsions:
REMARK  status: ('A' for Active; 'I' for Inactive)
REMARK    1  A    between atoms: C_1  and  O_2
REMARK    2  A    between atoms: O_2  and  C_3
REMARK    3  A    between atoms: C_5  and  O_6
REMARK    4  A    between atoms: O_6  and  C_7
REMARK    5  A    between atoms: C_7  and  C_8
REMARK    6  A    between atoms: C_7  and  C_9
REMARK    7  A    between atoms: C_13  and  C_14
REMARK    8  A    between atoms: C_20  and  C_21
REMARK    9  A    between atoms: C_26  and  N_27
REMARK                            x       y       z     vdW  Elec       q    Type
REMARK                         _______ _______ _______ _____ _____    ______ ____
ROOT
ATOM      1  C   UNL     1      -6.839  -0.413 132.431  0.00  0.00    +0.000 A 
ATOM      2  C   UNL     1      -6.734  -1.365 131.406  0.00  0.00    +0.000 A 
ATOM      3  C   UNL     1      -6.042  -1.100 130.251  0.00  0.00    +0.000 A 
ATOM      4  C   UNL     1      -5.617   0.203 130.041  0.00  0.00    +0.000 A 
ATOM      5  C   UNL     1      -5.595   1.132 131.090  0.00  0.00    +0.000 A 
ATOM      6  C   UNL     1      -6.227   0.860 132.332  0.00  0.00    +0.000 A 
ENDROOT
BRANCH   6   7
ATOM      7  C   UNL     1      -6.261   2.026 133.337  0.00  0.00    +0.000 C 
ATOM      8  O   UNL     1      -5.405   2.008 134.231  0.00  0.00    +0.000 OA
ATOM      9  N   UNL     1      -7.195   3.122 133.239  0.00  0.00    +0.000 N 
ATOM     10  C   UNL     1      -6.689   4.503 132.850  0.00  0.00    +0.000 C 
ATOM     11  C   UNL     1      -7.627   5.625 133.311  0.00  0.00    +0.000 C 
ATOM     12  C   UNL     1      -9.297   5.532 132.617  0.00  0.00    +0.000 C 
ATOM     13  C   UNL     1      -9.591   3.983 133.420  0.00  0.00    +0.000 C 
ATOM     14  C   UNL     1      -8.638   2.857 132.982  0.00  0.00    +0.000 C 
BRANCH  12  15
ATOM     15  N   UNL     1     -10.137   6.693 131.414  0.00  0.00    +0.000 N 
ATOM     16  C   UNL     1      -9.847   5.668 130.491  0.00  0.00    +0.000 C 
ATOM     17  O   UNL     1      -8.706   5.152 130.211  0.00  0.00    +0.000 OA
ATOM     18  O   UNL     1     -10.911   5.016 130.081  0.00  0.00    +0.000 OA
ATOM     19  C   UNL     1     -11.020   5.628 128.858  0.00  0.00    +0.000 C 
ATOM     20  C   UNL     1     -12.006   6.621 129.277  0.00  0.00    +0.000 A 
ATOM     21  C   UNL     1     -13.045   6.723 128.139  0.00  0.00    +0.000 A 
ATOM     22  C   UNL     1     -13.764   7.818 127.777  0.00  0.00    +0.000 A 
ATOM     23  C   UNL     1     -13.385   8.847 128.605  0.00  0.00    +0.000 A 
ATOM     24  C   UNL     1     -12.278   8.688 129.858  0.00  0.00    +0.000 A 
ATOM     25  C   UNL     1     -11.555   7.389 130.402  0.00  0.00    +0.000 A 
ENDBRANCH  12  15
ENDBRANCH   6   7
BRANCH   1  27
ATOM     26  C   UNL     1      -7.652  -2.399 133.340  0.00  0.00    +0.000 C 
ATOM     27  O   UNL     1      -7.495  -1.013 133.475  0.00  0.00    +0.000 OA
ENDBRANCH   1  27
BRANCH   3  28
ATOM     28  O   UNL     1      -5.758  -2.184 129.468  0.00  0.00    +0.000 OA
BRANCH  28  29
ATOM     29  C   UNL     1      -6.699  -2.470 128.434  0.00  0.00    +0.000 C 
ATOM     30  C   UNL     1      -8.059  -3.004 128.928  0.00  0.00    +0.000 C 
BRANCH  29  31
ATOM     31  C   UNL     1      -6.861  -1.224 127.496  0.00  0.00    +0.000 C 
ATOM     32  C   UNL     1      -8.177  -1.169 126.694  0.00  0.00    +0.000 C 
ATOM     33  C   UNL     1      -8.240  -2.253 125.640  0.00  0.00    +0.000 C 
ATOM     34  N   UNL     1      -7.044  -2.178 124.764  0.00  0.00    +0.000 N 
ATOM     35  C   UNL     1      -7.028  -2.251 123.391  0.00  0.00    +0.000 C 
ATOM     36  C   UNL     1      -8.333  -2.255 122.663  0.00  0.00    +0.000 C 
ATOM     37  O   UNL     1      -5.977  -2.273 122.746  0.00  0.00    +0.000 OA
ATOM     38  C   UNL     1      -5.731  -2.188 125.398  0.00  0.00    +0.000 C 
ATOM     39  C   UNL     1      -5.657  -1.156 126.533  0.00  0.00    +0.000 C 
ENDBRANCH  29  31
ENDBRANCH  28  29
ENDBRANCH   3  28
TORSDOF 6
ENDMDL
