MODEL 1
REMARK VINA RESULT:     -11.1      0.000      0.000
REMARK  Name = CHEMBL105733
REMARK  6 active torsions:
REMARK  status: ('A' for Active; 'I' for Inactive)
REMARK    1  A    between atoms: C_1  and  O_2
REMARK    2  A    between atoms: O_2  and  C_3
REMARK    3  A    between atoms: C_5  and  O_6
REMARK    4  A    between atoms: O_6  and  C_7
REMARK    5  A    between atoms: C_19  and  C_20
REMARK    6  A    between atoms: C_25  and  N_26
REMARK                            x       y       z     vdW  Elec       q    Type
REMARK                         _______ _______ _______ _____ _____    ______ ____
ROOT
ATOM      1  C   UNL     1      -3.906   4.008 131.879  0.00  0.00    +0.000 A 
ATOM      2  C   UNL     1      -4.359   4.388 133.401  0.00  0.00    +0.000 A 
ATOM      3  C   UNL     1      -4.737   5.795 134.023  0.00  0.00    +0.000 A 
ATOM      4  C   UNL     1      -4.557   6.673 132.947  0.00  0.00    +0.000 A 
ATOM      5  C   UNL     1      -4.115   6.293 131.477  0.00  0.00    +0.000 A 
ATOM      6  C   UNL     1      -3.797   4.996 130.895  0.00  0.00    +0.000 A 
ENDROOT
BRANCH   6   7
ATOM      7  C   UNL     1      -3.337   4.914 129.360  0.00  0.00    +0.000 C 
ATOM      8  O   UNL     1      -2.261   5.459 129.075  0.00  0.00    +0.000 OA
ATOM      9  N   UNL     1      -4.088   4.252 128.283  0.00  0.00    +0.000 N 
ATOM     10  C   UNL     1      -3.570   2.930 127.675  0.00  0.00    +0.000 C 
ATOM     11  C   UNL     1      -4.047   2.764 126.238  0.00  0.00    +0.000 C 
ATOM     12  C   UNL     1      -5.880   2.567 126.066  0.00  0.00    +0.000 C 
ATOM     13  C   UNL     1      -6.090   4.265 126.709  0.00  0.00    +0.000 C 
ATOM     14  C   UNL     1      -5.571   4.466 128.126  0.00  0.00    +0.000 C 
BRANCH  12  15
ATOM     15  N   UNL     1      -6.977   0.977 125.984  0.00  0.00    +0.000 N 
ATOM     16  C   UNL     1      -7.041   1.447 124.607  0.00  0.00    +0.000 C 
ATOM     17  O   UNL     1      -7.081   2.545 124.075  0.00  0.00    +0.000 OA
ATOM     18  O   UNL     1      -6.659   0.457 123.834  0.00  0.00    +0.000 OA
ATOM     19  C   UNL     1      -7.850   0.142 123.233  0.00  0.00    +0.000 C 
ATOM     20  C   UNL     1      -8.092  -0.995 124.085  0.00  0.00    +0.000 A 
ATOM     21  C   UNL     1      -8.705  -2.155 123.100  0.00  0.00    +0.000 A 
ATOM     22  C   UNL     1      -9.387  -3.287 123.418  0.00  0.00    +0.000 A 
ATOM     23  C   UNL     1      -9.394  -3.299 124.789  0.00  0.00    +0.000 A 
ATOM     24  C   UNL     1      -8.718  -2.057 125.804  0.00  0.00    +0.000 A 
ATOM     25  C   UNL     1      -7.875  -0.650 125.483  0.00  0.00    +0.000 A 
ENDBRANCH  12  15
ENDBRANCH   6   7
BRANCH   1  27
ATOM     26  C   UNL     1      -4.868   1.837 131.165  0.00  0.00    +0.000 C 
ATOM     27  O   UNL     1      -3.762   2.624 131.635  0.00  0.00    +0.000 OA
ENDBRANCH   1  27
BRANCH   3  28
ATOM     28  O   UNL     1      -5.070   6.300 135.613  0.00  0.00    +0.000 OA
BRANCH  28  29
ATOM     29  C   UNL     1      -5.987   7.515 136.712  0.00  0.00    +0.000 C 
ATOM     30  C   UNL     1      -6.413   6.106 137.078  0.00  0.00    +0.000 C 
ATOM     31  C   UNL     1      -7.690   6.795 137.037  0.00  0.00    +0.000 C 
ATOM     32  C   UNL     1      -7.894   6.462 138.477  0.00  0.00    +0.000 C 
ATOM     33  C   UNL     1      -8.250   7.842 138.467  0.00  0.00    +0.000 A 
ATOM     34  C   UNL     1      -9.455   8.591 137.808  0.00  0.00    +0.000 A 
ATOM     35  C   UNL     1      -9.906   9.808 138.278  0.00  0.00    +0.000 A 
ATOM     36  C   UNL     1      -9.353  10.017 139.459  0.00  0.00    +0.000 A 
ATOM     37  C   UNL     1      -7.886   9.325 139.459  0.00  0.00    +0.000 A 
ATOM     38  C   UNL     1      -6.917   8.330 138.468  0.00  0.00    +0.000 A 
ENDBRANCH  28  29
ENDBRANCH   3  28
TORSDOF 5
ENDMDL
MODEL 2
REMARK VINA RESULT:     -11.0      4.584      6.326
REMARK  Name = CHEMBL105733
REMARK  6 active torsions:
REMARK  status: ('A' for Active; 'I' for Inactive)
REMARK    1  A    between atoms: C_1  and  O_2
REMARK    2  A    between atoms: O_2  and  C_3
REMARK    3  A    between atoms: C_5  and  O_6
REMARK    4  A    between atoms: O_6  and  C_7
REMARK    5  A    between atoms: C_19  and  C_20
REMARK    6  A    between atoms: C_25  and  N_26
REMARK                            x       y       z     vdW  Elec       q    Type
REMARK                         _______ _______ _______ _____ _____    ______ ____
ROOT
ATOM      1  C   UNL     1      -4.391   6.566 130.268  0.00  0.00    +0.000 A 
ATOM      2  C   UNL     1      -3.371   7.587 131.030  0.00  0.00    +0.000 A 
ATOM      3  C   UNL     1      -3.014   7.700 132.569  0.00  0.00    +0.000 A 
ATOM      4  C   UNL     1      -3.822   6.714 133.152  0.00  0.00    +0.000 A 
ATOM      5  C   UNL     1      -4.808   5.732 132.402  0.00  0.00    +0.000 A 
ATOM      6  C   UNL     1      -5.115   5.607 130.984  0.00  0.00    +0.000 A 
ENDROOT
BRANCH   6   7
ATOM      7  C   UNL     1      -6.201   4.526 130.506  0.00  0.00    +0.000 C 
ATOM      8  O   UNL     1      -7.075   4.219 131.330  0.00  0.00    +0.000 OA
ATOM      9  N   UNL     1      -6.234   3.881 129.185  0.00  0.00    +0.000 N 
ATOM     10  C   UNL     1      -7.334   4.253 128.167  0.00  0.00    +0.000 C 
ATOM     11  C   UNL     1      -7.607   3.099 127.211  0.00  0.00    +0.000 C 
ATOM     12  C   UNL     1      -6.188   2.684 126.098  0.00  0.00    +0.000 C 
ATOM     13  C   UNL     1      -5.220   2.194 127.569  0.00  0.00    +0.000 C 
ATOM     14  C   UNL     1      -4.980   3.321 128.565  0.00  0.00    +0.000 C 
BRANCH  12  15
ATOM     15  N   UNL     1      -5.769   3.284 124.308  0.00  0.00    +0.000 N 
ATOM     16  C   UNL     1      -6.980   2.509 124.080  0.00  0.00    +0.000 C 
ATOM     17  O   UNL     1      -7.448   1.485 124.555  0.00  0.00    +0.000 OA
ATOM     18  O   UNL     1      -7.836   3.287 123.460  0.00  0.00    +0.000 OA
ATOM     19  C   UNL     1      -7.851   2.698 122.222  0.00  0.00    +0.000 C 
ATOM     20  C   UNL     1      -6.972   3.679 121.637  0.00  0.00    +0.000 A 
ATOM     21  C   UNL     1      -7.580   3.972 120.142  0.00  0.00    +0.000 A 
ATOM     22  C   UNL     1      -6.987   4.557 119.067  0.00  0.00    +0.000 A 
ATOM     23  C   UNL     1      -5.753   4.933 119.529  0.00  0.00    +0.000 A 
ATOM     24  C   UNL     1      -5.146   4.619 121.131  0.00  0.00    +0.000 A 
ATOM     25  C   UNL     1      -5.814   3.911 122.489  0.00  0.00    +0.000 A 
ENDBRANCH  12  15
ENDBRANCH   6   7
BRANCH   1  27
ATOM     26  C   UNL     1      -3.147   6.865 128.143  0.00  0.00    +0.000 C 
ATOM     27  O   UNL     1      -4.376   6.660 128.858  0.00  0.00    +0.000 OA
ENDBRANCH   1  27
BRANCH   3  28
ATOM     28  O   UNL     1      -2.090   8.817 133.459  0.00  0.00    +0.000 OA
BRANCH  28  29
ATOM     29  C   UNL     1      -2.024  10.518 134.251  0.00  0.00    +0.000 C 
ATOM     30  C   UNL     1      -1.550  10.628 132.815  0.00  0.00    +0.000 C 
ATOM     31  C   UNL     1      -0.553  11.419 133.511  0.00  0.00    +0.000 C 
ATOM     32  C   UNL     1      -0.966  12.609 132.712  0.00  0.00    +0.000 C 
ATOM     33  C   UNL     1      -0.916  13.169 134.022  0.00  0.00    +0.000 A 
ATOM     34  C   UNL     1       0.288  13.433 134.985  0.00  0.00    +0.000 A 
ATOM     35  C   UNL     1       0.234  14.388 135.979  0.00  0.00    +0.000 A 
ATOM     36  C   UNL     1      -0.823  15.147 135.757  0.00  0.00    +0.000 A 
ATOM     37  C   UNL     1      -1.967  14.228 135.066  0.00  0.00    +0.000 A 
ATOM     38  C   UNL     1      -2.170  12.652 134.442  0.00  0.00    +0.000 A 
ENDBRANCH  28  29
ENDBRANCH   3  28
TORSDOF 5
ENDMDL
MODEL 3
REMARK VINA RESULT:     -10.9      4.421      6.418
REMARK  Name = CHEMBL105733
REMARK  6 active torsions:
REMARK  status: ('A' for Active; 'I' for Inactive)
REMARK    1  A    between atoms: C_1  and  O_2
REMARK    2  A    between atoms: O_2  and  C_3
REMARK    3  A    between atoms: C_5  and  O_6
REMARK    4  A    between atoms: O_6  and  C_7
REMARK    5  A    between atoms: C_19  and  C_20
REMARK    6  A    between atoms: C_25  and  N_26
REMARK                            x       y       z     vdW  Elec       q    Type
REMARK                         _______ _______ _______ _____ _____    ______ ____
ROOT
ATOM      1  C   UNL     1      -6.173   5.855 131.105  0.00  0.00    +0.000 A 
ATOM      2  C   UNL     1      -4.995   6.815 131.703  0.00  0.00    +0.000 A 
ATOM      3  C   UNL     1      -3.603   6.424 132.351  0.00  0.00    +0.000 A 
ATOM      4  C   UNL     1      -3.627   5.024 132.325  0.00  0.00    +0.000 A 
ATOM      5  C   UNL     1      -4.776   4.106 131.745  0.00  0.00    +0.000 A 
ATOM      6  C   UNL     1      -6.042   4.463 131.121  0.00  0.00    +0.000 A 
ENDROOT
BRANCH   6   7
ATOM      7  C   UNL     1      -7.044   3.301 130.651  0.00  0.00    +0.000 C 
ATOM      8  O   UNL     1      -7.867   2.906 131.491  0.00  0.00    +0.000 OA
ATOM      9  N   UNL     1      -7.057   2.677 129.320  0.00  0.00    +0.000 N 
ATOM     10  C   UNL     1      -8.211   2.969 128.337  0.00  0.00    +0.000 C 
ATOM     11  C   UNL     1      -8.411   1.811 127.367  0.00  0.00    +0.000 C 
ATOM     12  C   UNL     1      -6.991   1.538 126.211  0.00  0.00    +0.000 C 
ATOM     13  C   UNL     1      -5.946   1.109 127.648  0.00  0.00    +0.000 C 
ATOM     14  C   UNL     1      -5.777   2.236 128.658  0.00  0.00    +0.000 C 
BRANCH  12  15
ATOM     15  N   UNL     1      -6.673   2.200 124.423  0.00  0.00    +0.000 N 
ATOM     16  C   UNL     1      -8.054   1.749 124.325  0.00  0.00    +0.000 C 
ATOM     17  O   UNL     1      -8.689   0.817 124.795  0.00  0.00    +0.000 OA
ATOM     18  O   UNL     1      -8.770   2.759 123.891  0.00  0.00    +0.000 OA
ATOM     19  C   UNL     1      -9.084   2.315 122.633  0.00  0.00    +0.000 C 
ATOM     20  C   UNL     1      -8.078   3.122 121.990  0.00  0.00    +0.000 A 
ATOM     21  C   UNL     1      -8.784   3.692 120.624  0.00  0.00    +0.000 A 
ATOM     22  C   UNL     1      -8.211   4.229 119.514  0.00  0.00    +0.000 A 
ATOM     23  C   UNL     1      -6.873   4.266 119.813  0.00  0.00    +0.000 A 
ATOM     24  C   UNL     1      -6.160   3.665 121.283  0.00  0.00    +0.000 A 
ATOM     25  C   UNL     1      -6.798   2.997 122.675  0.00  0.00    +0.000 A 
ENDBRANCH  12  15
ENDBRANCH   6   7
BRANCH   1  27
ATOM     26  C   UNL     1      -8.530   6.627 131.106  0.00  0.00    +0.000 C 
ATOM     27  O   UNL     1      -7.238   6.546 130.483  0.00  0.00    +0.000 OA
ENDBRANCH   1  27
BRANCH   3  28
ATOM     28  O   UNL     1      -2.397   7.338 133.127  0.00  0.00    +0.000 OA
BRANCH  28  29
ATOM     29  C   UNL     1      -1.131   8.716 132.971  0.00  0.00    +0.000 C 
ATOM     30  C   UNL     1      -2.308   9.222 133.782  0.00  0.00    +0.000 C 
ATOM     31  C   UNL     1      -2.079  10.334 132.878  0.00  0.00    +0.000 C 
ATOM     32  C   UNL     1      -1.811  11.211 134.054  0.00  0.00    +0.000 C 
ATOM     33  C   UNL     1      -0.720  11.559 133.206  0.00  0.00    +0.000 A 
ATOM     34  C   UNL     1      -0.682  12.305 131.831  0.00  0.00    +0.000 A 
ATOM     35  C   UNL     1       0.445  12.968 131.389  0.00  0.00    +0.000 A 
ATOM     36  C   UNL     1       1.278  13.077 132.408  0.00  0.00    +0.000 A 
ATOM     37  C   UNL     1       1.080  11.779 133.362  0.00  0.00    +0.000 A 
ATOM     38  C   UNL     1       0.065  10.416 133.511  0.00  0.00    +0.000 A 
ENDBRANCH  28  29
ENDBRANCH   3  28
TORSDOF 5
ENDMDL
MODEL 4
REMARK VINA RESULT:     -10.9      4.346      6.369
REMARK  Name = CHEMBL105733
REMARK  6 active torsions:
REMARK  status: ('A' for Active; 'I' for Inactive)
REMARK    1  A    between atoms: C_1  and  O_2
REMARK    2  A    between atoms: O_2  and  C_3
REMARK    3  A    between atoms: C_5  and  O_6
REMARK    4  A    between atoms: O_6  and  C_7
REMARK    5  A    between atoms: C_19  and  C_20
REMARK    6  A    between atoms: C_25  and  N_26
REMARK                            x       y       z     vdW  Elec       q    Type
REMARK                         _______ _______ _______ _____ _____    ______ ____
ROOT
ATOM      1  C   UNL     1      -4.692   3.671 132.341  0.00  0.00    +0.000 A 
ATOM      2  C   UNL     1      -3.708   4.804 132.984  0.00  0.00    +0.000 A 
ATOM      3  C   UNL     1      -3.861   6.380 133.009  0.00  0.00    +0.000 A 
ATOM      4  C   UNL     1      -5.053   6.591 132.304  0.00  0.00    +0.000 A 
ATOM      5  C   UNL     1      -5.996   5.484 131.684  0.00  0.00    +0.000 A 
ATOM      6  C   UNL     1      -5.872   4.033 131.686  0.00  0.00    +0.000 A 
ENDROOT
BRANCH   6   7
ATOM      7  C   UNL     1      -6.981   3.148 130.935  0.00  0.00    +0.000 C 
ATOM      8  O   UNL     1      -7.961   2.800 131.610  0.00  0.00    +0.000 OA
ATOM      9  N   UNL     1      -6.920   2.723 129.529  0.00  0.00    +0.000 N 
ATOM     10  C   UNL     1      -7.871   3.352 128.487  0.00  0.00    +0.000 C 
ATOM     11  C   UNL     1      -8.128   2.393 127.332  0.00  0.00    +0.000 C 
ATOM     12  C   UNL     1      -6.633   2.024 126.305  0.00  0.00    +0.000 C 
ATOM     13  C   UNL     1      -5.872   1.221 127.760  0.00  0.00    +0.000 C 
ATOM     14  C   UNL     1      -5.655   2.150 128.946  0.00  0.00    +0.000 C 
BRANCH  12  15
ATOM     15  N   UNL     1      -5.976   2.854 124.686  0.00  0.00    +0.000 N 
ATOM     16  C   UNL     1      -7.081   2.054 124.177  0.00  0.00    +0.000 C 
ATOM     17  O   UNL     1      -7.549   0.960 124.451  0.00  0.00    +0.000 OA
ATOM     18  O   UNL     1      -7.878   2.859 123.513  0.00  0.00    +0.000 OA
ATOM     19  C   UNL     1      -7.656   2.423 122.233  0.00  0.00    +0.000 C 
ATOM     20  C   UNL     1      -6.763   3.508 121.913  0.00  0.00    +0.000 A 
ATOM     21  C   UNL     1      -7.144   3.949 120.380  0.00  0.00    +0.000 A 
ATOM     22  C   UNL     1      -6.429   4.686 119.489  0.00  0.00    +0.000 A 
ATOM     23  C   UNL     1      -5.312   5.063 120.188  0.00  0.00    +0.000 A 
ATOM     24  C   UNL     1      -4.947   4.589 121.823  0.00  0.00    +0.000 A 
ATOM     25  C   UNL     1      -5.773   3.691 122.965  0.00  0.00    +0.000 A 
ENDBRANCH  12  15
ENDBRANCH   6   7
BRANCH   1  27
ATOM     26  C   UNL     1      -4.921   1.593 133.677  0.00  0.00    +0.000 C 
ATOM     27  O   UNL     1      -4.310   2.336 132.610  0.00  0.00    +0.000 OA
ENDBRANCH   1  27
BRANCH   3  28
ATOM     28  O   UNL     1      -2.826   7.631 133.517  0.00  0.00    +0.000 OA
BRANCH  28  29
ATOM     29  C   UNL     1      -1.504   8.870 133.022  0.00  0.00    +0.000 C 
ATOM     30  C   UNL     1      -2.328   9.457 134.152  0.00  0.00    +0.000 C 
ATOM     31  C   UNL     1      -2.239  10.583 133.241  0.00  0.00    +0.000 C 
ATOM     32  C   UNL     1      -1.541  11.363 134.303  0.00  0.00    +0.000 C 
ATOM     33  C   UNL     1      -0.708  11.635 133.178  0.00  0.00    +0.000 A 
ATOM     34  C   UNL     1      -0.980  12.443 131.867  0.00  0.00    +0.000 A 
ATOM     35  C   UNL     1       0.042  13.002 131.126  0.00  0.00    +0.000 A 
ATOM     36  C   UNL     1       1.140  12.967 131.859  0.00  0.00    +0.000 A 
ATOM     37  C   UNL     1       1.074  11.650 132.804  0.00  0.00    +0.000 A 
ATOM     38  C   UNL     1      -0.010  10.400 133.219  0.00  0.00    +0.000 A 
ENDBRANCH  28  29
ENDBRANCH   3  28
TORSDOF 5
ENDMDL
MODEL 5
REMARK VINA RESULT:     -10.8      2.507     13.198
REMARK  Name = CHEMBL105733
REMARK  6 active torsions:
REMARK  status: ('A' for Active; 'I' for Inactive)
REMARK    1  A    between atoms: C_1  and  O_2
REMARK    2  A    between atoms: O_2  and  C_3
REMARK    3  A    between atoms: C_5  and  O_6
REMARK    4  A    between atoms: O_6  and  C_7
REMARK    5  A    between atoms: C_19  and  C_20
REMARK    6  A    between atoms: C_25  and  N_26
REMARK                            x       y       z     vdW  Elec       q    Type
REMARK                         _______ _______ _______ _____ _____    ______ ____
ROOT
ATOM      1  C   UNL     1      -4.585   4.388 128.968  0.00  0.00    +0.000 A 
ATOM      2  C   UNL     1      -5.167   3.074 128.193  0.00  0.00    +0.000 A 
ATOM      3  C   UNL     1      -4.472   2.147 127.113  0.00  0.00    +0.000 A 
ATOM      4  C   UNL     1      -3.217   2.747 126.944  0.00  0.00    +0.000 A 
ATOM      5  C   UNL     1      -2.666   4.021 127.700  0.00  0.00    +0.000 A 
ATOM      6  C   UNL     1      -3.292   4.858 128.715  0.00  0.00    +0.000 A 
ENDROOT
BRANCH   6   7
ATOM      7  C   UNL     1      -2.496   6.128 129.288  0.00  0.00    +0.000 C 
ATOM      8  O   UNL     1      -1.872   6.809 128.461  0.00  0.00    +0.000 OA
ATOM      9  N   UNL     1      -2.450   6.535 130.700  0.00  0.00    +0.000 N 
ATOM     10  C   UNL     1      -3.200   7.802 131.167  0.00  0.00    +0.000 C 
ATOM     11  C   UNL     1      -2.539   8.407 132.398  0.00  0.00    +0.000 C 
ATOM     12  C   UNL     1      -2.627   7.339 133.907  0.00  0.00    +0.000 C 
ATOM     13  C   UNL     1      -1.582   6.105 133.055  0.00  0.00    +0.000 C 
ATOM     14  C   UNL     1      -2.202   5.526 131.790  0.00  0.00    +0.000 C 
BRANCH  12  15
ATOM     15  N   UNL     1      -3.911   7.297 135.352  0.00  0.00    +0.000 N 
ATOM     16  C   UNL     1      -2.956   8.282 135.840  0.00  0.00    +0.000 C 
ATOM     17  O   UNL     1      -1.742   8.409 135.773  0.00  0.00    +0.000 OA
ATOM     18  O   UNL     1      -3.625   9.376 136.120  0.00  0.00    +0.000 OA
ATOM     19  C   UNL     1      -3.531   9.376 137.487  0.00  0.00    +0.000 C 
ATOM     20  C   UNL     1      -4.862   8.856 137.677  0.00  0.00    +0.000 A 
ATOM     21  C   UNL     1      -5.477   9.685 138.951  0.00  0.00    +0.000 A 
ATOM     22  C   UNL     1      -6.546   9.391 139.739  0.00  0.00    +0.000 A 
ATOM     23  C   UNL     1      -7.069   8.254 139.182  0.00  0.00    +0.000 A 
ATOM     24  C   UNL     1      -6.398   7.409 137.816  0.00  0.00    +0.000 A 
ATOM     25  C   UNL     1      -5.098   7.710 136.810  0.00  0.00    +0.000 A 
ENDBRANCH  12  15
ENDBRANCH   6   7
BRANCH   1  27
ATOM     26  C   UNL     1      -5.669   4.186 131.190  0.00  0.00    +0.000 C 
ATOM     27  O   UNL     1      -5.436   4.907 129.970  0.00  0.00    +0.000 OA
ENDBRANCH   1  27
BRANCH   3  28
ATOM     28  O   UNL     1      -5.047   0.865 126.154  0.00  0.00    +0.000 OA
BRANCH  28  29
ATOM     29  C   UNL     1      -6.479  -0.290 125.776  0.00  0.00    +0.000 C 
ATOM     30  C   UNL     1      -5.179  -1.000 125.454  0.00  0.00    +0.000 C 
ATOM     31  C   UNL     1      -5.983  -1.323 124.290  0.00  0.00    +0.000 C 
ATOM     32  C   UNL     1      -5.859  -2.770 124.627  0.00  0.00    +0.000 C 
ATOM     33  C   UNL     1      -7.255  -2.676 124.359  0.00  0.00    +0.000 A 
ATOM     34  C   UNL     1      -8.033  -2.395 123.032  0.00  0.00    +0.000 A 
ATOM     35  C   UNL     1      -9.339  -2.801 122.848  0.00  0.00    +0.000 A 
ATOM     36  C   UNL     1      -9.639  -3.650 123.814  0.00  0.00    +0.000 A 
ATOM     37  C   UNL     1      -8.808  -3.222 125.139  0.00  0.00    +0.000 A 
ATOM     38  C   UNL     1      -7.601  -2.114 125.616  0.00  0.00    +0.000 A 
ENDBRANCH  28  29
ENDBRANCH   3  28
TORSDOF 5
ENDMDL
MODEL 6
REMARK VINA RESULT:     -10.7      4.169      6.373
REMARK  Name = CHEMBL105733
REMARK  6 active torsions:
REMARK  status: ('A' for Active; 'I' for Inactive)
REMARK    1  A    between atoms: C_1  and  O_2
REMARK    2  A    between atoms: O_2  and  C_3
REMARK    3  A    between atoms: C_5  and  O_6
REMARK    4  A    between atoms: O_6  and  C_7
REMARK    5  A    between atoms: C_19  and  C_20
REMARK    6  A    between atoms: C_25  and  N_26
REMARK                            x       y       z     vdW  Elec       q    Type
REMARK                         _______ _______ _______ _____ _____    ______ ____
ROOT
ATOM      1  C   UNL     1      -5.532   4.286 132.019  0.00  0.00    +0.000 A 
ATOM      2  C   UNL     1      -4.727   5.705 132.084  0.00  0.00    +0.000 A 
ATOM      3  C   UNL     1      -3.841   6.314 133.248  0.00  0.00    +0.000 A 
ATOM      4  C   UNL     1      -3.934   5.343 134.254  0.00  0.00    +0.000 A 
ATOM      5  C   UNL     1      -4.719   3.973 134.179  0.00  0.00    +0.000 A 
ATOM      6  C   UNL     1      -5.509   3.398 133.099  0.00  0.00    +0.000 A 
ENDROOT
BRANCH   6   7
ATOM      7  C   UNL     1      -6.233   1.983 133.321  0.00  0.00    +0.000 C 
ATOM      8  O   UNL     1      -6.682   1.763 134.455  0.00  0.00    +0.000 OA
ATOM      9  N   UNL     1      -6.397   0.942 132.295  0.00  0.00    +0.000 N 
ATOM     10  C   UNL     1      -7.791   0.657 131.695  0.00  0.00    +0.000 C 
ATOM     11  C   UNL     1      -7.892  -0.781 131.205  0.00  0.00    +0.000 C 
ATOM     12  C   UNL     1      -6.780  -1.177 129.780  0.00  0.00    +0.000 C 
ATOM     13  C   UNL     1      -5.339  -0.879 130.864  0.00  0.00    +0.000 C 
ATOM     14  C   UNL     1      -5.248   0.540 131.408  0.00  0.00    +0.000 C 
BRANCH  12  15
ATOM     15  N   UNL     1      -7.105  -1.134 127.874  0.00  0.00    +0.000 N 
ATOM     16  C   UNL     1      -7.418  -2.520 128.193  0.00  0.00    +0.000 C 
ATOM     17  O   UNL     1      -6.964  -3.348 128.967  0.00  0.00    +0.000 OA
ATOM     18  O   UNL     1      -8.632  -2.761 127.755  0.00  0.00    +0.000 OA
ATOM     19  C   UNL     1      -8.354  -3.609 126.715  0.00  0.00    +0.000 C 
ATOM     20  C   UNL     1      -8.504  -2.585 125.711  0.00  0.00    +0.000 A 
ATOM     21  C   UNL     1      -9.292  -3.306 124.467  0.00  0.00    +0.000 A 
ATOM     22  C   UNL     1      -9.411  -2.909 123.172  0.00  0.00    +0.000 A 
ATOM     23  C   UNL     1      -8.773  -1.696 123.135  0.00  0.00    +0.000 A 
ATOM     24  C   UNL     1      -7.959  -0.952 124.482  0.00  0.00    +0.000 A 
ATOM     25  C   UNL     1      -7.774  -1.381 126.087  0.00  0.00    +0.000 A 
ENDBRANCH  12  15
ENDBRANCH   6   7
BRANCH   1  27
ATOM     26  C   UNL     1      -5.578   4.532 129.552  0.00  0.00    +0.000 C 
ATOM     27  O   UNL     1      -6.126   4.001 130.769  0.00  0.00    +0.000 OA
ENDBRANCH   1  27
BRANCH   3  28
ATOM     28  O   UNL     1      -3.100   7.830 133.459  0.00  0.00    +0.000 OA
BRANCH  28  29
ATOM     29  C   UNL     1      -1.699   8.973 132.952  0.00  0.00    +0.000 C 
ATOM     30  C   UNL     1      -2.464   9.613 134.094  0.00  0.00    +0.000 C 
ATOM     31  C   UNL     1      -2.305  10.734 133.187  0.00  0.00    +0.000 C 
ATOM     32  C   UNL     1      -1.539  11.457 134.243  0.00  0.00    +0.000 C 
ATOM     33  C   UNL     1      -0.703  11.674 133.109  0.00  0.00    +0.000 A 
ATOM     34  C   UNL     1      -0.932  12.505 131.805  0.00  0.00    +0.000 A 
ATOM     35  C   UNL     1       0.118  12.993 131.054  0.00  0.00    +0.000 A 
ATOM     36  C   UNL     1       1.220  12.875 131.772  0.00  0.00    +0.000 A 
ATOM     37  C   UNL     1       1.070  11.562 132.713  0.00  0.00    +0.000 A 
ATOM     38  C   UNL     1      -0.096  10.391 133.137  0.00  0.00    +0.000 A 
ENDBRANCH  28  29
ENDBRANCH   3  28
TORSDOF 5
ENDMDL
MODEL 7
REMARK VINA RESULT:     -10.6      6.882     12.794
REMARK  Name = CHEMBL105733
REMARK  6 active torsions:
REMARK  status: ('A' for Active; 'I' for Inactive)
REMARK    1  A    between atoms: C_1  and  O_2
REMARK    2  A    between atoms: O_2  and  C_3
REMARK    3  A    between atoms: C_5  and  O_6
REMARK    4  A    between atoms: O_6  and  C_7
REMARK    5  A    between atoms: C_19  and  C_20
REMARK    6  A    between atoms: C_25  and  N_26
REMARK                            x       y       z     vdW  Elec       q    Type
REMARK                         _______ _______ _______ _____ _____    ______ ____
ROOT
ATOM      1  C   UNL     1      -4.674   4.619 133.112  0.00  0.00    +0.000 A 
ATOM      2  C   UNL     1      -6.250   4.719 132.695  0.00  0.00    +0.000 A 
ATOM      3  C   UNL     1      -6.974   5.725 131.708  0.00  0.00    +0.000 A 
ATOM      4  C   UNL     1      -5.929   6.557 131.286  0.00  0.00    +0.000 A 
ATOM      5  C   UNL     1      -4.407   6.451 131.699  0.00  0.00    +0.000 A 
ATOM      6  C   UNL     1      -3.734   5.508 132.582  0.00  0.00    +0.000 A 
ENDROOT
BRANCH   6   7
ATOM      7  C   UNL     1      -2.159   5.665 132.848  0.00  0.00    +0.000 C 
ATOM      8  O   UNL     1      -1.424   4.806 132.339  0.00  0.00    +0.000 OA
ATOM      9  N   UNL     1      -1.533   6.734 133.639  0.00  0.00    +0.000 N 
ATOM     10  C   UNL     1      -0.713   7.840 132.939  0.00  0.00    +0.000 C 
ATOM     11  C   UNL     1       0.343   8.414 133.874  0.00  0.00    +0.000 C 
ATOM     12  C   UNL     1      -0.349   9.323 135.331  0.00  0.00    +0.000 C 
ATOM     13  C   UNL     1      -1.070   7.753 135.927  0.00  0.00    +0.000 C 
ATOM     14  C   UNL     1      -2.090   7.133 134.981  0.00  0.00    +0.000 C 
BRANCH  12  15
ATOM     15  N   UNL     1      -0.735  11.201 135.580  0.00  0.00    +0.000 N 
ATOM     16  C   UNL     1       0.621  11.110 136.103  0.00  0.00    +0.000 C 
ATOM     17  O   UNL     1       1.244  10.271 136.735  0.00  0.00    +0.000 OA
ATOM     18  O   UNL     1       1.351  11.994 135.463  0.00  0.00    +0.000 OA
ATOM     19  C   UNL     1       1.581  12.896 136.469  0.00  0.00    +0.000 C 
ATOM     20  C   UNL     1       0.574  13.817 136.007  0.00  0.00    +0.000 A 
ATOM     21  C   UNL     1       1.228  15.310 136.196  0.00  0.00    +0.000 A 
ATOM     22  C   UNL     1       0.618  16.525 136.218  0.00  0.00    +0.000 A 
ATOM     23  C   UNL     1      -0.699  16.242 135.966  0.00  0.00    +0.000 A 
ATOM     24  C   UNL     1      -1.357  14.644 135.755  0.00  0.00    +0.000 A 
ATOM     25  C   UNL     1      -0.672  13.120 135.717  0.00  0.00    +0.000 A 
ENDBRANCH  12  15
ENDBRANCH   6   7
BRANCH   1  27
ATOM     26  C   UNL     1      -3.744   2.335 133.374  0.00  0.00    +0.000 C 
ATOM     27  O   UNL     1      -4.349   3.513 133.929  0.00  0.00    +0.000 OA
ENDBRANCH   1  27
BRANCH   3  28
ATOM     28  O   UNL     1      -8.611   5.995 131.335  0.00  0.00    +0.000 OA
BRANCH  28  29
ATOM     29  C   UNL     1      -9.841   6.903 130.245  0.00  0.00    +0.000 C 
ATOM     30  C   UNL     1     -10.525   6.523 131.544  0.00  0.00    +0.000 C 
ATOM     31  C   UNL     1     -11.530   6.150 130.566  0.00  0.00    +0.000 C 
ATOM     32  C   UNL     1     -12.472   7.125 131.189  0.00  0.00    +0.000 C 
ATOM     33  C   UNL     1     -12.640   7.434 129.808  0.00  0.00    +0.000 A 
ATOM     34  C   UNL     1     -13.262   6.606 128.635  0.00  0.00    +0.000 A 
ATOM     35  C   UNL     1     -13.772   7.209 127.504  0.00  0.00    +0.000 A 
ATOM     36  C   UNL     1     -13.883   8.502 127.748  0.00  0.00    +0.000 A 
ATOM     37  C   UNL     1     -12.695   8.927 128.767  0.00  0.00    +0.000 A 
ATOM     38  C   UNL     1     -11.455   8.207 129.692  0.00  0.00    +0.000 A 
ENDBRANCH  28  29
ENDBRANCH   3  28
TORSDOF 5
ENDMDL
MODEL 8
REMARK VINA RESULT:     -10.6      2.473     13.221
REMARK  Name = CHEMBL105733
REMARK  6 active torsions:
REMARK  status: ('A' for Active; 'I' for Inactive)
REMARK    1  A    between atoms: C_1  and  O_2
REMARK    2  A    between atoms: O_2  and  C_3
REMARK    3  A    between atoms: C_5  and  O_6
REMARK    4  A    between atoms: O_6  and  C_7
REMARK    5  A    between atoms: C_19  and  C_20
REMARK    6  A    between atoms: C_25  and  N_26
REMARK                            x       y       z     vdW  Elec       q    Type
REMARK                         _______ _______ _______ _____ _____    ______ ____
ROOT
ATOM      1  C   UNL     1      -3.564   4.276 130.049  0.00  0.00    +0.000 A 
ATOM      2  C   UNL     1      -4.304   3.636 128.742  0.00  0.00    +0.000 A 
ATOM      3  C   UNL     1      -5.019   2.232 128.570  0.00  0.00    +0.000 A 
ATOM      4  C   UNL     1      -4.838   1.632 129.823  0.00  0.00    +0.000 A 
ATOM      5  C   UNL     1      -4.117   2.263 131.081  0.00  0.00    +0.000 A 
ATOM      6  C   UNL     1      -3.486   3.565 131.250  0.00  0.00    +0.000 A 
ENDROOT
BRANCH   6   7
ATOM      7  C   UNL     1      -2.791   3.926 132.651  0.00  0.00    +0.000 C 
ATOM      8  O   UNL     1      -1.554   3.848 132.691  0.00  0.00    +0.000 OA
ATOM      9  N   UNL     1      -3.501   4.335 133.871  0.00  0.00    +0.000 N 
ATOM     10  C   UNL     1      -3.418   5.795 134.366  0.00  0.00    +0.000 C 
ATOM     11  C   UNL     1      -3.619   5.875 135.874  0.00  0.00    +0.000 C 
ATOM     12  C   UNL     1      -5.311   5.381 136.440  0.00  0.00    +0.000 C 
ATOM     13  C   UNL     1      -4.981   3.686 135.840  0.00  0.00    +0.000 C 
ATOM     14  C   UNL     1      -4.724   3.591 134.342  0.00  0.00    +0.000 C 
BRANCH  12  15
ATOM     15  N   UNL     1      -6.891   6.444 136.773  0.00  0.00    +0.000 N 
ATOM     16  C   UNL     1      -6.228   6.494 138.068  0.00  0.00    +0.000 C 
ATOM     17  O   UNL     1      -5.571   5.704 138.728  0.00  0.00    +0.000 OA
ATOM     18  O   UNL     1      -6.081   7.758 138.388  0.00  0.00    +0.000 OA
ATOM     19  C   UNL     1      -6.973   7.854 139.425  0.00  0.00    +0.000 C 
ATOM     20  C   UNL     1      -7.995   8.472 138.618  0.00  0.00    +0.000 A 
ATOM     21  C   UNL     1      -8.657   9.634 139.569  0.00  0.00    +0.000 A 
ATOM     22  C   UNL     1      -9.839  10.291 139.434  0.00  0.00    +0.000 A 
ATOM     23  C   UNL     1     -10.351   9.819 138.254  0.00  0.00    +0.000 A 
ATOM     24  C   UNL     1      -9.612   8.595 137.260  0.00  0.00    +0.000 A 
ATOM     25  C   UNL     1      -8.174   7.751 137.366  0.00  0.00    +0.000 A 
ENDBRANCH  12  15
ENDBRANCH   6   7
BRANCH   1  27
ATOM     26  C   UNL     1      -2.392   6.020 128.730  0.00  0.00    +0.000 C 
ATOM     27  O   UNL     1      -3.138   5.614 129.889  0.00  0.00    +0.000 OA
ENDBRANCH   1  27
BRANCH   3  28
ATOM     28  O   UNL     1      -5.675   1.431 127.221  0.00  0.00    +0.000 OA
BRANCH  28  29
ATOM     29  C   UNL     1      -6.806   0.064 126.607  0.00  0.00    +0.000 C 
ATOM     30  C   UNL     1      -5.399  -0.205 126.110  0.00  0.00    +0.000 C 
ATOM     31  C   UNL     1      -6.182  -0.457 124.915  0.00  0.00    +0.000 C 
ATOM     32  C   UNL     1      -5.684  -1.863 124.907  0.00  0.00    +0.000 C 
ATOM     33  C   UNL     1      -7.077  -2.070 124.688  0.00  0.00    +0.000 A 
ATOM     34  C   UNL     1      -7.993  -1.711 123.473  0.00  0.00    +0.000 A 
ATOM     35  C   UNL     1      -9.170  -2.385 123.220  0.00  0.00    +0.000 A 
ATOM     36  C   UNL     1      -9.184  -3.473 123.967  0.00  0.00    +0.000 A 
ATOM     37  C   UNL     1      -8.388  -3.150 125.343  0.00  0.00    +0.000 A 
ATOM     38  C   UNL     1      -7.457  -1.905 126.046  0.00  0.00    +0.000 A 
ENDBRANCH  28  29
ENDBRANCH   3  28
TORSDOF 5
ENDMDL
MODEL 9
REMARK VINA RESULT:     -10.4      2.190     13.017
REMARK  Name = CHEMBL105733
REMARK  6 active torsions:
REMARK  status: ('A' for Active; 'I' for Inactive)
REMARK    1  A    between atoms: C_1  and  O_2
REMARK    2  A    between atoms: O_2  and  C_3
REMARK    3  A    between atoms: C_5  and  O_6
REMARK    4  A    between atoms: O_6  and  C_7
REMARK    5  A    between atoms: C_19  and  C_20
REMARK    6  A    between atoms: C_25  and  N_26
REMARK                            x       y       z     vdW  Elec       q    Type
REMARK                         _______ _______ _______ _____ _____    ______ ____
ROOT
ATOM      1  C   UNL     1      -5.437   4.878 129.608  0.00  0.00    +0.000 A 
ATOM      2  C   UNL     1      -6.119   4.241 128.269  0.00  0.00    +0.000 A 
ATOM      3  C   UNL     1      -5.617   3.058 127.343  0.00  0.00    +0.000 A 
ATOM      4  C   UNL     1      -4.400   2.692 127.932  0.00  0.00    +0.000 A 
ATOM      5  C   UNL     1      -3.749   3.318 129.230  0.00  0.00    +0.000 A 
ATOM      6  C   UNL     1      -4.224   4.386 130.100  0.00  0.00    +0.000 A 
ENDROOT
BRANCH   6   7
ATOM      7  C   UNL     1      -3.322   4.845 131.346  0.00  0.00    +0.000 C 
ATOM      8  O   UNL     1      -2.104   4.948 131.139  0.00  0.00    +0.000 OA
ATOM      9  N   UNL     1      -3.826   5.146 132.694  0.00  0.00    +0.000 N 
ATOM     10  C   UNL     1      -3.855   6.603 133.204  0.00  0.00    +0.000 C 
ATOM     11  C   UNL     1      -3.760   6.653 134.723  0.00  0.00    +0.000 C 
ATOM     12  C   UNL     1      -5.216   5.918 135.598  0.00  0.00    +0.000 C 
ATOM     13  C   UNL     1      -4.774   4.289 134.896  0.00  0.00    +0.000 C 
ATOM     14  C   UNL     1      -4.811   4.232 133.375  0.00  0.00    +0.000 C 
BRANCH  12  15
ATOM     15  N   UNL     1      -6.834   6.739 136.268  0.00  0.00    +0.000 N 
ATOM     16  C   UNL     1      -5.915   6.958 137.376  0.00  0.00    +0.000 C 
ATOM     17  O   UNL     1      -5.007   6.315 137.880  0.00  0.00    +0.000 OA
ATOM     18  O   UNL     1      -5.908   8.245 137.634  0.00  0.00    +0.000 OA
ATOM     19  C   UNL     1      -6.549   8.255 138.846  0.00  0.00    +0.000 C 
ATOM     20  C   UNL     1      -7.812   8.665 138.285  0.00  0.00    +0.000 A 
ATOM     21  C   UNL     1      -8.425   9.758 139.344  0.00  0.00    +0.000 A 
ATOM     22  C   UNL     1      -9.698  10.216 139.473  0.00  0.00    +0.000 A 
ATOM     23  C   UNL     1     -10.377   9.610 138.449  0.00  0.00    +0.000 A 
ATOM     24  C   UNL     1      -9.689   8.465 137.332  0.00  0.00    +0.000 A 
ATOM     25  C   UNL     1      -8.147   7.861 137.118  0.00  0.00    +0.000 A 
ENDBRANCH  12  15
ENDBRANCH   6   7
BRANCH   1  27
ATOM     26  C   UNL     1      -7.552   5.545 130.720  0.00  0.00    +0.000 C 
ATOM     27  O   UNL     1      -6.224   5.851 130.265  0.00  0.00    +0.000 OA
ENDBRANCH   1  27
BRANCH   3  28
ATOM     28  O   UNL     1      -6.178   2.436 125.862  0.00  0.00    +0.000 OA
BRANCH  28  29
ATOM     29  C   UNL     1      -6.848   0.942 124.943  0.00  0.00    +0.000 C 
ATOM     30  C   UNL     1      -8.004   1.673 125.596  0.00  0.00    +0.000 C 
ATOM     31  C   UNL     1      -8.310   0.294 125.925  0.00  0.00    +0.000 C 
ATOM     32  C   UNL     1      -9.592   0.418 125.173  0.00  0.00    +0.000 C 
ATOM     33  C   UNL     1      -9.108  -0.827 124.675  0.00  0.00    +0.000 A 
ATOM     34  C   UNL     1      -8.911  -2.211 125.376  0.00  0.00    +0.000 A 
ATOM     35  C   UNL     1      -8.893  -3.395 124.668  0.00  0.00    +0.000 A 
ATOM     36  C   UNL     1      -9.338  -3.145 123.450  0.00  0.00    +0.000 A 
ATOM     37  C   UNL     1      -8.906  -1.632 123.055  0.00  0.00    +0.000 A 
ATOM     38  C   UNL     1      -8.180  -0.260 123.762  0.00  0.00    +0.000 A 
ENDBRANCH  28  29
ENDBRANCH   3  28
TORSDOF 5
ENDMDL
