MODEL 1
REMARK VINA RESULT:      -9.0      0.000      0.000
REMARK  Name = CHEMBL572709
REMARK  13 active torsions:
REMARK  status: ('A' for Active; 'I' for Inactive)
REMARK    1  A    between atoms: C_1  and  O_2
REMARK    2  A    between atoms: O_2  and  C_3
REMARK    3  A    between atoms: C_6  and  S_7
REMARK    4  A    between atoms: S_7  and  N_10
REMARK    5  A    between atoms: C_19  and  C_20
REMARK    6  A    between atoms: C_20  and  C_21
REMARK    7  A    between atoms: C_21  and  S_22
REMARK    8  A    between atoms: S_22  and  N_25
REMARK    9  A    between atoms: C_28  and  N_29
REMARK   10  A    between atoms: N_29  and  C_30
REMARK   11  A    between atoms: C_30  and  C_31
REMARK   12  A    between atoms: C_39  and  O_40
REMARK   13  A    between atoms: O_40  and  C_41
REMARK                            x       y       z     vdW  Elec       q    Type
REMARK                         _______ _______ _______ _____ _____    ______ ____
ROOT
ATOM      1  N   UNL     1      -9.031   6.041 129.928  0.00  0.00    +0.000 N 
ATOM      2  C   UNL     1     -10.359   6.673 130.078  0.00  0.00    +0.000 A 
ATOM      3  C   UNL     1     -10.825   7.581 129.120  0.00  0.00    +0.000 A 
ATOM      4  C   UNL     1     -12.048   8.243 129.301  0.00  0.00    +0.000 A 
ATOM      5  C   UNL     1     -12.834   7.941 130.412  0.00  0.00    +0.000 A 
ATOM      6  C   UNL     1     -12.297   7.171 131.447  0.00  0.00    +0.000 A 
ATOM      7  C   UNL     1     -10.998   6.644 131.322  0.00  0.00    +0.000 A 
ATOM      8  C   UNL     1     -10.266   6.023 132.481  0.00  0.00    +0.000 C 
ATOM      9  C   UNL     1      -8.688   6.054 132.316  0.00  0.00    +0.000 C 
ATOM     10  C   UNL     1      -8.086   6.750 131.029  0.00  0.00    +0.000 C 
ENDROOT
BRANCH   1  11
ATOM     11  S   UNL     1      -9.024   4.174 129.939  0.00  0.00    +0.000 S 
ATOM     12  O   UNL     1     -10.327   3.637 129.977  0.00  0.00    +0.000 OA
ATOM     13  O   UNL     1      -8.074   3.673 130.989  0.00  0.00    +0.000 OA
BRANCH  11  17
ATOM     14  C   UNL     1      -7.952   3.543 125.281  0.00  0.00    +0.000 A 
ATOM     15  C   UNL     1      -8.066   4.777 125.807  0.00  0.00    +0.000 A 
ATOM     16  C   UNL     1      -8.280   4.867 127.242  0.00  0.00    +0.000 A 
ATOM     17  C   UNL     1      -8.261   3.719 128.257  0.00  0.00    +0.000 A 
ATOM     18  C   UNL     1      -7.987   2.363 127.800  0.00  0.00    +0.000 A 
ATOM     19  C   UNL     1      -7.967   2.547 126.308  0.00  0.00    +0.000 A 
BRANCH  14  21
ATOM     20  C   UNL     1      -7.696   2.014 123.234  0.00  0.00    +0.000 C 
ATOM     21  O   UNL     1      -7.784   3.309 123.910  0.00  0.00    +0.000 OA
ENDBRANCH  14  21
BRANCH  18  22
ATOM     22  O   UNL     1      -8.402   0.963 128.744  0.00  0.00    +0.000 OA
ATOM     23  C   UNL     1      -8.214   0.274 130.423  0.00  0.00    +0.000 C 
ENDBRANCH  18  22
ENDBRANCH  11  17
ENDBRANCH   1  11
BRANCH  10  24
ATOM     24  C   UNL     1      -6.524   6.330 131.011  0.00  0.00    +0.000 C 
BRANCH  24  25
ATOM     25  C   UNL     1      -5.359   5.613 130.016  0.00  0.00    +0.000 C 
BRANCH  25  26
ATOM     26  S   UNL     1      -3.839   5.771 129.149  0.00  0.00    +0.000 S 
ATOM     27  O   UNL     1      -4.213   7.021 128.565  0.00  0.00    +0.000 OA
ATOM     28  O   UNL     1      -2.626   5.495 129.969  0.00  0.00    +0.000 OA
BRANCH  26  29
ATOM     29  N   UNL     1      -3.414   4.813 127.965  0.00  0.00    +0.000 NA
ATOM     30  C   UNL     1      -2.438   3.788 128.144  0.00  0.00    +0.000 C 
ATOM     31  C   UNL     1      -2.096   3.180 126.820  0.00  0.00    +0.000 C 
ATOM     32  C   UNL     1      -3.385   2.799 126.094  0.00  0.00    +0.000 C 
ATOM     33  C   UNL     1      -4.264   4.014 125.863  0.00  0.00    +0.000 C 
ATOM     34  C   UNL     1      -4.596   4.600 127.172  0.00  0.00    +0.000 C 
BRANCH  32  35
ATOM     35  N   UNL     1      -4.160   1.857 126.907  0.00  0.00    +0.000 NA
ATOM     36  H   UNL     1      -4.643   2.384 127.633  0.00  0.00    +0.000 HD
BRANCH  35  37
ATOM     37  C   UNL     1      -5.092   1.098 126.099  0.00  0.00    +0.000 C 
BRANCH  37  38
ATOM     38  C   UNL     1      -5.246  -0.327 126.607  0.00  0.00    +0.000 C 
ATOM     39  C   UNL     1      -5.297  -0.362 128.136  0.00  0.00    +0.000 C 
ATOM     40  C   UNL     1      -5.590  -1.752 128.657  0.00  0.00    +0.000 C 
ATOM     41  C   UNL     1      -6.873  -2.302 128.052  0.00  0.00    +0.000 C 
ATOM     42  C   UNL     1      -6.803  -2.302 126.528  0.00  0.00    +0.000 C 
ATOM     43  C   UNL     1      -6.522  -0.910 125.991  0.00  0.00    +0.000 C 
ENDBRANCH  37  38
ENDBRANCH  35  37
ENDBRANCH  32  35
ENDBRANCH  26  29
ENDBRANCH  25  26
ENDBRANCH  24  25
ENDBRANCH  10  24
TORSDOF 11
ENDMDL
MODEL 2
REMARK VINA RESULT:      -8.9      4.466      7.703
REMARK  Name = CHEMBL572709
REMARK  13 active torsions:
REMARK  status: ('A' for Active; 'I' for Inactive)
REMARK    1  A    between atoms: C_1  and  O_2
REMARK    2  A    between atoms: O_2  and  C_3
REMARK    3  A    between atoms: C_6  and  S_7
REMARK    4  A    between atoms: S_7  and  N_10
REMARK    5  A    between atoms: C_19  and  C_20
REMARK    6  A    between atoms: C_20  and  C_21
REMARK    7  A    between atoms: C_21  and  S_22
REMARK    8  A    between atoms: S_22  and  N_25
REMARK    9  A    between atoms: C_28  and  N_29
REMARK   10  A    between atoms: N_29  and  C_30
REMARK   11  A    between atoms: C_30  and  C_31
REMARK   12  A    between atoms: C_39  and  O_40
REMARK   13  A    between atoms: O_40  and  C_41
REMARK                            x       y       z     vdW  Elec       q    Type
REMARK                         _______ _______ _______ _____ _____    ______ ____
ROOT
ATOM      1  N   UNL     1      -5.480   0.584 129.183  0.00  0.00    +0.000 N 
ATOM      2  C   UNL     1      -4.834  -0.729 129.393  0.00  0.00    +0.000 A 
ATOM      3  C   UNL     1      -3.818  -0.875 130.344  0.00  0.00    +0.000 A 
ATOM      4  C   UNL     1      -3.148  -2.099 130.489  0.00  0.00    +0.000 A 
ATOM      5  C   UNL     1      -3.548  -3.194 129.725  0.00  0.00    +0.000 A 
ATOM      6  C   UNL     1      -4.438  -3.006 128.664  0.00  0.00    +0.000 A 
ATOM      7  C   UNL     1      -4.980  -1.731 128.427  0.00  0.00    +0.000 A 
ATOM      8  C   UNL     1      -5.741  -1.399 127.172  0.00  0.00    +0.000 C 
ATOM      9  C   UNL     1      -5.732   0.149 126.823  0.00  0.00    +0.000 C 
ATOM     10  C   UNL     1      -4.918   1.122 127.768  0.00  0.00    +0.000 C 
ENDROOT
BRANCH   1  11
ATOM     11  S   UNL     1      -7.337   0.607 129.375  0.00  0.00    +0.000 S 
ATOM     12  O   UNL     1      -7.999   0.240 128.185  0.00  0.00    +0.000 OA
ATOM     13  O   UNL     1      -7.770   1.903 129.996  0.00  0.00    +0.000 OA
BRANCH  11  17
ATOM     14  C   UNL     1      -7.155  -2.649 132.925  0.00  0.00    +0.000 A 
ATOM     15  C   UNL     1      -6.937  -1.343 133.168  0.00  0.00    +0.000 A 
ATOM     16  C   UNL     1      -7.124  -0.424 132.058  0.00  0.00    +0.000 A 
ATOM     17  C   UNL     1      -7.671  -0.751 130.664  0.00  0.00    +0.000 A 
ATOM     18  C   UNL     1      -8.084  -2.114 130.358  0.00  0.00    +0.000 A 
ATOM     19  C   UNL     1      -7.642  -2.847 131.594  0.00  0.00    +0.000 A 
BRANCH  14  21
ATOM     20  C   UNL     1      -6.081  -4.806 133.816  0.00  0.00    +0.000 C 
ATOM     21  O   UNL     1      -6.974  -3.647 133.891  0.00  0.00    +0.000 OA
ENDBRANCH  14  21
BRANCH  18  22
ATOM     22  O   UNL     1      -8.259  -2.687 128.726  0.00  0.00    +0.000 OA
ATOM     23  C   UNL     1      -8.984  -4.063 127.772  0.00  0.00    +0.000 C 
ENDBRANCH  18  22
ENDBRANCH  11  17
ENDBRANCH   1  11
BRANCH  10  24
ATOM     24  C   UNL     1      -5.373   2.613 127.335  0.00  0.00    +0.000 C 
BRANCH  24  25
ATOM     25  C   UNL     1      -5.438   3.638 125.990  0.00  0.00    +0.000 C 
BRANCH  25  26
ATOM     26  S   UNL     1      -6.408   4.370 124.721  0.00  0.00    +0.000 S 
ATOM     27  O   UNL     1      -7.010   5.308 125.616  0.00  0.00    +0.000 OA
ATOM     28  O   UNL     1      -5.661   4.681 123.471  0.00  0.00    +0.000 OA
BRANCH  26  29
ATOM     29  N   UNL     1      -7.583   3.612 123.983  0.00  0.00    +0.000 NA
ATOM     30  C   UNL     1      -7.487   3.237 122.610  0.00  0.00    +0.000 C 
ATOM     31  C   UNL     1      -8.808   2.721 122.134  0.00  0.00    +0.000 C 
ATOM     32  C   UNL     1      -9.318   1.665 123.112  0.00  0.00    +0.000 C 
ATOM     33  C   UNL     1      -9.490   2.243 124.505  0.00  0.00    +0.000 C 
ATOM     34  C   UNL     1      -8.183   2.744 124.962  0.00  0.00    +0.000 C 
BRANCH  32  35
ATOM     35  N   UNL     1      -8.347   0.571 123.220  0.00  0.00    +0.000 NA
ATOM     36  H   UNL     1      -7.782   0.726 124.052  0.00  0.00    +0.000 HD
BRANCH  35  37
ATOM     37  C   UNL     1      -9.003  -0.720 123.263  0.00  0.00    +0.000 C 
BRANCH  37  38
ATOM     38  C   UNL     1      -8.007  -1.862 123.127  0.00  0.00    +0.000 C 
ATOM     39  C   UNL     1      -6.583  -1.330 122.953  0.00  0.00    +0.000 C 
ATOM     40  C   UNL     1      -5.562  -2.447 122.957  0.00  0.00    +0.000 C 
ATOM     41  C   UNL     1      -5.683  -3.292 124.215  0.00  0.00    +0.000 C 
ATOM     42  C   UNL     1      -7.093  -3.852 124.365  0.00  0.00    +0.000 C 
ATOM     43  C   UNL     1      -8.129  -2.741 124.376  0.00  0.00    +0.000 C 
ENDBRANCH  37  38
ENDBRANCH  35  37
ENDBRANCH  32  35
ENDBRANCH  26  29
ENDBRANCH  25  26
ENDBRANCH  24  25
ENDBRANCH  10  24
TORSDOF 11
ENDMDL
MODEL 3
REMARK VINA RESULT:      -8.8      2.625      8.840
REMARK  Name = CHEMBL572709
REMARK  13 active torsions:
REMARK  status: ('A' for Active; 'I' for Inactive)
REMARK    1  A    between atoms: C_1  and  O_2
REMARK    2  A    between atoms: O_2  and  C_3
REMARK    3  A    between atoms: C_6  and  S_7
REMARK    4  A    between atoms: S_7  and  N_10
REMARK    5  A    between atoms: C_19  and  C_20
REMARK    6  A    between atoms: C_20  and  C_21
REMARK    7  A    between atoms: C_21  and  S_22
REMARK    8  A    between atoms: S_22  and  N_25
REMARK    9  A    between atoms: C_28  and  N_29
REMARK   10  A    between atoms: N_29  and  C_30
REMARK   11  A    between atoms: C_30  and  C_31
REMARK   12  A    between atoms: C_39  and  O_40
REMARK   13  A    between atoms: O_40  and  C_41
REMARK                            x       y       z     vdW  Elec       q    Type
REMARK                         _______ _______ _______ _____ _____    ______ ____
ROOT
ATOM      1  N   UNL     1      -6.137  -0.587 126.281  0.00  0.00    +0.000 N 
ATOM      2  C   UNL     1      -6.090  -1.231 124.951  0.00  0.00    +0.000 A 
ATOM      3  C   UNL     1      -5.300  -2.367 124.741  0.00  0.00    +0.000 A 
ATOM      4  C   UNL     1      -5.190  -2.932 123.462  0.00  0.00    +0.000 A 
ATOM      5  C   UNL     1      -5.929  -2.394 122.409  0.00  0.00    +0.000 A 
ATOM      6  C   UNL     1      -6.577  -1.168 122.578  0.00  0.00    +0.000 A 
ATOM      7  C   UNL     1      -6.543  -0.528 123.830  0.00  0.00    +0.000 A 
ATOM      8  C   UNL     1      -6.999   0.893 124.021  0.00  0.00    +0.000 C 
ATOM      9  C   UNL     1      -6.343   1.599 125.281  0.00  0.00    +0.000 C 
ATOM     10  C   UNL     1      -5.290   0.780 126.131  0.00  0.00    +0.000 C 
ENDROOT
BRANCH   1  11
ATOM     11  S   UNL     1      -7.839  -0.405 127.027  0.00  0.00    +0.000 S 
ATOM     12  O   UNL     1      -8.854  -0.836 126.147  0.00  0.00    +0.000 OA
ATOM     13  O   UNL     1      -8.002   0.976 127.594  0.00  0.00    +0.000 OA
BRANCH  11  17
ATOM     14  C   UNL     1      -6.704  -3.224 130.769  0.00  0.00    +0.000 A 
ATOM     15  C   UNL     1      -6.460  -1.900 130.797  0.00  0.00    +0.000 A 
ATOM     16  C   UNL     1      -6.939  -1.116 129.671  0.00  0.00    +0.000 A 
ATOM     17  C   UNL     1      -7.810  -1.599 128.507  0.00  0.00    +0.000 A 
ATOM     18  C   UNL     1      -8.257  -2.985 128.473  0.00  0.00    +0.000 A 
ATOM     19  C   UNL     1      -7.504  -3.572 129.635  0.00  0.00    +0.000 A 
BRANCH  14  21
ATOM     20  C   UNL     1      -5.275  -5.174 131.636  0.00  0.00    +0.000 C 
ATOM     21  O   UNL     1      -6.265  -4.103 131.767  0.00  0.00    +0.000 OA
ENDBRANCH  14  21
BRANCH  18  22
ATOM     22  O   UNL     1      -8.822  -3.744 127.014  0.00  0.00    +0.000 OA
ATOM     23  C   UNL     1      -8.329  -4.041 125.283  0.00  0.00    +0.000 C 
ENDBRANCH  18  22
ENDBRANCH  11  17
ENDBRANCH   1  11
BRANCH  10  24
ATOM     24  C   UNL     1      -5.073   1.642 127.483  0.00  0.00    +0.000 C 
BRANCH  24  25
ATOM     25  C   UNL     1      -5.324   3.190 128.119  0.00  0.00    +0.000 C 
BRANCH  25  26
ATOM     26  S   UNL     1      -6.465   4.435 128.603  0.00  0.00    +0.000 S 
ATOM     27  O   UNL     1      -5.430   5.374 128.904  0.00  0.00    +0.000 OA
ATOM     28  O   UNL     1      -7.603   4.631 127.663  0.00  0.00    +0.000 OA
BRANCH  26  29
ATOM     29  N   UNL     1      -7.377   4.320 129.888  0.00  0.00    +0.000 NA
ATOM     30  C   UNL     1      -7.630   5.443 130.731  0.00  0.00    +0.000 C 
ATOM     31  C   UNL     1      -8.352   4.997 131.964  0.00  0.00    +0.000 C 
ATOM     32  C   UNL     1      -9.551   4.141 131.563  0.00  0.00    +0.000 C 
ATOM     33  C   UNL     1      -9.114   2.916 130.780  0.00  0.00    +0.000 C 
ATOM     34  C   UNL     1      -8.410   3.368 129.569  0.00  0.00    +0.000 C 
BRANCH  32  35
ATOM     35  N   UNL     1     -10.447   4.908 130.692  0.00  0.00    +0.000 NA
ATOM     36  H   UNL     1     -11.128   4.267 130.290  0.00  0.00    +0.000 HD
BRANCH  35  37
ATOM     37  C   UNL     1     -11.098   5.983 131.412  0.00  0.00    +0.000 C 
BRANCH  37  38
ATOM     38  C   UNL     1     -11.138   7.265 130.594  0.00  0.00    +0.000 C 
ATOM     39  C   UNL     1     -10.487   7.062 129.225  0.00  0.00    +0.000 C 
ATOM     40  C   UNL     1     -10.641   8.282 128.344  0.00  0.00    +0.000 C 
ATOM     41  C   UNL     1     -12.104   8.673 128.204  0.00  0.00    +0.000 C 
ATOM     42  C   UNL     1     -12.740   8.912 129.569  0.00  0.00    +0.000 C 
ATOM     43  C   UNL     1     -12.604   7.690 130.461  0.00  0.00    +0.000 C 
ENDBRANCH  37  38
ENDBRANCH  35  37
ENDBRANCH  32  35
ENDBRANCH  26  29
ENDBRANCH  25  26
ENDBRANCH  24  25
ENDBRANCH  10  24
TORSDOF 11
ENDMDL
MODEL 4
REMARK VINA RESULT:      -8.7      2.022      8.022
REMARK  Name = CHEMBL572709
REMARK  13 active torsions:
REMARK  status: ('A' for Active; 'I' for Inactive)
REMARK    1  A    between atoms: C_1  and  O_2
REMARK    2  A    between atoms: O_2  and  C_3
REMARK    3  A    between atoms: C_6  and  S_7
REMARK    4  A    between atoms: S_7  and  N_10
REMARK    5  A    between atoms: C_19  and  C_20
REMARK    6  A    between atoms: C_20  and  C_21
REMARK    7  A    between atoms: C_21  and  S_22
REMARK    8  A    between atoms: S_22  and  N_25
REMARK    9  A    between atoms: C_28  and  N_29
REMARK   10  A    between atoms: N_29  and  C_30
REMARK   11  A    between atoms: C_30  and  C_31
REMARK   12  A    between atoms: C_39  and  O_40
REMARK   13  A    between atoms: O_40  and  C_41
REMARK                            x       y       z     vdW  Elec       q    Type
REMARK                         _______ _______ _______ _____ _____    ______ ____
ROOT
ATOM      1  N   UNL     1      -6.533   0.765 126.205  0.00  0.00    +0.000 N 
ATOM      2  C   UNL     1      -6.428  -0.313 125.199  0.00  0.00    +0.000 A 
ATOM      3  C   UNL     1      -5.518  -1.361 125.375  0.00  0.00    +0.000 A 
ATOM      4  C   UNL     1      -5.359  -2.342 124.384  0.00  0.00    +0.000 A 
ATOM      5  C   UNL     1      -6.165  -2.304 123.247  0.00  0.00    +0.000 A 
ATOM      6  C   UNL     1      -6.945  -1.173 122.992  0.00  0.00    +0.000 A 
ATOM      7  C   UNL     1      -6.969  -0.119 123.923  0.00  0.00    +0.000 A 
ATOM      8  C   UNL     1      -7.580   1.220 123.609  0.00  0.00    +0.000 C 
ATOM      9  C   UNL     1      -6.994   2.401 124.492  0.00  0.00    +0.000 C 
ATOM     10  C   UNL     1      -5.846   2.060 125.526  0.00  0.00    +0.000 C 
ENDROOT
BRANCH   1  11
ATOM     11  S   UNL     1      -8.236   1.036 126.920  0.00  0.00    +0.000 S 
ATOM     12  O   UNL     1      -9.156   0.058 126.487  0.00  0.00    +0.000 OA
ATOM     13  O   UNL     1      -8.652   2.464 126.721  0.00  0.00    +0.000 OA
BRANCH  11  17
ATOM     14  C   UNL     1      -7.982  -0.550 131.465  0.00  0.00    +0.000 A 
ATOM     15  C   UNL     1      -7.309  -1.165 130.476  0.00  0.00    +0.000 A 
ATOM     16  C   UNL     1      -7.357  -0.549 129.161  0.00  0.00    +0.000 A 
ATOM     17  C   UNL     1      -7.980   0.801 128.790  0.00  0.00    +0.000 A 
ATOM     18  C   UNL     1      -8.596   1.615 129.829  0.00  0.00    +0.000 A 
ATOM     19  C   UNL     1      -8.542   0.686 131.010  0.00  0.00    +0.000 A 
BRANCH  14  21
ATOM     20  C   UNL     1      -7.772  -2.422 133.211  0.00  0.00    +0.000 C 
ATOM     21  O   UNL     1      -8.054  -1.054 132.770  0.00  0.00    +0.000 OA
ENDBRANCH  14  21
BRANCH  18  22
ATOM     22  O   UNL     1      -9.721   2.890 129.465  0.00  0.00    +0.000 OA
ATOM     23  C   UNL     1     -11.088   3.837 130.216  0.00  0.00    +0.000 C 
ENDBRANCH  18  22
ENDBRANCH  11  17
ENDBRANCH   1  11
BRANCH  10  24
ATOM     24  C   UNL     1      -5.713   3.374 126.460  0.00  0.00    +0.000 C 
BRANCH  24  25
ATOM     25  C   UNL     1      -4.552   4.377 127.174  0.00  0.00    +0.000 C 
BRANCH  25  26
ATOM     26  S   UNL     1      -4.119   5.447 128.499  0.00  0.00    +0.000 S 
ATOM     27  O   UNL     1      -3.060   4.596 128.942  0.00  0.00    +0.000 OA
ATOM     28  O   UNL     1      -4.013   6.884 128.125  0.00  0.00    +0.000 OA
BRANCH  26  29
ATOM     29  N   UNL     1      -5.059   5.706 129.744  0.00  0.00    +0.000 NA
ATOM     30  C   UNL     1      -5.127   6.982 130.378  0.00  0.00    +0.000 C 
ATOM     31  C   UNL     1      -5.935   6.880 131.633  0.00  0.00    +0.000 C 
ATOM     32  C   UNL     1      -7.257   6.181 131.325  0.00  0.00    +0.000 C 
ATOM     33  C   UNL     1      -7.026   4.786 130.774  0.00  0.00    +0.000 C 
ATOM     34  C   UNL     1      -6.234   4.901 129.539  0.00  0.00    +0.000 C 
BRANCH  32  35
ATOM     35  N   UNL     1      -7.993   6.929 130.300  0.00  0.00    +0.000 NA
ATOM     36  H   UNL     1      -7.821   6.488 129.398  0.00  0.00    +0.000 HD
BRANCH  35  37
ATOM     37  C   UNL     1      -9.410   6.986 130.597  0.00  0.00    +0.000 C 
BRANCH  37  38
ATOM     38  C   UNL     1     -10.193   7.648 129.475  0.00  0.00    +0.000 C 
ATOM     39  C   UNL     1     -10.064   6.855 128.173  0.00  0.00    +0.000 C 
ATOM     40  C   UNL     1     -10.948   7.418 127.082  0.00  0.00    +0.000 C 
ATOM     41  C   UNL     1     -12.396   7.493 127.537  0.00  0.00    +0.000 C 
ATOM     42  C   UNL     1     -12.527   8.317 128.814  0.00  0.00    +0.000 C 
ATOM     43  C   UNL     1     -11.654   7.755 129.923  0.00  0.00    +0.000 C 
ENDBRANCH  37  38
ENDBRANCH  35  37
ENDBRANCH  32  35
ENDBRANCH  26  29
ENDBRANCH  25  26
ENDBRANCH  24  25
ENDBRANCH  10  24
TORSDOF 11
ENDMDL
MODEL 5
REMARK VINA RESULT:      -8.7      3.020      6.787
REMARK  Name = CHEMBL572709
REMARK  13 active torsions:
REMARK  status: ('A' for Active; 'I' for Inactive)
REMARK    1  A    between atoms: C_1  and  O_2
REMARK    2  A    between atoms: O_2  and  C_3
REMARK    3  A    between atoms: C_6  and  S_7
REMARK    4  A    between atoms: S_7  and  N_10
REMARK    5  A    between atoms: C_19  and  C_20
REMARK    6  A    between atoms: C_20  and  C_21
REMARK    7  A    between atoms: C_21  and  S_22
REMARK    8  A    between atoms: S_22  and  N_25
REMARK    9  A    between atoms: C_28  and  N_29
REMARK   10  A    between atoms: N_29  and  C_30
REMARK   11  A    between atoms: C_30  and  C_31
REMARK   12  A    between atoms: C_39  and  O_40
REMARK   13  A    between atoms: O_40  and  C_41
REMARK                            x       y       z     vdW  Elec       q    Type
REMARK                         _______ _______ _______ _____ _____    ______ ____
ROOT
ATOM      1  N   UNL     1      -7.355   2.694 130.820  0.00  0.00    +0.000 N 
ATOM      2  C   UNL     1      -7.685   3.302 132.126  0.00  0.00    +0.000 A 
ATOM      3  C   UNL     1      -6.691   3.920 132.892  0.00  0.00    +0.000 A 
ATOM      4  C   UNL     1      -6.984   4.427 134.167  0.00  0.00    +0.000 A 
ATOM      5  C   UNL     1      -8.294   4.371 134.642  0.00  0.00    +0.000 A 
ATOM      6  C   UNL     1      -9.243   3.607 133.958  0.00  0.00    +0.000 A 
ATOM      7  C   UNL     1      -8.888   2.967 132.757  0.00  0.00    +0.000 A 
ATOM      8  C   UNL     1      -9.770   1.939 132.101  0.00  0.00    +0.000 C 
ATOM      9  C   UNL     1      -8.975   0.939 131.159  0.00  0.00    +0.000 C 
ATOM     10  C   UNL     1      -7.404   1.098 131.059  0.00  0.00    +0.000 C 
ENDROOT
BRANCH   1  11
ATOM     11  S   UNL     1      -8.344   3.323 129.366  0.00  0.00    +0.000 S 
ATOM     12  O   UNL     1      -9.328   2.401 128.953  0.00  0.00    +0.000 OA
ATOM     13  O   UNL     1      -7.417   3.821 128.295  0.00  0.00    +0.000 OA
BRANCH  11  17
ATOM     14  C   UNL     1     -11.164   7.144 130.196  0.00  0.00    +0.000 A 
ATOM     15  C   UNL     1     -11.690   5.921 130.001  0.00  0.00    +0.000 A 
ATOM     16  C   UNL     1     -10.759   4.813 129.871  0.00  0.00    +0.000 A 
ATOM     17  C   UNL     1      -9.239   4.851 130.061  0.00  0.00    +0.000 A 
ATOM     18  C   UNL     1      -8.594   6.104 130.431  0.00  0.00    +0.000 A 
ATOM     19  C   UNL     1      -9.742   7.071 130.340  0.00  0.00    +0.000 A 
BRANCH  14  21
ATOM     20  C   UNL     1     -12.901   8.821 129.320  0.00  0.00    +0.000 C 
ATOM     21  O   UNL     1     -11.942   8.304 130.299  0.00  0.00    +0.000 OA
ENDBRANCH  14  21
BRANCH  18  22
ATOM     22  O   UNL     1      -6.890   6.373 130.209  0.00  0.00    +0.000 OA
ATOM     23  C   UNL     1      -5.414   6.956 131.109  0.00  0.00    +0.000 C 
ENDBRANCH  18  22
ENDBRANCH  11  17
ENDBRANCH   1  11
BRANCH  10  24
ATOM     24  C   UNL     1      -6.963   0.170 129.810  0.00  0.00    +0.000 C 
BRANCH  24  25
ATOM     25  C   UNL     1      -7.614  -0.687 128.503  0.00  0.00    +0.000 C 
BRANCH  25  26
ATOM     26  S   UNL     1      -7.641  -0.964 126.769  0.00  0.00    +0.000 S 
ATOM     27  O   UNL     1      -6.218  -0.883 126.656  0.00  0.00    +0.000 OA
ATOM     28  O   UNL     1      -8.509  -2.093 126.335  0.00  0.00    +0.000 OA
BRANCH  26  29
ATOM     29  N   UNL     1      -8.248   0.068 125.737  0.00  0.00    +0.000 NA
ATOM     30  C   UNL     1      -8.032   1.472 125.866  0.00  0.00    +0.000 C 
ATOM     31  C   UNL     1      -8.881   2.207 124.877  0.00  0.00    +0.000 C 
ATOM     32  C   UNL     1      -8.684   1.595 123.492  0.00  0.00    +0.000 C 
ATOM     33  C   UNL     1      -9.074   0.128 123.480  0.00  0.00    +0.000 C 
ATOM     34  C   UNL     1      -8.230  -0.583 124.453  0.00  0.00    +0.000 C 
BRANCH  32  35
ATOM     35  N   UNL     1      -7.270   1.665 123.108  0.00  0.00    +0.000 NA
ATOM     36  H   UNL     1      -7.147   1.139 122.245  0.00  0.00    +0.000 HD
BRANCH  35  37
ATOM     37  C   UNL     1      -6.827   3.035 122.957  0.00  0.00    +0.000 C 
BRANCH  37  38
ATOM     38  C   UNL     1      -6.366   3.325 121.538  0.00  0.00    +0.000 C 
ATOM     39  C   UNL     1      -7.529   3.815 120.673  0.00  0.00    +0.000 C 
ATOM     40  C   UNL     1      -7.065   4.242 119.297  0.00  0.00    +0.000 C 
ATOM     41  C   UNL     1      -5.970   5.292 119.392  0.00  0.00    +0.000 C 
ATOM     42  C   UNL     1      -4.795   4.786 120.223  0.00  0.00    +0.000 C 
ATOM     43  C   UNL     1      -5.245   4.366 121.612  0.00  0.00    +0.000 C 
ENDBRANCH  37  38
ENDBRANCH  35  37
ENDBRANCH  32  35
ENDBRANCH  26  29
ENDBRANCH  25  26
ENDBRANCH  24  25
ENDBRANCH  10  24
TORSDOF 11
ENDMDL
MODEL 6
REMARK VINA RESULT:      -8.7      2.435      8.148
REMARK  Name = CHEMBL572709
REMARK  13 active torsions:
REMARK  status: ('A' for Active; 'I' for Inactive)
REMARK    1  A    between atoms: C_1  and  O_2
REMARK    2  A    between atoms: O_2  and  C_3
REMARK    3  A    between atoms: C_6  and  S_7
REMARK    4  A    between atoms: S_7  and  N_10
REMARK    5  A    between atoms: C_19  and  C_20
REMARK    6  A    between atoms: C_20  and  C_21
REMARK    7  A    between atoms: C_21  and  S_22
REMARK    8  A    between atoms: S_22  and  N_25
REMARK    9  A    between atoms: C_28  and  N_29
REMARK   10  A    between atoms: N_29  and  C_30
REMARK   11  A    between atoms: C_30  and  C_31
REMARK   12  A    between atoms: C_39  and  O_40
REMARK   13  A    between atoms: O_40  and  C_41
REMARK                            x       y       z     vdW  Elec       q    Type
REMARK                         _______ _______ _______ _____ _____    ______ ____
ROOT
ATOM      1  N   UNL     1      -7.523   0.402 126.247  0.00  0.00    +0.000 N 
ATOM      2  C   UNL     1      -7.590  -0.841 125.449  0.00  0.00    +0.000 A 
ATOM      3  C   UNL     1      -8.535  -0.977 124.426  0.00  0.00    +0.000 A 
ATOM      4  C   UNL     1      -8.655  -2.184 123.721  0.00  0.00    +0.000 A 
ATOM      5  C   UNL     1      -7.778  -3.230 124.001  0.00  0.00    +0.000 A 
ATOM      6  C   UNL     1      -6.955  -3.158 125.128  0.00  0.00    +0.000 A 
ATOM      7  C   UNL     1      -6.964  -1.999 125.924  0.00  0.00    +0.000 A 
ATOM      8  C   UNL     1      -6.301  -1.943 127.273  0.00  0.00    +0.000 C 
ATOM      9  C   UNL     1      -6.912  -0.833 128.229  0.00  0.00    +0.000 C 
ATOM     10  C   UNL     1      -8.132   0.021 127.694  0.00  0.00    +0.000 C 
ENDROOT
BRANCH   1  11
ATOM     11  S   UNL     1      -5.862   1.254 126.269  0.00  0.00    +0.000 S 
ATOM     12  O   UNL     1      -4.816   0.392 125.878  0.00  0.00    +0.000 OA
ATOM     13  O   UNL     1      -5.672   1.969 127.576  0.00  0.00    +0.000 OA
BRANCH  11  17
ATOM     14  C   UNL     1      -6.082   3.846 122.210  0.00  0.00    +0.000 A 
ATOM     15  C   UNL     1      -6.914   2.808 122.419  0.00  0.00    +0.000 A 
ATOM     16  C   UNL     1      -6.849   2.159 123.717  0.00  0.00    +0.000 A 
ATOM     17  C   UNL     1      -6.031   2.600 124.935  0.00  0.00    +0.000 A 
ATOM     18  C   UNL     1      -5.219   3.807 124.855  0.00  0.00    +0.000 A 
ATOM     19  C   UNL     1      -5.352   4.162 123.400  0.00  0.00    +0.000 A 
BRANCH  14  21
ATOM     20  C   UNL     1      -6.850   4.339 119.809  0.00  0.00    +0.000 C 
ATOM     21  O   UNL     1      -6.012   4.537 120.994  0.00  0.00    +0.000 OA
ENDBRANCH  14  21
BRANCH  18  22
ATOM     22  O   UNL     1      -3.920   4.128 125.965  0.00  0.00    +0.000 OA
ATOM     23  C   UNL     1      -2.345   3.421 126.554  0.00  0.00    +0.000 C 
ENDBRANCH  18  22
ENDBRANCH  11  17
ENDBRANCH   1  11
BRANCH  10  24
ATOM     24  C   UNL     1      -8.291   1.238 128.747  0.00  0.00    +0.000 C 
BRANCH  24  25
ATOM     25  C   UNL     1      -7.987   1.637 130.364  0.00  0.00    +0.000 C 
BRANCH  25  26
ATOM     26  S   UNL     1      -7.276   2.760 131.512  0.00  0.00    +0.000 S 
ATOM     27  O   UNL     1      -7.806   2.061 132.641  0.00  0.00    +0.000 OA
ATOM     28  O   UNL     1      -5.847   3.088 131.255  0.00  0.00    +0.000 OA
BRANCH  26  29
ATOM     29  N   UNL     1      -7.732   4.268 131.643  0.00  0.00    +0.000 NA
ATOM     30  C   UNL     1      -7.539   5.204 130.584  0.00  0.00    +0.000 C 
ATOM     31  C   UNL     1      -7.880   6.582 131.059  0.00  0.00    +0.000 C 
ATOM     32  C   UNL     1      -9.253   6.558 131.727  0.00  0.00    +0.000 C 
ATOM     33  C   UNL     1      -9.269   5.611 132.914  0.00  0.00    +0.000 C 
ATOM     34  C   UNL     1      -8.936   4.261 132.433  0.00  0.00    +0.000 C 
BRANCH  32  35
ATOM     35  N   UNL     1     -10.264   6.075 130.781  0.00  0.00    +0.000 NA
ATOM     36  H   UNL     1     -10.442   5.092 130.978  0.00  0.00    +0.000 HD
BRANCH  35  37
ATOM     37  C   UNL     1     -11.481   6.857 130.857  0.00  0.00    +0.000 C 
BRANCH  37  38
ATOM     38  C   UNL     1     -11.827   7.491 129.519  0.00  0.00    +0.000 C 
ATOM     39  C   UNL     1     -10.575   7.677 128.660  0.00  0.00    +0.000 C 
ATOM     40  C   UNL     1     -10.915   8.176 127.273  0.00  0.00    +0.000 C 
ATOM     41  C   UNL     1     -11.916   7.256 126.592  0.00  0.00    +0.000 C 
ATOM     42  C   UNL     1     -13.180   7.103 127.433  0.00  0.00    +0.000 C 
ATOM     43  C   UNL     1     -12.854   6.590 128.826  0.00  0.00    +0.000 C 
ENDBRANCH  37  38
ENDBRANCH  35  37
ENDBRANCH  32  35
ENDBRANCH  26  29
ENDBRANCH  25  26
ENDBRANCH  24  25
ENDBRANCH  10  24
TORSDOF 11
ENDMDL
MODEL 7
REMARK VINA RESULT:      -8.7      2.803      6.743
REMARK  Name = CHEMBL572709
REMARK  13 active torsions:
REMARK  status: ('A' for Active; 'I' for Inactive)
REMARK    1  A    between atoms: C_1  and  O_2
REMARK    2  A    between atoms: O_2  and  C_3
REMARK    3  A    between atoms: C_6  and  S_7
REMARK    4  A    between atoms: S_7  and  N_10
REMARK    5  A    between atoms: C_19  and  C_20
REMARK    6  A    between atoms: C_20  and  C_21
REMARK    7  A    between atoms: C_21  and  S_22
REMARK    8  A    between atoms: S_22  and  N_25
REMARK    9  A    between atoms: C_28  and  N_29
REMARK   10  A    between atoms: N_29  and  C_30
REMARK   11  A    between atoms: C_30  and  C_31
REMARK   12  A    between atoms: C_39  and  O_40
REMARK   13  A    between atoms: O_40  and  C_41
REMARK                            x       y       z     vdW  Elec       q    Type
REMARK                         _______ _______ _______ _____ _____    ______ ____
ROOT
ATOM      1  N   UNL     1      -7.675   2.490 126.390  0.00  0.00    +0.000 N 
ATOM      2  C   UNL     1      -8.510   2.071 125.245  0.00  0.00    +0.000 A 
ATOM      3  C   UNL     1      -9.533   1.133 125.419  0.00  0.00    +0.000 A 
ATOM      4  C   UNL     1     -10.274   0.672 124.320  0.00  0.00    +0.000 A 
ATOM      5  C   UNL     1     -10.028   1.207 123.057  0.00  0.00    +0.000 A 
ATOM      6  C   UNL     1      -8.902   2.009 122.854  0.00  0.00    +0.000 A 
ATOM      7  C   UNL     1      -8.072   2.332 123.942  0.00  0.00    +0.000 A 
ATOM      8  C   UNL     1      -6.723   2.975 123.763  0.00  0.00    +0.000 C 
ATOM      9  C   UNL     1      -5.733   2.705 124.974  0.00  0.00    +0.000 C 
ATOM     10  C   UNL     1      -6.238   1.789 126.160  0.00  0.00    +0.000 C 
ENDROOT
BRANCH   1  11
ATOM     11  S   UNL     1      -7.632   4.327 126.724  0.00  0.00    +0.000 S 
ATOM     12  O   UNL     1      -8.611   5.025 125.986  0.00  0.00    +0.000 OA
ATOM     13  O   UNL     1      -6.226   4.836 126.598  0.00  0.00    +0.000 OA
BRANCH  11  17
ATOM     14  C   UNL     1      -9.187   3.660 131.238  0.00  0.00    +0.000 A 
ATOM     15  C   UNL     1      -8.259   2.850 130.696  0.00  0.00    +0.000 A 
ATOM     16  C   UNL     1      -7.771   3.197 129.372  0.00  0.00    +0.000 A 
ATOM     17  C   UNL     1      -8.093   4.459 128.565  0.00  0.00    +0.000 A 
ATOM     18  C   UNL     1      -8.968   5.473 129.139  0.00  0.00    +0.000 A 
ATOM     19  C   UNL     1      -9.429   4.793 130.398  0.00  0.00    +0.000 A 
BRANCH  14  21
ATOM     20  C   UNL     1      -9.124   3.492 133.801  0.00  0.00    +0.000 C 
ATOM     21  O   UNL     1      -9.771   3.423 132.489  0.00  0.00    +0.000 OA
ENDBRANCH  14  21
BRANCH  18  22
ATOM     22  O   UNL     1      -9.764   6.673 128.165  0.00  0.00    +0.000 OA
ATOM     23  C   UNL     1     -10.964   8.041 128.294  0.00  0.00    +0.000 C 
ENDBRANCH  18  22
ENDBRANCH  11  17
ENDBRANCH   1  11
BRANCH  10  24
ATOM     24  C   UNL     1      -5.148   1.983 127.339  0.00  0.00    +0.000 C 
BRANCH  24  25
ATOM     25  C   UNL     1      -4.760   1.420 128.888  0.00  0.00    +0.000 C 
BRANCH  25  26
ATOM     26  S   UNL     1      -5.022   0.224 130.147  0.00  0.00    +0.000 S 
ATOM     27  O   UNL     1      -3.738  -0.373 129.955  0.00  0.00    +0.000 OA
ATOM     28  O   UNL     1      -5.571   0.773 131.418  0.00  0.00    +0.000 OA
BRANCH  26  29
ATOM     29  N   UNL     1      -6.094  -0.932 130.033  0.00  0.00    +0.000 NA
ATOM     30  C   UNL     1      -7.429  -0.676 129.598  0.00  0.00    +0.000 C 
ATOM     31  C   UNL     1      -8.263  -1.906 129.778  0.00  0.00    +0.000 C 
ATOM     32  C   UNL     1      -7.542  -3.099 129.154  0.00  0.00    +0.000 C 
ATOM     33  C   UNL     1      -6.189  -3.324 129.804  0.00  0.00    +0.000 C 
ATOM     34  C   UNL     1      -5.378  -2.110 129.617  0.00  0.00    +0.000 C 
BRANCH  32  35
ATOM     35  N   UNL     1      -7.296  -2.848 127.730  0.00  0.00    +0.000 NA
ATOM     36  H   UNL     1      -6.494  -3.406 127.441  0.00  0.00    +0.000 HD
BRANCH  35  37
ATOM     37  C   UNL     1      -8.463  -3.148 126.927  0.00  0.00    +0.000 C 
BRANCH  37  38
ATOM     38  C   UNL     1      -8.476  -2.350 125.633  0.00  0.00    +0.000 C 
ATOM     39  C   UNL     1      -7.072  -1.857 125.277  0.00  0.00    +0.000 C 
ATOM     40  C   UNL     1      -7.040  -1.182 123.924  0.00  0.00    +0.000 C 
ATOM     41  C   UNL     1      -7.590  -2.099 122.843  0.00  0.00    +0.000 C 
ATOM     42  C   UNL     1      -9.005  -2.557 123.182  0.00  0.00    +0.000 C 
ATOM     43  C   UNL     1      -9.051  -3.248 124.533  0.00  0.00    +0.000 C 
ENDBRANCH  37  38
ENDBRANCH  35  37
ENDBRANCH  32  35
ENDBRANCH  26  29
ENDBRANCH  25  26
ENDBRANCH  24  25
ENDBRANCH  10  24
TORSDOF 11
ENDMDL
MODEL 8
REMARK VINA RESULT:      -8.6      2.976      8.529
REMARK  Name = CHEMBL572709
REMARK  13 active torsions:
REMARK  status: ('A' for Active; 'I' for Inactive)
REMARK    1  A    between atoms: C_1  and  O_2
REMARK    2  A    between atoms: O_2  and  C_3
REMARK    3  A    between atoms: C_6  and  S_7
REMARK    4  A    between atoms: S_7  and  N_10
REMARK    5  A    between atoms: C_19  and  C_20
REMARK    6  A    between atoms: C_20  and  C_21
REMARK    7  A    between atoms: C_21  and  S_22
REMARK    8  A    between atoms: S_22  and  N_25
REMARK    9  A    between atoms: C_28  and  N_29
REMARK   10  A    between atoms: N_29  and  C_30
REMARK   11  A    between atoms: C_30  and  C_31
REMARK   12  A    between atoms: C_39  and  O_40
REMARK   13  A    between atoms: O_40  and  C_41
REMARK                            x       y       z     vdW  Elec       q    Type
REMARK                         _______ _______ _______ _____ _____    ______ ____
ROOT
ATOM      1  N   UNL     1      -8.027   0.436 125.868  0.00  0.00    +0.000 N 
ATOM      2  C   UNL     1      -7.535  -0.448 124.790  0.00  0.00    +0.000 A 
ATOM      3  C   UNL     1      -8.433  -1.203 124.027  0.00  0.00    +0.000 A 
ATOM      4  C   UNL     1      -7.965  -2.104 123.059  0.00  0.00    +0.000 A 
ATOM      5  C   UNL     1      -6.596  -2.194 122.812  0.00  0.00    +0.000 A 
ATOM      6  C   UNL     1      -5.696  -1.574 123.682  0.00  0.00    +0.000 A 
ATOM      7  C   UNL     1      -6.182  -0.801 124.753  0.00  0.00    +0.000 A 
ATOM      8  C   UNL     1      -5.292  -0.314 125.863  0.00  0.00    +0.000 C 
ATOM      9  C   UNL     1      -6.074  -0.017 127.212  0.00  0.00    +0.000 C 
ATOM     10  C   UNL     1      -7.630  -0.302 127.249  0.00  0.00    +0.000 C 
ENDROOT
BRANCH   1  11
ATOM     11  S   UNL     1      -7.517   2.227 125.734  0.00  0.00    +0.000 S 
ATOM     12  O   UNL     1      -6.282   2.477 126.368  0.00  0.00    +0.000 OA
ATOM     13  O   UNL     1      -8.657   3.115 126.141  0.00  0.00    +0.000 OA
BRANCH  11  17
ATOM     14  C   UNL     1      -6.611   3.882 121.298  0.00  0.00    +0.000 A 
ATOM     15  C   UNL     1      -5.654   3.868 122.243  0.00  0.00    +0.000 A 
ATOM     16  C   UNL     1      -5.988   3.248 123.514  0.00  0.00    +0.000 A 
ATOM     17  C   UNL     1      -7.269   2.484 123.865  0.00  0.00    +0.000 A 
ATOM     18  C   UNL     1      -8.301   2.310 122.852  0.00  0.00    +0.000 A 
ATOM     19  C   UNL     1      -7.769   3.162 121.733  0.00  0.00    +0.000 A 
BRANCH  14  21
ATOM     20  C   UNL     1      -5.362   5.383 119.629  0.00  0.00    +0.000 C 
ATOM     21  O   UNL     1      -6.439   4.481 120.043  0.00  0.00    +0.000 OA
ENDBRANCH  14  21
BRANCH  18  22
ATOM     22  O   UNL     1      -9.942   1.900 123.257  0.00  0.00    +0.000 OA
ATOM     23  C   UNL     1     -10.938   1.203 124.616  0.00  0.00    +0.000 C 
ENDBRANCH  18  22
ENDBRANCH  11  17
ENDBRANCH   1  11
BRANCH  10  24
ATOM     24  C   UNL     1      -8.156   0.394 128.611  0.00  0.00    +0.000 C 
BRANCH  24  25
ATOM     25  C   UNL     1      -7.733   1.584 129.737  0.00  0.00    +0.000 C 
BRANCH  25  26
ATOM     26  S   UNL     1      -8.178   2.516 131.159  0.00  0.00    +0.000 S 
ATOM     27  O   UNL     1      -9.394   1.789 131.349  0.00  0.00    +0.000 OA
ATOM     28  O   UNL     1      -7.081   2.696 132.150  0.00  0.00    +0.000 OA
BRANCH  26  29
ATOM     29  N   UNL     1      -8.555   4.050 131.105  0.00  0.00    +0.000 NA
ATOM     30  C   UNL     1      -9.005   4.669 129.901  0.00  0.00    +0.000 C 
ATOM     31  C   UNL     1      -9.095   6.149 130.098  0.00  0.00    +0.000 C 
ATOM     32  C   UNL     1      -9.886   6.441 131.371  0.00  0.00    +0.000 C 
ATOM     33  C   UNL     1      -9.218   5.824 132.586  0.00  0.00    +0.000 C 
ATOM     34  C   UNL     1      -9.140   4.369 132.382  0.00  0.00    +0.000 C 
BRANCH  32  35
ATOM     35  N   UNL     1     -11.226   5.853 131.274  0.00  0.00    +0.000 NA
ATOM     36  H   UNL     1     -11.259   5.032 131.876  0.00  0.00    +0.000 HD
BRANCH  35  37
ATOM     37  C   UNL     1     -12.254   6.809 131.632  0.00  0.00    +0.000 C 
BRANCH  37  38
ATOM     38  C   UNL     1     -12.994   7.324 130.407  0.00  0.00    +0.000 C 
ATOM     39  C   UNL     1     -12.518   8.727 130.028  0.00  0.00    +0.000 C 
ATOM     40  C   UNL     1     -13.140   9.200 128.732  0.00  0.00    +0.000 C 
ATOM     41  C   UNL     1     -12.880   8.210 127.608  0.00  0.00    +0.000 C 
ATOM     42  C   UNL     1     -13.391   6.820 127.974  0.00  0.00    +0.000 C 
ATOM     43  C   UNL     1     -12.765   6.326 129.267  0.00  0.00    +0.000 C 
ENDBRANCH  37  38
ENDBRANCH  35  37
ENDBRANCH  32  35
ENDBRANCH  26  29
ENDBRANCH  25  26
ENDBRANCH  24  25
ENDBRANCH  10  24
TORSDOF 11
ENDMDL
MODEL 9
REMARK VINA RESULT:      -8.4      2.467      6.194
REMARK  Name = CHEMBL572709
REMARK  13 active torsions:
REMARK  status: ('A' for Active; 'I' for Inactive)
REMARK    1  A    between atoms: C_1  and  O_2
REMARK    2  A    between atoms: O_2  and  C_3
REMARK    3  A    between atoms: C_6  and  S_7
REMARK    4  A    between atoms: S_7  and  N_10
REMARK    5  A    between atoms: C_19  and  C_20
REMARK    6  A    between atoms: C_20  and  C_21
REMARK    7  A    between atoms: C_21  and  S_22
REMARK    8  A    between atoms: S_22  and  N_25
REMARK    9  A    between atoms: C_28  and  N_29
REMARK   10  A    between atoms: N_29  and  C_30
REMARK   11  A    between atoms: C_30  and  C_31
REMARK   12  A    between atoms: C_39  and  O_40
REMARK   13  A    between atoms: O_40  and  C_41
REMARK                            x       y       z     vdW  Elec       q    Type
REMARK                         _______ _______ _______ _____ _____    ______ ____
ROOT
ATOM      1  N   UNL     1      -7.442   2.909 130.820  0.00  0.00    +0.000 N 
ATOM      2  C   UNL     1      -7.750   3.471 132.152  0.00  0.00    +0.000 A 
ATOM      3  C   UNL     1      -6.764   4.143 132.883  0.00  0.00    +0.000 A 
ATOM      4  C   UNL     1      -7.029   4.607 134.181  0.00  0.00    +0.000 A 
ATOM      5  C   UNL     1      -8.307   4.453 134.715  0.00  0.00    +0.000 A 
ATOM      6  C   UNL     1      -9.234   3.637 134.061  0.00  0.00    +0.000 A 
ATOM      7  C   UNL     1      -8.895   3.044 132.832  0.00  0.00    +0.000 A 
ATOM      8  C   UNL     1      -9.736   1.968 132.198  0.00  0.00    +0.000 C 
ATOM      9  C   UNL     1      -8.921   1.041 131.201  0.00  0.00    +0.000 C 
ATOM     10  C   UNL     1      -7.372   1.309 131.030  0.00  0.00    +0.000 C 
ENDROOT
BRANCH   1  11
ATOM     11  S   UNL     1      -8.541   3.493 129.428  0.00  0.00    +0.000 S 
ATOM     12  O   UNL     1      -9.472   2.508 129.036  0.00  0.00    +0.000 OA
ATOM     13  O   UNL     1      -7.704   4.082 128.329  0.00  0.00    +0.000 OA
BRANCH  11  17
ATOM     14  C   UNL     1     -11.616   7.050 130.491  0.00  0.00    +0.000 A 
ATOM     15  C   UNL     1     -12.047   5.787 130.318  0.00  0.00    +0.000 A 
ATOM     16  C   UNL     1     -11.035   4.765 130.112  0.00  0.00    +0.000 A 
ATOM     17  C   UNL     1      -9.515   4.934 130.199  0.00  0.00    +0.000 A 
ATOM     18  C   UNL     1      -8.956   6.236 130.539  0.00  0.00    +0.000 A 
ATOM     19  C   UNL     1     -10.186   7.100 130.537  0.00  0.00    +0.000 A 
BRANCH  14  21
ATOM     20  C   UNL     1     -12.774   9.200 129.695  0.00  0.00    +0.000 C 
ATOM     21  O   UNL     1     -12.482   8.138 130.660  0.00  0.00    +0.000 OA
ENDBRANCH  14  21
BRANCH  18  22
ATOM     22  O   UNL     1      -7.301   6.653 130.205  0.00  0.00    +0.000 OA
ATOM     23  C   UNL     1      -5.710   6.943 131.049  0.00  0.00    +0.000 C 
ENDBRANCH  18  22
ENDBRANCH  11  17
ENDBRANCH   1  11
BRANCH  10  24
ATOM     24  C   UNL     1      -6.929   0.436 129.742  0.00  0.00    +0.000 C 
BRANCH  24  25
ATOM     25  C   UNL     1      -7.583  -0.444 128.453  0.00  0.00    +0.000 C 
BRANCH  25  26
ATOM     26  S   UNL     1      -7.703  -0.673 126.715  0.00  0.00    +0.000 S 
ATOM     27  O   UNL     1      -6.357  -1.142 126.606  0.00  0.00    +0.000 OA
ATOM     28  O   UNL     1      -8.934  -1.380 126.267  0.00  0.00    +0.000 OA
BRANCH  26  29
ATOM     29  N   UNL     1      -7.863   0.523 125.694  0.00  0.00    +0.000 NA
ATOM     30  C   UNL     1      -8.901   1.492 125.831  0.00  0.00    +0.000 C 
ATOM     31  C   UNL     1      -8.928   2.377 124.625  0.00  0.00    +0.000 C 
ATOM     32  C   UNL     1      -7.519   2.897 124.349  0.00  0.00    +0.000 C 
ATOM     33  C   UNL     1      -6.551   1.754 124.099  0.00  0.00    +0.000 C 
ATOM     34  C   UNL     1      -6.531   0.895 125.293  0.00  0.00    +0.000 C 
BRANCH  32  35
ATOM     35  N   UNL     1      -7.019   3.633 125.515  0.00  0.00    +0.000 NA
ATOM     36  H   UNL     1      -7.016   3.002 126.315  0.00  0.00    +0.000 HD
BRANCH  35  37
ATOM     37  C   UNL     1      -5.700   4.181 125.273  0.00  0.00    +0.000 C 
BRANCH  37  38
ATOM     38  C   UNL     1      -4.787   4.000 126.475  0.00  0.00    +0.000 C 
ATOM     39  C   UNL     1      -3.408   3.494 126.046  0.00  0.00    +0.000 C 
ATOM     40  C   UNL     1      -2.442   3.441 127.208  0.00  0.00    +0.000 C 
ATOM     41  C   UNL     1      -2.340   4.794 127.895  0.00  0.00    +0.000 C 
ATOM     42  C   UNL     1      -3.711   5.279 128.357  0.00  0.00    +0.000 C 
ATOM     43  C   UNL     1      -4.689   5.348 127.197  0.00  0.00    +0.000 C 
ENDBRANCH  37  38
ENDBRANCH  35  37
ENDBRANCH  32  35
ENDBRANCH  26  29
ENDBRANCH  25  26
ENDBRANCH  24  25
ENDBRANCH  10  24
TORSDOF 11
ENDMDL
