MODEL 1
REMARK VINA RESULT:      -8.6      0.000      0.000
REMARK  Name = CHEMBL590099
REMARK  6 active torsions:
REMARK  status: ('A' for Active; 'I' for Inactive)
REMARK    1  A    between atoms: C_1  and  O_2
REMARK    2  A    between atoms: O_2  and  C_3
REMARK    3  A    between atoms: C_6  and  N_7
REMARK    4  A    between atoms: C_8  and  C_9
REMARK    5  A    between atoms: C_15  and  O_16
REMARK    6  A    between atoms: O_16  and  C_17
REMARK                            x       y       z     vdW  Elec       q    Type
REMARK                         _______ _______ _______ _____ _____    ______ ____
ROOT
ATOM      1  N   UNL     1      -8.348  -1.327 124.501  0.00  0.00    +0.000 N 
ATOM      2  C   UNL     1      -9.022  -2.434 123.981  0.00  0.00    +0.000 A 
ATOM      3  C   UNL     1      -8.964  -3.853 124.463  0.00  0.00    +0.000 C 
ATOM      4  N   UNL     1      -9.862  -2.010 123.058  0.00  0.00    +0.000 NA
ATOM      5  N   UNL     1      -9.793  -0.630 122.991  0.00  0.00    +0.000 NA
ATOM      6  C   UNL     1      -8.893  -0.207 123.844  0.00  0.00    +0.000 A 
ATOM      7  N   UNL     1      -8.487   1.071 124.172  0.00  0.00    +0.000 N 
ATOM      8  C   UNL     1      -9.178   2.315 123.983  0.00  0.00    +0.000 C 
ATOM      9  C   UNL     1      -7.988   2.867 123.151  0.00  0.00    +0.000 C 
ATOM     10  C   UNL     1      -7.238   1.652 123.749  0.00  0.00    +0.000 C 
ENDROOT
BRANCH   1  14
ATOM     11  C   UNL     1      -5.738  -1.340 127.741  0.00  0.00    +0.000 A 
ATOM     12  C   UNL     1      -5.245  -1.660 126.485  0.00  0.00    +0.000 A 
ATOM     13  C   UNL     1      -6.113  -1.640 125.395  0.00  0.00    +0.000 A 
ATOM     14  C   UNL     1      -7.450  -1.291 125.588  0.00  0.00    +0.000 A 
ATOM     15  C   UNL     1      -7.873  -1.009 126.875  0.00  0.00    +0.000 A 
ATOM     16  N   UNL     1      -7.042  -1.036 127.952  0.00  0.00    +0.000 NA
BRANCH  11  18
ATOM     17  C   UNL     1      -4.185  -2.582 129.016  0.00  0.00    +0.000 C 
ATOM     18  O   UNL     1      -4.975  -1.404 128.878  0.00  0.00    +0.000 OA
ENDBRANCH  11  18
ENDBRANCH   1  14
BRANCH   9  19
ATOM     19  O   UNL     1      -8.200   2.982 121.705  0.00  0.00    +0.000 OA
BRANCH  19  20
ATOM     20  C   UNL     1      -7.265   3.682 120.959  0.00  0.00    +0.000 A 
ATOM     21  C   UNL     1      -6.027   3.986 121.557  0.00  0.00    +0.000 A 
ATOM     22  C   UNL     1      -5.081   4.790 120.889  0.00  0.00    +0.000 A 
ATOM     23  C   UNL     1      -5.346   5.269 119.610  0.00  0.00    +0.000 A 
ATOM     24  C   UNL     1      -6.569   4.987 119.022  0.00  0.00    +0.000 A 
ATOM     25  C   UNL     1      -7.541   4.253 119.709  0.00  0.00    +0.000 A 
ATOM     26 CL   UNL     1      -9.092   4.290 118.971  0.00  0.00    +0.000 Cl
ENDBRANCH  19  20
ENDBRANCH   9  19
TORSDOF 4
ENDMDL
MODEL 2
REMARK VINA RESULT:      -8.1      8.331     10.027
REMARK  Name = CHEMBL590099
REMARK  6 active torsions:
REMARK  status: ('A' for Active; 'I' for Inactive)
REMARK    1  A    between atoms: C_1  and  O_2
REMARK    2  A    between atoms: O_2  and  C_3
REMARK    3  A    between atoms: C_6  and  N_7
REMARK    4  A    between atoms: C_8  and  C_9
REMARK    5  A    between atoms: C_15  and  O_16
REMARK    6  A    between atoms: O_16  and  C_17
REMARK                            x       y       z     vdW  Elec       q    Type
REMARK                         _______ _______ _______ _____ _____    ______ ____
ROOT
ATOM      1  N   UNL     1      -3.956   4.964 129.209  0.00  0.00    +0.000 N 
ATOM      2  C   UNL     1      -3.672   4.443 127.944  0.00  0.00    +0.000 A 
ATOM      3  C   UNL     1      -2.335   4.041 127.397  0.00  0.00    +0.000 C 
ATOM      4  N   UNL     1      -4.814   4.212 127.327  0.00  0.00    +0.000 NA
ATOM      5  N   UNL     1      -5.855   4.525 128.182  0.00  0.00    +0.000 NA
ATOM      6  C   UNL     1      -5.360   4.977 129.308  0.00  0.00    +0.000 A 
ATOM      7  N   UNL     1      -5.982   5.382 130.472  0.00  0.00    +0.000 N 
ATOM      8  C   UNL     1      -7.300   5.069 130.948  0.00  0.00    +0.000 C 
ATOM      9  C   UNL     1      -7.648   6.581 131.023  0.00  0.00    +0.000 C 
ATOM     10  C   UNL     1      -6.118   6.759 130.874  0.00  0.00    +0.000 C 
ENDROOT
BRANCH   1  14
ATOM     11  C   UNL     1      -1.378   5.867 132.347  0.00  0.00    +0.000 A 
ATOM     12  C   UNL     1      -2.100   4.683 132.395  0.00  0.00    +0.000 A 
ATOM     13  C   UNL     1      -2.951   4.370 131.338  0.00  0.00    +0.000 A 
ATOM     14  C   UNL     1      -3.051   5.243 130.254  0.00  0.00    +0.000 A 
ATOM     15  C   UNL     1      -2.318   6.417 130.291  0.00  0.00    +0.000 A 
ATOM     16  N   UNL     1      -1.493   6.744 131.321  0.00  0.00    +0.000 NA
BRANCH  11  18
ATOM     17  C   UNL     1      -0.093   7.626 133.261  0.00  0.00    +0.000 C 
ATOM     18  O   UNL     1      -0.574   6.289 133.374  0.00  0.00    +0.000 OA
ENDBRANCH  11  18
ENDBRANCH   1  14
BRANCH   9  19
ATOM     19  O   UNL     1      -8.566   7.091 129.999  0.00  0.00    +0.000 OA
BRANCH  19  20
ATOM     20  C   UNL     1      -9.907   7.219 130.326  0.00  0.00    +0.000 A 
ATOM     21  C   UNL     1     -10.390   6.511 131.443  0.00  0.00    +0.000 A 
ATOM     22  C   UNL     1     -11.765   6.513 131.758  0.00  0.00    +0.000 A 
ATOM     23  C   UNL     1     -12.661   7.245 130.985  0.00  0.00    +0.000 A 
ATOM     24  C   UNL     1     -12.194   7.930 129.874  0.00  0.00    +0.000 A 
ATOM     25  C   UNL     1     -10.844   7.871 129.513  0.00  0.00    +0.000 A 
ATOM     26 CL   UNL     1     -10.516   8.494 127.946  0.00  0.00    +0.000 Cl
ENDBRANCH  19  20
ENDBRANCH   9  19
TORSDOF 4
ENDMDL
MODEL 3
REMARK VINA RESULT:      -7.9      2.304      2.904
REMARK  Name = CHEMBL590099
REMARK  6 active torsions:
REMARK  status: ('A' for Active; 'I' for Inactive)
REMARK    1  A    between atoms: C_1  and  O_2
REMARK    2  A    between atoms: O_2  and  C_3
REMARK    3  A    between atoms: C_6  and  N_7
REMARK    4  A    between atoms: C_8  and  C_9
REMARK    5  A    between atoms: C_15  and  O_16
REMARK    6  A    between atoms: O_16  and  C_17
REMARK                            x       y       z     vdW  Elec       q    Type
REMARK                         _______ _______ _______ _____ _____    ______ ____
ROOT
ATOM      1  N   UNL     1      -6.349  -2.276 124.470  0.00  0.00    +0.000 N 
ATOM      2  C   UNL     1      -5.521  -3.105 123.711  0.00  0.00    +0.000 A 
ATOM      3  C   UNL     1      -5.020  -4.473 124.065  0.00  0.00    +0.000 C 
ATOM      4  N   UNL     1      -5.354  -2.549 122.527  0.00  0.00    +0.000 NA
ATOM      5  N   UNL     1      -6.101  -1.386 122.470  0.00  0.00    +0.000 NA
ATOM      6  C   UNL     1      -6.698  -1.207 123.622  0.00  0.00    +0.000 A 
ATOM      7  N   UNL     1      -7.570  -0.224 124.047  0.00  0.00    +0.000 N 
ATOM      8  C   UNL     1      -8.386   0.660 123.263  0.00  0.00    +0.000 C 
ATOM      9  C   UNL     1      -7.720   1.892 123.934  0.00  0.00    +0.000 C 
ATOM     10  C   UNL     1      -7.206   0.841 124.946  0.00  0.00    +0.000 C 
ENDROOT
BRANCH   1  14
ATOM     11  C   UNL     1      -7.992  -2.894 128.242  0.00  0.00    +0.000 A 
ATOM     12  C   UNL     1      -8.707  -3.304 127.127  0.00  0.00    +0.000 A 
ATOM     13  C   UNL     1      -8.152  -3.115 125.863  0.00  0.00    +0.000 A 
ATOM     14  C   UNL     1      -6.892  -2.528 125.748  0.00  0.00    +0.000 A 
ATOM     15  C   UNL     1      -6.251  -2.121 126.905  0.00  0.00    +0.000 A 
ATOM     16  N   UNL     1      -6.784  -2.287 128.145  0.00  0.00    +0.000 NA
BRANCH  11  18
ATOM     17  C   UNL     1      -7.567  -2.655 130.554  0.00  0.00    +0.000 C 
ATOM     18  O   UNL     1      -8.491  -2.975 129.516  0.00  0.00    +0.000 OA
ENDBRANCH  11  18
ENDBRANCH   1  14
BRANCH   9  19
ATOM     19  O   UNL     1      -6.783   2.660 123.106  0.00  0.00    +0.000 OA
BRANCH  19  20
ATOM     20  C   UNL     1      -7.262   3.244 121.945  0.00  0.00    +0.000 A 
ATOM     21  C   UNL     1      -8.652   3.243 121.722  0.00  0.00    +0.000 A 
ATOM     22  C   UNL     1      -9.189   3.722 120.509  0.00  0.00    +0.000 A 
ATOM     23  C   UNL     1      -8.350   4.236 119.525  0.00  0.00    +0.000 A 
ATOM     24  C   UNL     1      -6.980   4.225 119.731  0.00  0.00    +0.000 A 
ATOM     25  C   UNL     1      -6.436   3.682 120.901  0.00  0.00    +0.000 A 
ATOM     26 CL   UNL     1      -4.736   3.451 120.834  0.00  0.00    +0.000 Cl
ENDBRANCH  19  20
ENDBRANCH   9  19
TORSDOF 4
ENDMDL
MODEL 4
REMARK VINA RESULT:      -7.8      2.399      3.294
REMARK  Name = CHEMBL590099
REMARK  6 active torsions:
REMARK  status: ('A' for Active; 'I' for Inactive)
REMARK    1  A    between atoms: C_1  and  O_2
REMARK    2  A    between atoms: O_2  and  C_3
REMARK    3  A    between atoms: C_6  and  N_7
REMARK    4  A    between atoms: C_8  and  C_9
REMARK    5  A    between atoms: C_15  and  O_16
REMARK    6  A    between atoms: O_16  and  C_17
REMARK                            x       y       z     vdW  Elec       q    Type
REMARK                         _______ _______ _______ _____ _____    ______ ____
ROOT
ATOM      1  N   UNL     1      -6.758  -2.233 124.464  0.00  0.00    +0.000 N 
ATOM      2  C   UNL     1      -5.742  -2.802 123.694  0.00  0.00    +0.000 A 
ATOM      3  C   UNL     1      -4.867  -3.968 124.048  0.00  0.00    +0.000 C 
ATOM      4  N   UNL     1      -5.760  -2.237 122.503  0.00  0.00    +0.000 NA
ATOM      5  N   UNL     1      -6.806  -1.334 122.453  0.00  0.00    +0.000 NA
ATOM      6  C   UNL     1      -7.410  -1.317 123.616  0.00  0.00    +0.000 A 
ATOM      7  N   UNL     1      -8.518  -0.617 124.050  0.00  0.00    +0.000 N 
ATOM      8  C   UNL     1      -9.564  -0.010 123.276  0.00  0.00    +0.000 C 
ATOM      9  C   UNL     1      -9.264   1.369 123.925  0.00  0.00    +0.000 C 
ATOM     10  C   UNL     1      -8.455   0.519 124.934  0.00  0.00    +0.000 C 
ENDROOT
BRANCH   1  14
ATOM     11  C   UNL     1      -8.077  -3.234 128.281  0.00  0.00    +0.000 A 
ATOM     12  C   UNL     1      -8.797  -3.687 127.185  0.00  0.00    +0.000 A 
ATOM     13  C   UNL     1      -8.348  -3.368 125.906  0.00  0.00    +0.000 A 
ATOM     14  C   UNL     1      -7.186  -2.612 125.754  0.00  0.00    +0.000 A 
ATOM     15  C   UNL     1      -6.536  -2.175 126.895  0.00  0.00    +0.000 A 
ATOM     16  N   UNL     1      -6.967  -2.467 128.152  0.00  0.00    +0.000 NA
BRANCH  11  18
ATOM     17  C   UNL     1      -7.569  -3.000 130.577  0.00  0.00    +0.000 C 
ATOM     18  O   UNL     1      -8.483  -3.438 129.574  0.00  0.00    +0.000 OA
ENDBRANCH  11  18
ENDBRANCH   1  14
BRANCH   9  19
ATOM     19  O   UNL     1      -8.597   2.360 123.074  0.00  0.00    +0.000 OA
BRANCH  19  20
ATOM     20  C   UNL     1      -7.654   3.194 123.653  0.00  0.00    +0.000 A 
ATOM     21  C   UNL     1      -8.006   3.882 124.830  0.00  0.00    +0.000 A 
ATOM     22  C   UNL     1      -7.131   4.827 125.402  0.00  0.00    +0.000 A 
ATOM     23  C   UNL     1      -5.887   5.070 124.828  0.00  0.00    +0.000 A 
ATOM     24  C   UNL     1      -5.541   4.408 123.660  0.00  0.00    +0.000 A 
ATOM     25  C   UNL     1      -6.436   3.525 123.046  0.00  0.00    +0.000 A 
ATOM     26 CL   UNL     1      -5.977   3.065 121.455  0.00  0.00    +0.000 Cl
ENDBRANCH  19  20
ENDBRANCH   9  19
TORSDOF 4
ENDMDL
MODEL 5
REMARK VINA RESULT:      -7.8      1.734      2.021
REMARK  Name = CHEMBL590099
REMARK  6 active torsions:
REMARK  status: ('A' for Active; 'I' for Inactive)
REMARK    1  A    between atoms: C_1  and  O_2
REMARK    2  A    between atoms: O_2  and  C_3
REMARK    3  A    between atoms: C_6  and  N_7
REMARK    4  A    between atoms: C_8  and  C_9
REMARK    5  A    between atoms: C_15  and  O_16
REMARK    6  A    between atoms: O_16  and  C_17
REMARK                            x       y       z     vdW  Elec       q    Type
REMARK                         _______ _______ _______ _____ _____    ______ ____
ROOT
ATOM      1  N   UNL     1      -8.078  -0.565 126.510  0.00  0.00    +0.000 N 
ATOM      2  C   UNL     1      -8.675  -1.812 126.319  0.00  0.00    +0.000 A 
ATOM      3  C   UNL     1      -8.626  -3.002 127.232  0.00  0.00    +0.000 C 
ATOM      4  N   UNL     1      -9.439  -1.746 125.247  0.00  0.00    +0.000 NA
ATOM      5  N   UNL     1      -9.398  -0.456 124.750  0.00  0.00    +0.000 NA
ATOM      6  C   UNL     1      -8.589   0.261 125.490  0.00  0.00    +0.000 A 
ATOM      7  N   UNL     1      -8.245   1.596 125.423  0.00  0.00    +0.000 N 
ATOM      8  C   UNL     1      -8.947   2.679 124.794  0.00  0.00    +0.000 C 
ATOM      9  C   UNL     1      -7.701   3.001 123.924  0.00  0.00    +0.000 C 
ATOM     10  C   UNL     1      -6.978   2.077 124.934  0.00  0.00    +0.000 C 
ENDROOT
BRANCH   1  14
ATOM     11  C   UNL     1      -5.761   0.576 129.772  0.00  0.00    +0.000 A 
ATOM     12  C   UNL     1      -5.138  -0.017 128.684  0.00  0.00    +0.000 A 
ATOM     13  C   UNL     1      -5.908  -0.385 127.583  0.00  0.00    +0.000 A 
ATOM     14  C   UNL     1      -7.282  -0.141 127.594  0.00  0.00    +0.000 A 
ATOM     15  C   UNL     1      -7.835   0.432 128.726  0.00  0.00    +0.000 A 
ATOM     16  N   UNL     1      -7.099   0.785 129.814  0.00  0.00    +0.000 NA
BRANCH  11  18
ATOM     17  C   UNL     1      -5.327   0.035 132.030  0.00  0.00    +0.000 C 
ATOM     18  O   UNL     1      -5.095   0.903 130.924  0.00  0.00    +0.000 OA
ENDBRANCH  11  18
ENDBRANCH   1  14
BRANCH   9  19
ATOM     19  O   UNL     1      -7.785   2.642 122.505  0.00  0.00    +0.000 OA
BRANCH  19  20
ATOM     20  C   UNL     1      -7.019   3.360 121.601  0.00  0.00    +0.000 A 
ATOM     21  C   UNL     1      -5.706   3.709 121.969  0.00  0.00    +0.000 A 
ATOM     22  C   UNL     1      -4.919   4.533 121.138  0.00  0.00    +0.000 A 
ATOM     23  C   UNL     1      -5.419   4.987 119.922  0.00  0.00    +0.000 A 
ATOM     24  C   UNL     1      -6.717   4.661 119.561  0.00  0.00    +0.000 A 
ATOM     25  C   UNL     1      -7.529   3.906 120.415  0.00  0.00    +0.000 A 
ATOM     26 CL   UNL     1      -9.186   3.886 119.961  0.00  0.00    +0.000 Cl
ENDBRANCH  19  20
ENDBRANCH   9  19
TORSDOF 4
ENDMDL
MODEL 6
REMARK VINA RESULT:      -7.7      4.762      7.529
REMARK  Name = CHEMBL590099
REMARK  6 active torsions:
REMARK  status: ('A' for Active; 'I' for Inactive)
REMARK    1  A    between atoms: C_1  and  O_2
REMARK    2  A    between atoms: O_2  and  C_3
REMARK    3  A    between atoms: C_6  and  N_7
REMARK    4  A    between atoms: C_8  and  C_9
REMARK    5  A    between atoms: C_15  and  O_16
REMARK    6  A    between atoms: O_16  and  C_17
REMARK                            x       y       z     vdW  Elec       q    Type
REMARK                         _______ _______ _______ _____ _____    ______ ____
ROOT
ATOM      1  N   UNL     1      -6.448   3.060 123.033  0.00  0.00    +0.000 N 
ATOM      2  C   UNL     1      -5.982   3.751 121.913  0.00  0.00    +0.000 A 
ATOM      3  C   UNL     1      -6.322   3.500 120.474  0.00  0.00    +0.000 C 
ATOM      4  N   UNL     1      -5.285   4.789 122.329  0.00  0.00    +0.000 NA
ATOM      5  N   UNL     1      -5.323   4.828 123.712  0.00  0.00    +0.000 NA
ATOM      6  C   UNL     1      -6.010   3.801 124.147  0.00  0.00    +0.000 A 
ATOM      7  N   UNL     1      -6.357   3.423 125.429  0.00  0.00    +0.000 N 
ATOM      8  C   UNL     1      -6.416   4.220 126.622  0.00  0.00    +0.000 C 
ATOM      9  C   UNL     1      -5.412   3.266 127.326  0.00  0.00    +0.000 C 
ATOM     10  C   UNL     1      -5.742   2.330 126.139  0.00  0.00    +0.000 C 
ENDROOT
BRANCH   1  14
ATOM     11  C   UNL     1      -9.043  -0.184 123.269  0.00  0.00    +0.000 A 
ATOM     12  C   UNL     1      -9.576   1.091 123.153  0.00  0.00    +0.000 A 
ATOM     13  C   UNL     1      -8.710   2.177 123.057  0.00  0.00    +0.000 A 
ATOM     14  C   UNL     1      -7.332   1.961 123.069  0.00  0.00    +0.000 A 
ATOM     15  C   UNL     1      -6.876   0.662 123.214  0.00  0.00    +0.000 A 
ATOM     16  N   UNL     1      -7.707  -0.409 123.321  0.00  0.00    +0.000 NA
BRANCH  11  18
ATOM     17  C   UNL     1      -9.136  -2.545 123.294  0.00  0.00    +0.000 C 
ATOM     18  O   UNL     1      -9.817  -1.302 123.441  0.00  0.00    +0.000 OA
ENDBRANCH  11  18
ENDBRANCH   1  14
BRANCH   9  19
ATOM     19  O   UNL     1      -4.052   3.779 127.522  0.00  0.00    +0.000 OA
BRANCH  19  20
ATOM     20  C   UNL     1      -3.622   4.017 128.818  0.00  0.00    +0.000 A 
ATOM     21  C   UNL     1      -4.107   3.185 129.845  0.00  0.00    +0.000 A 
ATOM     22  C   UNL     1      -3.794   3.447 131.194  0.00  0.00    +0.000 A 
ATOM     23  C   UNL     1      -2.970   4.517 131.528  0.00  0.00    +0.000 A 
ATOM     24  C   UNL     1      -2.503   5.351 130.524  0.00  0.00    +0.000 A 
ATOM     25  C   UNL     1      -2.871   5.140 129.191  0.00  0.00    +0.000 A 
ATOM     26 CL   UNL     1      -2.479   6.447 128.147  0.00  0.00    +0.000 Cl
ENDBRANCH  19  20
ENDBRANCH   9  19
TORSDOF 4
ENDMDL
MODEL 7
REMARK VINA RESULT:      -7.6      3.137      8.267
REMARK  Name = CHEMBL590099
REMARK  6 active torsions:
REMARK  status: ('A' for Active; 'I' for Inactive)
REMARK    1  A    between atoms: C_1  and  O_2
REMARK    2  A    between atoms: O_2  and  C_3
REMARK    3  A    between atoms: C_6  and  N_7
REMARK    4  A    between atoms: C_8  and  C_9
REMARK    5  A    between atoms: C_15  and  O_16
REMARK    6  A    between atoms: O_16  and  C_17
REMARK                            x       y       z     vdW  Elec       q    Type
REMARK                         _______ _______ _______ _____ _____    ______ ____
ROOT
ATOM      1  N   UNL     1      -6.775   2.847 124.191  0.00  0.00    +0.000 N 
ATOM      2  C   UNL     1      -6.283   3.690 125.190  0.00  0.00    +0.000 A 
ATOM      3  C   UNL     1      -5.962   5.151 125.082  0.00  0.00    +0.000 C 
ATOM      4  N   UNL     1      -6.278   3.023 126.327  0.00  0.00    +0.000 NA
ATOM      5  N   UNL     1      -6.806   1.763 126.108  0.00  0.00    +0.000 NA
ATOM      6  C   UNL     1      -7.105   1.642 124.839  0.00  0.00    +0.000 A 
ATOM      7  N   UNL     1      -7.683   0.600 124.141  0.00  0.00    +0.000 N 
ATOM      8  C   UNL     1      -8.481  -0.486 124.636  0.00  0.00    +0.000 C 
ATOM      9  C   UNL     1      -7.485  -1.513 124.030  0.00  0.00    +0.000 C 
ATOM     10  C   UNL     1      -6.957  -0.279 123.260  0.00  0.00    +0.000 C 
ENDROOT
BRANCH   1  14
ATOM     11  C   UNL     1      -7.666   3.927 120.273  0.00  0.00    +0.000 A 
ATOM     12  C   UNL     1      -6.336   3.873 120.665  0.00  0.00    +0.000 A 
ATOM     13  C   UNL     1      -6.034   3.495 121.971  0.00  0.00    +0.000 A 
ATOM     14  C   UNL     1      -7.068   3.172 122.850  0.00  0.00    +0.000 A 
ATOM     15  C   UNL     1      -8.371   3.275 122.393  0.00  0.00    +0.000 A 
ATOM     16  N   UNL     1      -8.684   3.654 121.125  0.00  0.00    +0.000 NA
BRANCH  11  18
ATOM     17  C   UNL     1      -9.463   4.338 118.796  0.00  0.00    +0.000 C 
ATOM     18  O   UNL     1      -8.058   4.358 119.032  0.00  0.00    +0.000 OA
ENDBRANCH  11  18
ENDBRANCH   1  14
BRANCH   9  19
ATOM     19  O   UNL     1      -6.627  -2.229 124.980  0.00  0.00    +0.000 OA
BRANCH  19  20
ATOM     20  C   UNL     1      -7.188  -2.665 126.170  0.00  0.00    +0.000 A 
ATOM     21  C   UNL     1      -8.380  -3.412 126.110  0.00  0.00    +0.000 A 
ATOM     22  C   UNL     1      -9.055  -3.787 127.290  0.00  0.00    +0.000 A 
ATOM     23  C   UNL     1      -8.534  -3.451 128.535  0.00  0.00    +0.000 A 
ATOM     24  C   UNL     1      -7.370  -2.700 128.601  0.00  0.00    +0.000 A 
ATOM     25  C   UNL     1      -6.736  -2.261 127.434  0.00  0.00    +0.000 A 
ATOM     26 CL   UNL     1      -5.518  -1.080 127.707  0.00  0.00    +0.000 Cl
ENDBRANCH  19  20
ENDBRANCH   9  19
TORSDOF 4
ENDMDL
MODEL 8
REMARK VINA RESULT:      -7.5      6.365      7.932
REMARK  Name = CHEMBL590099
REMARK  6 active torsions:
REMARK  status: ('A' for Active; 'I' for Inactive)
REMARK    1  A    between atoms: C_1  and  O_2
REMARK    2  A    between atoms: O_2  and  C_3
REMARK    3  A    between atoms: C_6  and  N_7
REMARK    4  A    between atoms: C_8  and  C_9
REMARK    5  A    between atoms: C_15  and  O_16
REMARK    6  A    between atoms: O_16  and  C_17
REMARK                            x       y       z     vdW  Elec       q    Type
REMARK                         _______ _______ _______ _____ _____    ______ ____
ROOT
ATOM      1  N   UNL     1      -6.993   2.494 127.135  0.00  0.00    +0.000 N 
ATOM      2  C   UNL     1      -7.373   1.525 126.205  0.00  0.00    +0.000 A 
ATOM      3  C   UNL     1      -6.520   0.879 125.154  0.00  0.00    +0.000 C 
ATOM      4  N   UNL     1      -8.601   1.140 126.487  0.00  0.00    +0.000 NA
ATOM      5  N   UNL     1      -9.027   1.803 127.625  0.00  0.00    +0.000 NA
ATOM      6  C   UNL     1      -8.080   2.616 128.022  0.00  0.00    +0.000 A 
ATOM      7  N   UNL     1      -8.010   3.459 129.114  0.00  0.00    +0.000 N 
ATOM      8  C   UNL     1      -8.759   3.415 130.338  0.00  0.00    +0.000 C 
ATOM      9  C   UNL     1      -9.270   4.861 130.094  0.00  0.00    +0.000 C 
ATOM     10  C   UNL     1      -8.143   4.891 129.034  0.00  0.00    +0.000 C 
ENDROOT
BRANCH   1  14
ATOM     11  C   UNL     1      -3.311   4.350 127.692  0.00  0.00    +0.000 A 
ATOM     12  C   UNL     1      -3.544   3.128 128.307  0.00  0.00    +0.000 A 
ATOM     13  C   UNL     1      -4.769   2.496 128.109  0.00  0.00    +0.000 A 
ATOM     14  C   UNL     1      -5.728   3.097 127.292  0.00  0.00    +0.000 A 
ATOM     15  C   UNL     1      -5.431   4.329 126.734  0.00  0.00    +0.000 A 
ATOM     16  N   UNL     1      -4.245   4.965 126.927  0.00  0.00    +0.000 NA
BRANCH  11  18
ATOM     17  C   UNL     1      -2.297   6.200 128.755  0.00  0.00    +0.000 C 
ATOM     18  O   UNL     1      -2.165   5.075 127.889  0.00  0.00    +0.000 OA
ENDBRANCH  11  18
ENDBRANCH   1  14
BRANCH   9  19
ATOM     19  O   UNL     1     -10.676   4.998 129.699  0.00  0.00    +0.000 OA
BRANCH  19  20
ATOM     20  C   UNL     1     -11.284   6.233 129.859  0.00  0.00    +0.000 A 
ATOM     21  C   UNL     1     -12.125   6.423 130.973  0.00  0.00    +0.000 A 
ATOM     22  C   UNL     1     -12.857   7.617 131.128  0.00  0.00    +0.000 A 
ATOM     23  C   UNL     1     -12.732   8.644 130.197  0.00  0.00    +0.000 A 
ATOM     24  C   UNL     1     -11.919   8.457 129.090  0.00  0.00    +0.000 A 
ATOM     25  C   UNL     1     -11.248   7.246 128.891  0.00  0.00    +0.000 A 
ATOM     26 CL   UNL     1     -10.569   7.077 127.322  0.00  0.00    +0.000 Cl
ENDBRANCH  19  20
ENDBRANCH   9  19
TORSDOF 4
ENDMDL
MODEL 9
REMARK VINA RESULT:      -7.4      4.816      5.739
REMARK  Name = CHEMBL590099
REMARK  6 active torsions:
REMARK  status: ('A' for Active; 'I' for Inactive)
REMARK    1  A    between atoms: C_1  and  O_2
REMARK    2  A    between atoms: O_2  and  C_3
REMARK    3  A    between atoms: C_6  and  N_7
REMARK    4  A    between atoms: C_8  and  C_9
REMARK    5  A    between atoms: C_15  and  O_16
REMARK    6  A    between atoms: O_16  and  C_17
REMARK                            x       y       z     vdW  Elec       q    Type
REMARK                         _______ _______ _______ _____ _____    ______ ____
ROOT
ATOM      1  N   UNL     1      -6.722   3.520 128.526  0.00  0.00    +0.000 N 
ATOM      2  C   UNL     1      -7.825   2.850 129.059  0.00  0.00    +0.000 A 
ATOM      3  C   UNL     1      -8.090   2.521 130.498  0.00  0.00    +0.000 C 
ATOM      4  N   UNL     1      -8.704   2.668 128.094  0.00  0.00    +0.000 NA
ATOM      5  N   UNL     1      -8.223   3.252 126.936  0.00  0.00    +0.000 NA
ATOM      6  C   UNL     1      -7.041   3.762 127.176  0.00  0.00    +0.000 A 
ATOM      7  N   UNL     1      -6.179   4.471 126.363  0.00  0.00    +0.000 N 
ATOM      8  C   UNL     1      -6.466   5.198 125.158  0.00  0.00    +0.000 C 
ATOM      9  C   UNL     1      -5.433   4.339 124.377  0.00  0.00    +0.000 C 
ATOM     10  C   UNL     1      -4.974   3.922 125.795  0.00  0.00    +0.000 C 
ENDROOT
BRANCH   1  14
ATOM     11  C   UNL     1      -3.361   5.054 130.439  0.00  0.00    +0.000 A 
ATOM     12  C   UNL     1      -4.510   5.828 130.385  0.00  0.00    +0.000 A 
ATOM     13  C   UNL     1      -5.643   5.310 129.760  0.00  0.00    +0.000 A 
ATOM     14  C   UNL     1      -5.600   4.028 129.214  0.00  0.00    +0.000 A 
ATOM     15  C   UNL     1      -4.408   3.326 129.284  0.00  0.00    +0.000 A 
ATOM     16  N   UNL     1      -3.290   3.822 129.879  0.00  0.00    +0.000 NA
BRANCH  11  18
ATOM     17  C   UNL     1      -2.239   6.807 131.556  0.00  0.00    +0.000 C 
ATOM     18  O   UNL     1      -2.182   5.510 130.968  0.00  0.00    +0.000 OA
ENDBRANCH  11  18
ENDBRANCH   1  14
BRANCH   9  19
ATOM     19  O   UNL     1      -5.980   3.349 123.444  0.00  0.00    +0.000 OA
BRANCH  19  20
ATOM     20  C   UNL     1      -6.129   3.714 122.115  0.00  0.00    +0.000 A 
ATOM     21  C   UNL     1      -5.085   4.430 121.500  0.00  0.00    +0.000 A 
ATOM     22  C   UNL     1      -5.225   4.924 120.187  0.00  0.00    +0.000 A 
ATOM     23  C   UNL     1      -6.390   4.680 119.466  0.00  0.00    +0.000 A 
ATOM     24  C   UNL     1      -7.428   3.990 120.071  0.00  0.00    +0.000 A 
ATOM     25  C   UNL     1      -7.324   3.562 121.399  0.00  0.00    +0.000 A 
ATOM     26 CL   UNL     1      -8.811   3.031 122.077  0.00  0.00    +0.000 Cl
ENDBRANCH  19  20
ENDBRANCH   9  19
TORSDOF 4
ENDMDL
