MODEL 1
REMARK VINA RESULT:     -11.8      0.000      0.000
REMARK  Name = CHEMBL283676
REMARK  7 active torsions:
REMARK  status: ('A' for Active; 'I' for Inactive)
REMARK    1  A    between atoms: C_2  and  C_3
REMARK    2  A    between atoms: C_8  and  C_9
REMARK    3  A    between atoms: C_9  and  N_10
REMARK    4  A    between atoms: C_15  and  C_16
REMARK    5  A    between atoms: C_16  and  N_17
REMARK    6  A    between atoms: C_19  and  C_20
REMARK    7  A    between atoms: C_34  and  N_35
REMARK                            x       y       z     vdW  Elec       q    Type
REMARK                         _______ _______ _______ _____ _____    ______ ____
ROOT
ATOM      1  C   UNL     1      -7.542  -0.890 130.902  0.00  0.00    +0.000 A 
ATOM      2  C   UNL     1      -7.514  -2.300 130.982  0.00  0.00    +0.000 A 
ATOM      3  C   UNL     1      -7.042  -3.089 129.913  0.00  0.00    +0.000 A 
ATOM      4  C   UNL     1      -6.564  -2.386 128.802  0.00  0.00    +0.000 A 
ATOM      5  O   UNL     1      -5.928  -2.907 127.712  0.00  0.00    +0.000 OA
ATOM      6  C   UNL     1      -5.930  -1.956 126.721  0.00  0.00    +0.000 A 
ATOM      7  C   UNL     1      -6.236  -0.746 127.301  0.00  0.00    +0.000 A 
ATOM      8  C   UNL     1      -6.657  -1.016 128.636  0.00  0.00    +0.000 A 
ATOM      9  C   UNL     1      -7.110  -0.251 129.723  0.00  0.00    +0.000 A 
ENDROOT
BRANCH   1  11
ATOM     10  O   UNL     1      -7.769  -0.568 133.207  0.00  0.00    +0.000 OA
ATOM     11  C   UNL     1      -7.873  -0.030 132.106  0.00  0.00    +0.000 C 
ATOM     12  N   UNL     1      -8.144   1.362 131.895  0.00  0.00    +0.000 N 
ATOM     13  C   UNL     1      -9.180   1.769 130.948  0.00  0.00    +0.000 C 
ATOM     14  C   UNL     1      -8.798   3.066 130.198  0.00  0.00    +0.000 C 
ATOM     15  C   UNL     1      -8.748   4.559 131.252  0.00  0.00    +0.000 C 
ATOM     16  C   UNL     1      -7.462   3.798 132.216  0.00  0.00    +0.000 C 
ATOM     17  C   UNL     1      -7.867   2.424 132.893  0.00  0.00    +0.000 C 
BRANCH  15  18
ATOM     18  N   UNL     1      -9.950   6.012 131.337  0.00  0.00    +0.000 N 
ATOM     19  C   UNL     1      -9.015   6.552 130.428  0.00  0.00    +0.000 C 
ATOM     20  O   UNL     1      -7.764   6.724 130.566  0.00  0.00    +0.000 OA
ATOM     21  O   UNL     1      -9.494   6.627 129.206  0.00  0.00    +0.000 OA
ATOM     22  C   UNL     1      -9.803   7.961 129.248  0.00  0.00    +0.000 C 
ATOM     23  C   UNL     1     -11.224   7.715 129.495  0.00  0.00    +0.000 A 
ATOM     24  C   UNL     1     -12.035   8.579 128.504  0.00  0.00    +0.000 A 
ATOM     25  C   UNL     1     -13.126   9.361 128.735  0.00  0.00    +0.000 A 
ATOM     26  C   UNL     1     -13.407   9.248 130.070  0.00  0.00    +0.000 A 
ATOM     27  C   UNL     1     -12.588   8.167 131.092  0.00  0.00    +0.000 A 
ATOM     28  C   UNL     1     -11.376   7.118 130.763  0.00  0.00    +0.000 A 
ENDBRANCH  15  18
ENDBRANCH   1  11
BRANCH   6  29
ATOM     29  C   UNL     1      -5.669  -2.352 125.291  0.00  0.00    +0.000 C 
BRANCH  29  30
ATOM     30  N   UNL     1      -6.812  -2.720 124.435  0.00  0.00    +0.000 NA
ATOM     31  C   UNL     1      -7.903  -3.316 125.210  0.00  0.00    +0.000 C 
ATOM     32  C   UNL     1      -8.974  -3.893 124.286  0.00  0.00    +0.000 C 
ATOM     33  C   UNL     1      -9.461  -2.872 123.271  0.00  0.00    +0.000 C 
ATOM     34  C   UNL     1      -8.256  -2.290 122.524  0.00  0.00    +0.000 C 
ATOM     35  C   UNL     1      -7.281  -1.648 123.515  0.00  0.00    +0.000 C 
BRANCH  35  36
ATOM     36  C   UNL     1      -7.948  -0.455 124.246  0.00  0.00    +0.000 C 
BRANCH  36  37
ATOM     37  N   UNL     1      -7.578   0.893 123.925  0.00  0.00    +0.000 N 
ATOM     38  C   UNL     1      -6.417   1.412 124.431  0.00  0.00    +0.000 A 
ATOM     39  C   UNL     1      -6.302   2.725 124.630  0.00  0.00    +0.000 A 
ATOM     40  C   UNL     1      -7.227   3.594 123.941  0.00  0.00    +0.000 A 
ATOM     41  C   UNL     1      -8.189   3.092 123.155  0.00  0.00    +0.000 A 
ATOM     42  C   UNL     1      -8.514   1.657 123.234  0.00  0.00    +0.000 A 
ATOM     43  O   UNL     1      -9.563   1.261 122.735  0.00  0.00    +0.000 OA
BRANCH  39  44
ATOM     44  C   UNL     1      -5.250   3.287 125.525  0.00  0.00    +0.000 C 
ATOM     45  F   UNL     1      -5.797   3.997 126.537  0.00  0.00    +0.000 F 
ATOM     46  F   UNL     1      -4.495   2.303 126.075  0.00  0.00    +0.000 F 
ATOM     47  F   UNL     1      -4.389   4.114 124.873  0.00  0.00    +0.000 F 
ENDBRANCH  39  44
ENDBRANCH  36  37
ENDBRANCH  35  36
ENDBRANCH  29  30
ENDBRANCH   6  29
TORSDOF 7
ENDMDL
MODEL 2
REMARK VINA RESULT:     -10.9      4.671      8.672
REMARK  Name = CHEMBL283676
REMARK  7 active torsions:
REMARK  status: ('A' for Active; 'I' for Inactive)
REMARK    1  A    between atoms: C_2  and  C_3
REMARK    2  A    between atoms: C_8  and  C_9
REMARK    3  A    between atoms: C_9  and  N_10
REMARK    4  A    between atoms: C_15  and  C_16
REMARK    5  A    between atoms: C_16  and  N_17
REMARK    6  A    between atoms: C_19  and  C_20
REMARK    7  A    between atoms: C_34  and  N_35
REMARK                            x       y       z     vdW  Elec       q    Type
REMARK                         _______ _______ _______ _____ _____    ______ ____
ROOT
ATOM      1  C   UNL     1      -6.801  -2.879 128.277  0.00  0.00    +0.000 A 
ATOM      2  C   UNL     1      -5.424  -2.737 127.997  0.00  0.00    +0.000 A 
ATOM      3  C   UNL     1      -4.441  -3.053 128.957  0.00  0.00    +0.000 A 
ATOM      4  C   UNL     1      -4.917  -3.559 130.172  0.00  0.00    +0.000 A 
ATOM      5  O   UNL     1      -4.173  -4.070 131.196  0.00  0.00    +0.000 OA
ATOM      6  C   UNL     1      -4.970  -4.135 132.313  0.00  0.00    +0.000 A 
ATOM      7  C   UNL     1      -6.278  -4.010 131.902  0.00  0.00    +0.000 A 
ATOM      8  C   UNL     1      -6.251  -3.627 130.530  0.00  0.00    +0.000 A 
ATOM      9  C   UNL     1      -7.211  -3.326 129.549  0.00  0.00    +0.000 A 
ENDROOT
BRANCH   1  11
ATOM     10  O   UNL     1      -8.614  -3.669 127.029  0.00  0.00    +0.000 OA
ATOM     11  C   UNL     1      -7.854  -2.717 127.199  0.00  0.00    +0.000 C 
ATOM     12  N   UNL     1      -7.982  -1.441 126.557  0.00  0.00    +0.000 N 
ATOM     13  C   UNL     1      -6.818  -0.821 125.927  0.00  0.00    +0.000 C 
ATOM     14  C   UNL     1      -6.829   0.717 126.087  0.00  0.00    +0.000 C 
ATOM     15  C   UNL     1      -8.159   1.562 125.162  0.00  0.00    +0.000 C 
ATOM     16  C   UNL     1      -9.356   0.662 126.121  0.00  0.00    +0.000 C 
ATOM     17  C   UNL     1      -9.252  -0.914 125.999  0.00  0.00    +0.000 C 
BRANCH  15  18
ATOM     18  N   UNL     1      -8.057   2.611 123.595  0.00  0.00    +0.000 N 
ATOM     19  C   UNL     1      -7.223   3.383 124.432  0.00  0.00    +0.000 C 
ATOM     20  O   UNL     1      -7.478   3.908 125.561  0.00  0.00    +0.000 OA
ATOM     21  O   UNL     1      -5.957   3.299 124.089  0.00  0.00    +0.000 OA
ATOM     22  C   UNL     1      -5.907   4.489 123.412  0.00  0.00    +0.000 C 
ATOM     23  C   UNL     1      -6.021   3.849 122.101  0.00  0.00    +0.000 A 
ATOM     24  C   UNL     1      -4.914   4.431 121.192  0.00  0.00    +0.000 A 
ATOM     25  C   UNL     1      -4.999   4.870 119.905  0.00  0.00    +0.000 A 
ATOM     26  C   UNL     1      -6.302   4.701 119.524  0.00  0.00    +0.000 A 
ATOM     27  C   UNL     1      -7.449   3.915 120.499  0.00  0.00    +0.000 A 
ATOM     28  C   UNL     1      -7.292   3.253 121.986  0.00  0.00    +0.000 A 
ENDBRANCH  15  18
ENDBRANCH   1  11
BRANCH   6  29
ATOM     29  C   UNL     1      -4.351  -4.274 133.679  0.00  0.00    +0.000 C 
BRANCH  29  30
ATOM     30  N   UNL     1      -5.129  -3.853 134.858  0.00  0.00    +0.000 NA
ATOM     31  C   UNL     1      -4.293  -3.761 136.059  0.00  0.00    +0.000 C 
ATOM     32  C   UNL     1      -5.151  -3.548 137.304  0.00  0.00    +0.000 C 
ATOM     33  C   UNL     1      -6.094  -2.366 137.150  0.00  0.00    +0.000 C 
ATOM     34  C   UNL     1      -6.911  -2.535 135.865  0.00  0.00    +0.000 C 
ATOM     35  C   UNL     1      -5.977  -2.645 134.657  0.00  0.00    +0.000 C 
BRANCH  35  36
ATOM     36  C   UNL     1      -5.159  -1.341 134.474  0.00  0.00    +0.000 C 
BRANCH  36  37
ATOM     37  N   UNL     1      -5.187  -0.634 133.226  0.00  0.00    +0.000 N 
ATOM     38  C   UNL     1      -6.380  -0.172 132.740  0.00  0.00    +0.000 A 
ATOM     39  C   UNL     1      -6.555  -0.023 131.427  0.00  0.00    +0.000 A 
ATOM     40  C   UNL     1      -5.377   0.039 130.595  0.00  0.00    +0.000 A 
ATOM     41  C   UNL     1      -4.152  -0.084 131.122  0.00  0.00    +0.000 A 
ATOM     42  C   UNL     1      -4.003  -0.595 132.496  0.00  0.00    +0.000 A 
ATOM     43  O   UNL     1      -2.895  -0.969 132.870  0.00  0.00    +0.000 OA
BRANCH  39  44
ATOM     44  C   UNL     1      -7.917   0.087 130.832  0.00  0.00    +0.000 C 
ATOM     45  F   UNL     1      -8.722  -0.908 131.266  0.00  0.00    +0.000 F 
ATOM     46  F   UNL     1      -8.505   1.264 131.161  0.00  0.00    +0.000 F 
ATOM     47  F   UNL     1      -7.904   0.030 129.473  0.00  0.00    +0.000 F 
ENDBRANCH  39  44
ENDBRANCH  36  37
ENDBRANCH  35  36
ENDBRANCH  29  30
ENDBRANCH   6  29
TORSDOF 7
ENDMDL
MODEL 3
REMARK VINA RESULT:     -10.6      4.883      6.741
REMARK  Name = CHEMBL283676
REMARK  7 active torsions:
REMARK  status: ('A' for Active; 'I' for Inactive)
REMARK    1  A    between atoms: C_2  and  C_3
REMARK    2  A    between atoms: C_8  and  C_9
REMARK    3  A    between atoms: C_9  and  N_10
REMARK    4  A    between atoms: C_15  and  C_16
REMARK    5  A    between atoms: C_16  and  N_17
REMARK    6  A    between atoms: C_19  and  C_20
REMARK    7  A    between atoms: C_34  and  N_35
REMARK                            x       y       z     vdW  Elec       q    Type
REMARK                         _______ _______ _______ _____ _____    ______ ____
ROOT
ATOM      1  C   UNL     1      -7.704   3.327 131.825  0.00  0.00    +0.000 A 
ATOM      2  C   UNL     1      -8.922   3.872 131.363  0.00  0.00    +0.000 A 
ATOM      3  C   UNL     1      -9.436   3.552 130.089  0.00  0.00    +0.000 A 
ATOM      4  C   UNL     1      -8.691   2.629 129.347  0.00  0.00    +0.000 A 
ATOM      5  O   UNL     1      -9.046   2.051 128.163  0.00  0.00    +0.000 OA
ATOM      6  C   UNL     1      -7.923   1.486 127.609  0.00  0.00    +0.000 A 
ATOM      7  C   UNL     1      -6.968   1.397 128.596  0.00  0.00    +0.000 A 
ATOM      8  C   UNL     1      -7.449   2.141 129.713  0.00  0.00    +0.000 A 
ATOM      9  C   UNL     1      -6.970   2.459 130.994  0.00  0.00    +0.000 A 
ENDROOT
BRANCH   1  11
ATOM     10  O   UNL     1      -7.754   2.795 134.101  0.00  0.00    +0.000 OA
ATOM     11  C   UNL     1      -7.237   3.520 133.255  0.00  0.00    +0.000 C 
ATOM     12  N   UNL     1      -6.146   4.419 133.499  0.00  0.00    +0.000 N 
ATOM     13  C   UNL     1      -6.217   5.799 133.024  0.00  0.00    +0.000 C 
ATOM     14  C   UNL     1      -4.837   6.320 132.562  0.00  0.00    +0.000 C 
ATOM     15  C   UNL     1      -3.620   6.527 133.910  0.00  0.00    +0.000 C 
ATOM     16  C   UNL     1      -3.734   4.783 134.240  0.00  0.00    +0.000 C 
ATOM     17  C   UNL     1      -5.185   4.275 134.621  0.00  0.00    +0.000 C 
BRANCH  15  18
ATOM     18  N   UNL     1      -2.964   8.108 134.708  0.00  0.00    +0.000 N 
ATOM     19  C   UNL     1      -2.144   8.084 133.559  0.00  0.00    +0.000 C 
ATOM     20  O   UNL     1      -1.354   7.176 133.152  0.00  0.00    +0.000 OA
ATOM     21  O   UNL     1      -2.468   9.020 132.695  0.00  0.00    +0.000 OA
ATOM     22  C   UNL     1      -1.473   9.895 133.044  0.00  0.00    +0.000 C 
ATOM     23  C   UNL     1      -2.365  10.722 133.858  0.00  0.00    +0.000 A 
ATOM     24  C   UNL     1      -2.149  12.197 133.449  0.00  0.00    +0.000 A 
ATOM     25  C   UNL     1      -1.996  13.296 134.239  0.00  0.00    +0.000 A 
ATOM     26  C   UNL     1      -2.071  12.857 135.533  0.00  0.00    +0.000 A 
ATOM     27  C   UNL     1      -2.464  11.254 135.936  0.00  0.00    +0.000 A 
ATOM     28  C   UNL     1      -2.798   9.976 134.972  0.00  0.00    +0.000 A 
ENDBRANCH  15  18
ENDBRANCH   1  11
BRANCH   6  29
ATOM     29  C   UNL     1      -7.897   1.129 126.146  0.00  0.00    +0.000 C 
BRANCH  29  30
ATOM     30  N   UNL     1      -7.547   2.173 125.165  0.00  0.00    +0.000 NA
ATOM     31  C   UNL     1      -6.108   2.450 125.155  0.00  0.00    +0.000 C 
ATOM     32  C   UNL     1      -5.797   3.681 124.306  0.00  0.00    +0.000 C 
ATOM     33  C   UNL     1      -6.386   3.572 122.909  0.00  0.00    +0.000 C 
ATOM     34  C   UNL     1      -7.883   3.263 123.015  0.00  0.00    +0.000 C 
ATOM     35  C   UNL     1      -8.100   1.966 123.798  0.00  0.00    +0.000 C 
BRANCH  35  36
ATOM     36  C   UNL     1      -7.468   0.763 123.052  0.00  0.00    +0.000 C 
BRANCH  36  37
ATOM     37  N   UNL     1      -7.698  -0.578 123.508  0.00  0.00    +0.000 N 
ATOM     38  C   UNL     1      -6.656  -1.305 124.015  0.00  0.00    +0.000 A 
ATOM     39  C   UNL     1      -6.666  -2.636 123.935  0.00  0.00    +0.000 A 
ATOM     40  C   UNL     1      -7.933  -3.285 123.690  0.00  0.00    +0.000 A 
ATOM     41  C   UNL     1      -9.052  -2.570 123.517  0.00  0.00    +0.000 A 
ATOM     42  C   UNL     1      -8.955  -1.122 123.260  0.00  0.00    +0.000 A 
ATOM     43  O   UNL     1      -9.940  -0.532 122.828  0.00  0.00    +0.000 OA
BRANCH  39  44
ATOM     44  C   UNL     1      -5.419  -3.435 124.099  0.00  0.00    +0.000 C 
ATOM     45  F   UNL     1      -4.478  -3.063 123.203  0.00  0.00    +0.000 F 
ATOM     46  F   UNL     1      -4.891  -3.274 125.339  0.00  0.00    +0.000 F 
ATOM     47  F   UNL     1      -5.622  -4.770 123.938  0.00  0.00    +0.000 F 
ENDBRANCH  39  44
ENDBRANCH  36  37
ENDBRANCH  35  36
ENDBRANCH  29  30
ENDBRANCH   6  29
TORSDOF 7
ENDMDL
MODEL 4
REMARK VINA RESULT:     -10.5      4.905      6.547
REMARK  Name = CHEMBL283676
REMARK  7 active torsions:
REMARK  status: ('A' for Active; 'I' for Inactive)
REMARK    1  A    between atoms: C_2  and  C_3
REMARK    2  A    between atoms: C_8  and  C_9
REMARK    3  A    between atoms: C_9  and  N_10
REMARK    4  A    between atoms: C_15  and  C_16
REMARK    5  A    between atoms: C_16  and  N_17
REMARK    6  A    between atoms: C_19  and  C_20
REMARK    7  A    between atoms: C_34  and  N_35
REMARK                            x       y       z     vdW  Elec       q    Type
REMARK                         _______ _______ _______ _____ _____    ______ ____
ROOT
ATOM      1  C   UNL     1      -4.574   3.179 127.748  0.00  0.00    +0.000 A 
ATOM      2  C   UNL     1      -5.869   3.723 127.614  0.00  0.00    +0.000 A 
ATOM      3  C   UNL     1      -7.013   2.900 127.559  0.00  0.00    +0.000 A 
ATOM      4  C   UNL     1      -6.781   1.527 127.696  0.00  0.00    +0.000 A 
ATOM      5  O   UNL     1      -7.720   0.545 127.822  0.00  0.00    +0.000 OA
ATOM      6  C   UNL     1      -7.109  -0.664 127.591  0.00  0.00    +0.000 A 
ATOM      7  C   UNL     1      -5.749  -0.469 127.680  0.00  0.00    +0.000 A 
ATOM      8  C   UNL     1      -5.530   0.938 127.734  0.00  0.00    +0.000 A 
ATOM      9  C   UNL     1      -4.408   1.781 127.809  0.00  0.00    +0.000 A 
ENDROOT
BRANCH   1  11
ATOM     10  O   UNL     1      -2.476   4.012 127.139  0.00  0.00    +0.000 OA
ATOM     11  C   UNL     1      -3.361   4.057 127.991  0.00  0.00    +0.000 C 
ATOM     12  N   UNL     1      -3.388   4.964 129.100  0.00  0.00    +0.000 N 
ATOM     13  C   UNL     1      -3.663   4.465 130.445  0.00  0.00    +0.000 C 
ATOM     14  C   UNL     1      -4.488   5.474 131.277  0.00  0.00    +0.000 C 
ATOM     15  C   UNL     1      -3.593   7.010 131.702  0.00  0.00    +0.000 C 
ATOM     16  C   UNL     1      -3.435   7.362 129.966  0.00  0.00    +0.000 C 
ATOM     17  C   UNL     1      -2.661   6.258 129.134  0.00  0.00    +0.000 C 
BRANCH  15  18
ATOM     18  N   UNL     1      -2.886   7.572 133.360  0.00  0.00    +0.000 N 
ATOM     19  C   UNL     1      -1.724   6.989 132.810  0.00  0.00    +0.000 C 
ATOM     20  O   UNL     1      -1.541   5.806 132.384  0.00  0.00    +0.000 OA
ATOM     21  O   UNL     1      -0.828   7.888 132.473  0.00  0.00    +0.000 OA
ATOM     22  C   UNL     1      -0.039   7.737 133.583  0.00  0.00    +0.000 C 
ATOM     23  C   UNL     1      -0.583   8.927 134.240  0.00  0.00    +0.000 A 
ATOM     24  C   UNL     1       0.605   9.779 134.739  0.00  0.00    +0.000 A 
ATOM     25  C   UNL     1       0.784  10.385 135.945  0.00  0.00    +0.000 A 
ATOM     26  C   UNL     1      -0.329  10.101 136.690  0.00  0.00    +0.000 A 
ATOM     27  C   UNL     1      -1.679   9.294 136.050  0.00  0.00    +0.000 A 
ATOM     28  C   UNL     1      -1.941   8.705 134.546  0.00  0.00    +0.000 A 
ENDBRANCH  15  18
ENDBRANCH   1  11
BRANCH   6  29
ATOM     29  C   UNL     1      -7.934  -1.881 127.266  0.00  0.00    +0.000 C 
BRANCH  29  30
ATOM     30  N   UNL     1      -8.008  -2.337 125.866  0.00  0.00    +0.000 NA
ATOM     31  C   UNL     1      -9.302  -2.953 125.561  0.00  0.00    +0.000 C 
ATOM     32  C   UNL     1      -9.277  -3.617 124.185  0.00  0.00    +0.000 C 
ATOM     33  C   UNL     1      -8.809  -2.661 123.100  0.00  0.00    +0.000 C 
ATOM     34  C   UNL     1      -7.465  -2.051 123.510  0.00  0.00    +0.000 C 
ATOM     35  C   UNL     1      -7.602  -1.325 124.851  0.00  0.00    +0.000 C 
BRANCH  35  36
ATOM     36  C   UNL     1      -8.592  -0.137 124.733  0.00  0.00    +0.000 C 
BRANCH  36  37
ATOM     37  N   UNL     1      -8.362   0.908 123.779  0.00  0.00    +0.000 N 
ATOM     38  C   UNL     1      -7.217   1.654 123.859  0.00  0.00    +0.000 A 
ATOM     39  C   UNL     1      -7.200   2.906 123.403  0.00  0.00    +0.000 A 
ATOM     40  C   UNL     1      -8.243   3.301 122.485  0.00  0.00    +0.000 A 
ATOM     41  C   UNL     1      -9.211   2.446 122.131  0.00  0.00    +0.000 A 
ATOM     42  C   UNL     1      -9.406   1.210 122.909  0.00  0.00    +0.000 A 
ATOM     43  O   UNL     1     -10.449   0.581 122.766  0.00  0.00    +0.000 OA
BRANCH  39  44
ATOM     44  C   UNL     1      -6.141   3.870 123.815  0.00  0.00    +0.000 C 
ATOM     45  F   UNL     1      -6.644   4.841 124.609  0.00  0.00    +0.000 F 
ATOM     46  F   UNL     1      -5.150   3.249 124.503  0.00  0.00    +0.000 F 
ATOM     47  F   UNL     1      -5.546   4.484 122.757  0.00  0.00    +0.000 F 
ENDBRANCH  39  44
ENDBRANCH  36  37
ENDBRANCH  35  36
ENDBRANCH  29  30
ENDBRANCH   6  29
TORSDOF 7
ENDMDL
MODEL 5
REMARK VINA RESULT:     -10.5      8.382     12.661
REMARK  Name = CHEMBL283676
REMARK  7 active torsions:
REMARK  status: ('A' for Active; 'I' for Inactive)
REMARK    1  A    between atoms: C_2  and  C_3
REMARK    2  A    between atoms: C_8  and  C_9
REMARK    3  A    between atoms: C_9  and  N_10
REMARK    4  A    between atoms: C_15  and  C_16
REMARK    5  A    between atoms: C_16  and  N_17
REMARK    6  A    between atoms: C_19  and  C_20
REMARK    7  A    between atoms: C_34  and  N_35
REMARK                            x       y       z     vdW  Elec       q    Type
REMARK                         _______ _______ _______ _____ _____    ______ ____
ROOT
ATOM      1  C   UNL     1      -2.810   6.485 132.786  0.00  0.00    +0.000 A 
ATOM      2  C   UNL     1      -2.831   5.813 134.028  0.00  0.00    +0.000 A 
ATOM      3  C   UNL     1      -2.606   6.498 135.240  0.00  0.00    +0.000 A 
ATOM      4  C   UNL     1      -2.413   7.880 135.132  0.00  0.00    +0.000 A 
ATOM      5  O   UNL     1      -2.322   8.778 136.155  0.00  0.00    +0.000 OA
ATOM      6  C   UNL     1      -1.803   9.947 135.653  0.00  0.00    +0.000 A 
ATOM      7  C   UNL     1      -1.909   9.898 134.282  0.00  0.00    +0.000 A 
ATOM      8  C   UNL     1      -2.288   8.567 133.938  0.00  0.00    +0.000 A 
ATOM      9  C   UNL     1      -2.538   7.866 132.747  0.00  0.00    +0.000 A 
ENDROOT
BRANCH   1  11
ATOM     10  O   UNL     1      -2.327   5.303 130.827  0.00  0.00    +0.000 OA
ATOM     11  C   UNL     1      -3.228   5.798 131.501  0.00  0.00    +0.000 C 
ATOM     12  N   UNL     1      -4.629   5.651 131.232  0.00  0.00    +0.000 N 
ATOM     13  C   UNL     1      -5.500   6.825 131.236  0.00  0.00    +0.000 C 
ATOM     14  C   UNL     1      -6.902   6.499 131.799  0.00  0.00    +0.000 C 
ATOM     15  C   UNL     1      -7.899   5.387 130.745  0.00  0.00    +0.000 C 
ATOM     16  C   UNL     1      -6.656   4.131 130.949  0.00  0.00    +0.000 C 
ATOM     17  C   UNL     1      -5.212   4.539 130.441  0.00  0.00    +0.000 C 
BRANCH  15  18
ATOM     18  N   UNL     1      -9.395   5.777 129.661  0.00  0.00    +0.000 N 
ATOM     19  C   UNL     1     -10.032   5.765 130.921  0.00  0.00    +0.000 C 
ATOM     20  O   UNL     1     -10.074   4.844 131.794  0.00  0.00    +0.000 OA
ATOM     21  O   UNL     1     -10.387   6.969 131.310  0.00  0.00    +0.000 OA
ATOM     22  C   UNL     1     -11.706   6.857 130.956  0.00  0.00    +0.000 C 
ATOM     23  C   UNL     1     -11.527   7.611 129.714  0.00  0.00    +0.000 A 
ATOM     24  C   UNL     1     -12.635   8.687 129.648  0.00  0.00    +0.000 A 
ATOM     25  C   UNL     1     -13.437   9.035 128.604  0.00  0.00    +0.000 A 
ATOM     26  C   UNL     1     -13.081   8.229 127.557  0.00  0.00    +0.000 A 
ATOM     27  C   UNL     1     -11.755   7.169 127.624  0.00  0.00    +0.000 A 
ATOM     28  C   UNL     1     -10.702   6.874 128.841  0.00  0.00    +0.000 A 
ENDBRANCH  15  18
ENDBRANCH   1  11
BRANCH   6  29
ATOM     29  C   UNL     1      -1.217  10.976 136.583  0.00  0.00    +0.000 C 
BRANCH  29  30
ATOM     30  N   UNL     1       0.191  10.838 137.000  0.00  0.00    +0.000 NA
ATOM     31  C   UNL     1       0.614   9.435 137.035  0.00  0.00    +0.000 C 
ATOM     32  C   UNL     1       1.991   9.298 137.682  0.00  0.00    +0.000 C 
ATOM     33  C   UNL     1       3.019  10.208 137.029  0.00  0.00    +0.000 C 
ATOM     34  C   UNL     1       2.488  11.645 137.018  0.00  0.00    +0.000 C 
ATOM     35  C   UNL     1       1.154  11.708 136.269  0.00  0.00    +0.000 C 
BRANCH  35  36
ATOM     36  C   UNL     1       1.339  11.310 134.782  0.00  0.00    +0.000 C 
BRANCH  36  37
ATOM     37  N   UNL     1       0.833  12.150 133.736  0.00  0.00    +0.000 N 
ATOM     38  C   UNL     1      -0.204  13.003 134.000  0.00  0.00    +0.000 A 
ATOM     39  C   UNL     1      -1.036  13.368 133.024  0.00  0.00    +0.000 A 
ATOM     40  C   UNL     1      -0.594  13.187 131.661  0.00  0.00    +0.000 A 
ATOM     41  C   UNL     1       0.598  12.640 131.389  0.00  0.00    +0.000 A 
ATOM     42  C   UNL     1       1.330  11.932 132.454  0.00  0.00    +0.000 A 
ATOM     43  O   UNL     1       2.265  11.202 132.142  0.00  0.00    +0.000 OA
BRANCH  39  44
ATOM     44  C   UNL     1      -2.375  13.953 133.321  0.00  0.00    +0.000 C 
ATOM     45  F   UNL     1      -2.375  14.597 134.509  0.00  0.00    +0.000 F 
ATOM     46  F   UNL     1      -2.744  14.846 132.369  0.00  0.00    +0.000 F 
ATOM     47  F   UNL     1      -3.359  13.016 133.372  0.00  0.00    +0.000 F 
ENDBRANCH  39  44
ENDBRANCH  36  37
ENDBRANCH  35  36
ENDBRANCH  29  30
ENDBRANCH   6  29
TORSDOF 7
ENDMDL
MODEL 6
REMARK VINA RESULT:     -10.3      6.176      7.803
REMARK  Name = CHEMBL283676
REMARK  7 active torsions:
REMARK  status: ('A' for Active; 'I' for Inactive)
REMARK    1  A    between atoms: C_2  and  C_3
REMARK    2  A    between atoms: C_8  and  C_9
REMARK    3  A    between atoms: C_9  and  N_10
REMARK    4  A    between atoms: C_15  and  C_16
REMARK    5  A    between atoms: C_16  and  N_17
REMARK    6  A    between atoms: C_19  and  C_20
REMARK    7  A    between atoms: C_34  and  N_35
REMARK                            x       y       z     vdW  Elec       q    Type
REMARK                         _______ _______ _______ _____ _____    ______ ____
ROOT
ATOM      1  C   UNL     1      -4.222   4.248 130.517  0.00  0.00    +0.000 A 
ATOM      2  C   UNL     1      -5.540   4.746 130.439  0.00  0.00    +0.000 A 
ATOM      3  C   UNL     1      -6.323   4.581 129.277  0.00  0.00    +0.000 A 
ATOM      4  C   UNL     1      -5.728   3.854 128.240  0.00  0.00    +0.000 A 
ATOM      5  O   UNL     1      -6.322   3.436 127.085  0.00  0.00    +0.000 OA
ATOM      6  C   UNL     1      -5.334   3.066 126.206  0.00  0.00    +0.000 A 
ATOM      7  C   UNL     1      -4.170   2.912 126.924  0.00  0.00    +0.000 A 
ATOM      8  C   UNL     1      -4.412   3.429 128.230  0.00  0.00    +0.000 A 
ATOM      9  C   UNL     1      -3.660   3.587 129.406  0.00  0.00    +0.000 A 
ENDROOT
BRANCH   1  11
ATOM     10  O   UNL     1      -3.263   3.169 132.356  0.00  0.00    +0.000 OA
ATOM     11  C   UNL     1      -3.441   4.259 131.816  0.00  0.00    +0.000 C 
ATOM     12  N   UNL     1      -2.854   5.494 132.248  0.00  0.00    +0.000 N 
ATOM     13  C   UNL     1      -3.687   6.686 132.394  0.00  0.00    +0.000 C 
ATOM     14  C   UNL     1      -2.927   7.972 131.993  0.00  0.00    +0.000 C 
ATOM     15  C   UNL     1      -1.558   8.420 133.118  0.00  0.00    +0.000 C 
ATOM     16  C   UNL     1      -0.765   6.879 132.717  0.00  0.00    +0.000 C 
ATOM     17  C   UNL     1      -1.616   5.588 133.061  0.00  0.00    +0.000 C 
BRANCH  15  18
ATOM     18  N   UNL     1      -1.450   9.812 134.389  0.00  0.00    +0.000 N 
ATOM     19  C   UNL     1      -0.530  10.308 133.440  0.00  0.00    +0.000 C 
ATOM     20  O   UNL     1       0.517   9.763 132.972  0.00  0.00    +0.000 OA
ATOM     21  O   UNL     1      -0.997  11.352 132.792  0.00  0.00    +0.000 OA
ATOM     22  C   UNL     1      -0.323  12.294 133.523  0.00  0.00    +0.000 C 
ATOM     23  C   UNL     1      -1.492  12.624 134.340  0.00  0.00    +0.000 A 
ATOM     24  C   UNL     1      -1.640  14.163 134.357  0.00  0.00    +0.000 A 
ATOM     25  C   UNL     1      -1.882  14.993 135.409  0.00  0.00    +0.000 A 
ATOM     26  C   UNL     1      -1.980  14.196 136.516  0.00  0.00    +0.000 A 
ATOM     27  C   UNL     1      -1.966  12.500 136.430  0.00  0.00    +0.000 A 
ATOM     28  C   UNL     1      -1.829  11.511 135.134  0.00  0.00    +0.000 A 
ENDBRANCH  15  18
ENDBRANCH   1  11
BRANCH   6  29
ATOM     29  C   UNL     1      -5.636   2.943 124.735  0.00  0.00    +0.000 C 
BRANCH  29  30
ATOM     30  N   UNL     1      -7.039   2.795 124.308  0.00  0.00    +0.000 NA
ATOM     31  C   UNL     1      -7.167   2.794 122.848  0.00  0.00    +0.000 C 
ATOM     32  C   UNL     1      -8.635   2.868 122.430  0.00  0.00    +0.000 C 
ATOM     33  C   UNL     1      -9.472   1.789 123.097  0.00  0.00    +0.000 C 
ATOM     34  C   UNL     1      -9.262   1.852 124.613  0.00  0.00    +0.000 C 
ATOM     35  C   UNL     1      -7.779   1.673 124.949  0.00  0.00    +0.000 C 
BRANCH  35  36
ATOM     36  C   UNL     1      -7.281   0.273 124.506  0.00  0.00    +0.000 C 
BRANCH  36  37
ATOM     37  N   UNL     1      -7.983  -0.910 124.912  0.00  0.00    +0.000 N 
ATOM     38  C   UNL     1      -8.144  -1.173 126.246  0.00  0.00    +0.000 A 
ATOM     39  C   UNL     1      -8.271  -2.431 126.670  0.00  0.00    +0.000 A 
ATOM     40  C   UNL     1      -8.639  -3.434 125.698  0.00  0.00    +0.000 A 
ATOM     41  C   UNL     1      -8.813  -3.115 124.409  0.00  0.00    +0.000 A 
ATOM     42  C   UNL     1      -8.328  -1.815 123.913  0.00  0.00    +0.000 A 
ATOM     43  O   UNL     1      -8.232  -1.644 122.701  0.00  0.00    +0.000 OA
BRANCH  39  44
ATOM     44  C   UNL     1      -8.052  -2.796 128.098  0.00  0.00    +0.000 C 
ATOM     45  F   UNL     1      -8.263  -1.738 128.912  0.00  0.00    +0.000 F 
ATOM     46  F   UNL     1      -8.892  -3.787 128.488  0.00  0.00    +0.000 F 
ATOM     47  F   UNL     1      -6.791  -3.244 128.340  0.00  0.00    +0.000 F 
ENDBRANCH  39  44
ENDBRANCH  36  37
ENDBRANCH  35  36
ENDBRANCH  29  30
ENDBRANCH   6  29
TORSDOF 7
ENDMDL
MODEL 7
REMARK VINA RESULT:     -10.3      8.551     13.108
REMARK  Name = CHEMBL283676
REMARK  7 active torsions:
REMARK  status: ('A' for Active; 'I' for Inactive)
REMARK    1  A    between atoms: C_2  and  C_3
REMARK    2  A    between atoms: C_8  and  C_9
REMARK    3  A    between atoms: C_9  and  N_10
REMARK    4  A    between atoms: C_15  and  C_16
REMARK    5  A    between atoms: C_16  and  N_17
REMARK    6  A    between atoms: C_19  and  C_20
REMARK    7  A    between atoms: C_34  and  N_35
REMARK                            x       y       z     vdW  Elec       q    Type
REMARK                         _______ _______ _______ _____ _____    ______ ____
ROOT
ATOM      1  C   UNL     1      -2.459   6.770 132.369  0.00  0.00    +0.000 A 
ATOM      2  C   UNL     1      -2.760   5.974 133.496  0.00  0.00    +0.000 A 
ATOM      3  C   UNL     1      -2.526   6.436 134.808  0.00  0.00    +0.000 A 
ATOM      4  C   UNL     1      -2.029   7.739 134.915  0.00  0.00    +0.000 A 
ATOM      5  O   UNL     1      -1.859   8.462 136.060  0.00  0.00    +0.000 OA
ATOM      6  C   UNL     1      -1.048   9.533 135.774  0.00  0.00    +0.000 A 
ATOM      7  C   UNL     1      -1.013   9.678 134.406  0.00  0.00    +0.000 A 
ATOM      8  C   UNL     1      -1.630   8.521 133.846  0.00  0.00    +0.000 A 
ATOM      9  C   UNL     1      -1.893   8.047 132.550  0.00  0.00    +0.000 A 
ENDROOT
BRANCH   1  11
ATOM     10  O   UNL     1      -1.965   6.176 130.163  0.00  0.00    +0.000 OA
ATOM     11  C   UNL     1      -2.874   6.359 130.970  0.00  0.00    +0.000 C 
ATOM     12  N   UNL     1      -4.259   6.082 130.723  0.00  0.00    +0.000 N 
ATOM     13  C   UNL     1      -5.273   7.083 131.049  0.00  0.00    +0.000 C 
ATOM     14  C   UNL     1      -6.578   6.433 131.564  0.00  0.00    +0.000 C 
ATOM     15  C   UNL     1      -7.492   5.476 130.303  0.00  0.00    +0.000 C 
ATOM     16  C   UNL     1      -6.085   4.399 130.145  0.00  0.00    +0.000 C 
ATOM     17  C   UNL     1      -4.746   5.121 129.703  0.00  0.00    +0.000 C 
BRANCH  15  18
ATOM     18  N   UNL     1      -9.098   5.895 129.404  0.00  0.00    +0.000 N 
ATOM     19  C   UNL     1      -9.614   5.715 130.705  0.00  0.00    +0.000 C 
ATOM     20  O   UNL     1      -9.533   4.704 131.471  0.00  0.00    +0.000 OA
ATOM     21  O   UNL     1      -9.987   6.849 131.256  0.00  0.00    +0.000 OA
ATOM     22  C   UNL     1     -11.326   6.702 131.007  0.00  0.00    +0.000 C 
ATOM     23  C   UNL     1     -11.298   7.593 129.846  0.00  0.00    +0.000 A 
ATOM     24  C   UNL     1     -12.454   8.607 129.997  0.00  0.00    +0.000 A 
ATOM     25  C   UNL     1     -13.364   9.019 129.072  0.00  0.00    +0.000 A 
ATOM     26  C   UNL     1     -13.071   8.351 127.915  0.00  0.00    +0.000 A 
ATOM     27  C   UNL     1     -11.698   7.364 127.748  0.00  0.00    +0.000 A 
ATOM     28  C   UNL     1     -10.524   7.000 128.828  0.00  0.00    +0.000 A 
ENDBRANCH  15  18
ENDBRANCH   1  11
BRANCH   6  29
ATOM     29  C   UNL     1      -0.359  10.280 136.886  0.00  0.00    +0.000 C 
BRANCH  29  30
ATOM     30  N   UNL     1      -1.071  11.392 137.543  0.00  0.00    +0.000 NA
ATOM     31  C   UNL     1      -0.458  11.749 138.825  0.00  0.00    +0.000 C 
ATOM     32  C   UNL     1      -1.334  12.739 139.590  0.00  0.00    +0.000 C 
ATOM     33  C   UNL     1      -1.690  13.953 138.748  0.00  0.00    +0.000 C 
ATOM     34  C   UNL     1      -2.304  13.487 137.424  0.00  0.00    +0.000 C 
ATOM     35  C   UNL     1      -1.323  12.578 136.678  0.00  0.00    +0.000 C 
BRANCH  35  36
ATOM     36  C   UNL     1      -0.034  13.353 136.302  0.00  0.00    +0.000 C 
BRANCH  36  37
ATOM     37  N   UNL     1       0.596  13.140 135.031  0.00  0.00    +0.000 N 
ATOM     38  C   UNL     1      -0.082  13.448 133.883  0.00  0.00    +0.000 A 
ATOM     39  C   UNL     1       0.191  12.801 132.750  0.00  0.00    +0.000 A 
ATOM     40  C   UNL     1       1.448  12.095 132.666  0.00  0.00    +0.000 A 
ATOM     41  C   UNL     1       2.294  12.065 133.703  0.00  0.00    +0.000 A 
ATOM     42  C   UNL     1       1.820  12.478 135.036  0.00  0.00    +0.000 A 
ATOM     43  O   UNL     1       2.495  12.186 136.019  0.00  0.00    +0.000 OA
BRANCH  39  44
ATOM     44  C   UNL     1      -0.759  12.808 131.602  0.00  0.00    +0.000 C 
ATOM     45  F   UNL     1      -0.101  12.772 130.422  0.00  0.00    +0.000 F 
ATOM     46  F   UNL     1      -1.588  11.735 131.643  0.00  0.00    +0.000 F 
ATOM     47  F   UNL     1      -1.557  13.909 131.584  0.00  0.00    +0.000 F 
ENDBRANCH  39  44
ENDBRANCH  36  37
ENDBRANCH  35  36
ENDBRANCH  29  30
ENDBRANCH   6  29
TORSDOF 7
ENDMDL
MODEL 8
REMARK VINA RESULT:     -10.3      4.956      8.514
REMARK  Name = CHEMBL283676
REMARK  7 active torsions:
REMARK  status: ('A' for Active; 'I' for Inactive)
REMARK    1  A    between atoms: C_2  and  C_3
REMARK    2  A    between atoms: C_8  and  C_9
REMARK    3  A    between atoms: C_9  and  N_10
REMARK    4  A    between atoms: C_15  and  C_16
REMARK    5  A    between atoms: C_16  and  N_17
REMARK    6  A    between atoms: C_19  and  C_20
REMARK    7  A    between atoms: C_34  and  N_35
REMARK                            x       y       z     vdW  Elec       q    Type
REMARK                         _______ _______ _______ _____ _____    ______ ____
ROOT
ATOM      1  C   UNL     1      -5.374  -3.015 131.159  0.00  0.00    +0.000 A 
ATOM      2  C   UNL     1      -5.101  -1.814 131.850  0.00  0.00    +0.000 A 
ATOM      3  C   UNL     1      -5.069  -0.572 131.184  0.00  0.00    +0.000 A 
ATOM      4  C   UNL     1      -5.373  -0.605 129.818  0.00  0.00    +0.000 A 
ATOM      5  O   UNL     1      -5.551   0.465 128.991  0.00  0.00    +0.000 OA
ATOM      6  C   UNL     1      -5.495   0.017 127.693  0.00  0.00    +0.000 A 
ATOM      7  C   UNL     1      -5.644  -1.351 127.716  0.00  0.00    +0.000 A 
ATOM      8  C   UNL     1      -5.553  -1.760 129.079  0.00  0.00    +0.000 A 
ATOM      9  C   UNL     1      -5.601  -2.982 129.769  0.00  0.00    +0.000 A 
ENDROOT
BRANCH   1  11
ATOM     10  O   UNL     1      -5.116  -5.330 131.365  0.00  0.00    +0.000 OA
ATOM     11  C   UNL     1      -5.590  -4.325 131.892  0.00  0.00    +0.000 C 
ATOM     12  N   UNL     1      -6.197  -4.287 133.190  0.00  0.00    +0.000 N 
ATOM     13  C   UNL     1      -7.490  -3.631 133.373  0.00  0.00    +0.000 C 
ATOM     14  C   UNL     1      -7.585  -2.917 134.741  0.00  0.00    +0.000 C 
ATOM     15  C   UNL     1      -7.612  -4.044 136.180  0.00  0.00    +0.000 C 
ATOM     16  C   UNL     1      -6.001  -4.634 135.709  0.00  0.00    +0.000 C 
ATOM     17  C   UNL     1      -5.929  -5.277 134.263  0.00  0.00    +0.000 C 
BRANCH  15  18
ATOM     18  N   UNL     1      -9.044  -4.509 137.318  0.00  0.00    +0.000 N 
ATOM     19  C   UNL     1      -8.724  -3.249 137.869  0.00  0.00    +0.000 C 
ATOM     20  O   UNL     1      -7.619  -2.832 138.338  0.00  0.00    +0.000 OA
ATOM     21  O   UNL     1      -9.636  -2.341 137.601  0.00  0.00    +0.000 OA
ATOM     22  C   UNL     1     -10.266  -2.400 138.815  0.00  0.00    +0.000 C 
ATOM     23  C   UNL     1     -11.351  -3.242 138.311  0.00  0.00    +0.000 A 
ATOM     24  C   UNL     1     -12.689  -2.617 138.768  0.00  0.00    +0.000 A 
ATOM     25  C   UNL     1     -13.779  -3.222 139.317  0.00  0.00    +0.000 A 
ATOM     26  C   UNL     1     -13.481  -4.555 139.401  0.00  0.00    +0.000 A 
ATOM     27  C   UNL     1     -12.063  -5.221 138.745  0.00  0.00    +0.000 A 
ATOM     28  C   UNL     1     -10.830  -4.500 137.949  0.00  0.00    +0.000 A 
ENDBRANCH  15  18
ENDBRANCH   1  11
BRANCH   6  29
ATOM     29  C   UNL     1      -5.259   0.987 126.566  0.00  0.00    +0.000 C 
BRANCH  29  30
ATOM     30  N   UNL     1      -6.390   1.796 126.075  0.00  0.00    +0.000 NA
ATOM     31  C   UNL     1      -6.008   2.634 124.935  0.00  0.00    +0.000 C 
ATOM     32  C   UNL     1      -7.120   3.622 124.589  0.00  0.00    +0.000 C 
ATOM     33  C   UNL     1      -8.456   2.927 124.387  0.00  0.00    +0.000 C 
ATOM     34  C   UNL     1      -8.765   2.061 125.614  0.00  0.00    +0.000 C 
ATOM     35  C   UNL     1      -7.648   1.037 125.832  0.00  0.00    +0.000 C 
BRANCH  35  36
ATOM     36  C   UNL     1      -7.557   0.060 124.631  0.00  0.00    +0.000 C 
BRANCH  36  37
ATOM     37  N   UNL     1      -8.113  -1.259 124.724  0.00  0.00    +0.000 N 
ATOM     38  C   UNL     1      -8.615  -1.696 125.920  0.00  0.00    +0.000 A 
ATOM     39  C   UNL     1      -8.624  -2.998 126.207  0.00  0.00    +0.000 A 
ATOM     40  C   UNL     1      -8.486  -3.929 125.112  0.00  0.00    +0.000 A 
ATOM     41  C   UNL     1      -8.321  -3.496 123.855  0.00  0.00    +0.000 A 
ATOM     42  C   UNL     1      -7.964  -2.087 123.615  0.00  0.00    +0.000 A 
ATOM     43  O   UNL     1      -7.542  -1.765 122.509  0.00  0.00    +0.000 OA
BRANCH  39  44
ATOM     44  C   UNL     1      -8.779  -3.484 127.608  0.00  0.00    +0.000 C 
ATOM     45  F   UNL     1      -7.824  -4.386 127.921  0.00  0.00    +0.000 F 
ATOM     46  F   UNL     1      -8.687  -2.463 128.497  0.00  0.00    +0.000 F 
ATOM     47  F   UNL     1      -9.982  -4.079 127.829  0.00  0.00    +0.000 F 
ENDBRANCH  39  44
ENDBRANCH  36  37
ENDBRANCH  35  36
ENDBRANCH  29  30
ENDBRANCH   6  29
TORSDOF 7
ENDMDL
MODEL 9
REMARK VINA RESULT:     -10.3      5.809      7.656
REMARK  Name = CHEMBL283676
REMARK  7 active torsions:
REMARK  status: ('A' for Active; 'I' for Inactive)
REMARK    1  A    between atoms: C_2  and  C_3
REMARK    2  A    between atoms: C_8  and  C_9
REMARK    3  A    between atoms: C_9  and  N_10
REMARK    4  A    between atoms: C_15  and  C_16
REMARK    5  A    between atoms: C_16  and  N_17
REMARK    6  A    between atoms: C_19  and  C_20
REMARK    7  A    between atoms: C_34  and  N_35
REMARK                            x       y       z     vdW  Elec       q    Type
REMARK                         _______ _______ _______ _____ _____    ______ ____
ROOT
ATOM      1  C   UNL     1      -5.781   3.941 130.598  0.00  0.00    +0.000 A 
ATOM      2  C   UNL     1      -4.663   3.081 130.533  0.00  0.00    +0.000 A 
ATOM      3  C   UNL     1      -4.263   2.483 129.321  0.00  0.00    +0.000 A 
ATOM      4  C   UNL     1      -5.010   2.836 128.192  0.00  0.00    +0.000 A 
ATOM      5  O   UNL     1      -4.738   2.513 126.894  0.00  0.00    +0.000 OA
ATOM      6  C   UNL     1      -5.868   2.751 126.149  0.00  0.00    +0.000 A 
ATOM      7  C   UNL     1      -6.705   3.546 126.898  0.00  0.00    +0.000 A 
ATOM      8  C   UNL     1      -6.166   3.595 128.217  0.00  0.00    +0.000 A 
ATOM      9  C   UNL     1      -6.531   4.196 129.433  0.00  0.00    +0.000 A 
ENDROOT
BRANCH   1  11
ATOM     10  O   UNL     1      -7.193   4.486 132.380  0.00  0.00    +0.000 OA
ATOM     11  C   UNL     1      -6.110   4.728 131.851  0.00  0.00    +0.000 C 
ATOM     12  N   UNL     1      -5.100   5.583 132.403  0.00  0.00    +0.000 N 
ATOM     13  C   UNL     1      -4.473   6.605 131.569  0.00  0.00    +0.000 C 
ATOM     14  C   UNL     1      -2.977   6.792 131.913  0.00  0.00    +0.000 C 
ATOM     15  C   UNL     1      -2.668   7.517 133.562  0.00  0.00    +0.000 C 
ATOM     16  C   UNL     1      -3.476   6.113 134.297  0.00  0.00    +0.000 C 
ATOM     17  C   UNL     1      -4.981   5.906 133.847  0.00  0.00    +0.000 C 
BRANCH  15  18
ATOM     18  N   UNL     1      -2.080   9.251 134.024  0.00  0.00    +0.000 N 
ATOM     19  C   UNL     1      -0.887   8.539 134.275  0.00  0.00    +0.000 C 
ATOM     20  O   UNL     1      -0.686   7.549 135.045  0.00  0.00    +0.000 OA
ATOM     21  O   UNL     1       0.043   8.796 133.382  0.00  0.00    +0.000 OA
ATOM     22  C   UNL     1       0.744   9.688 134.150  0.00  0.00    +0.000 C 
ATOM     23  C   UNL     1       0.166  10.854 133.479  0.00  0.00    +0.000 A 
ATOM     24  C   UNL     1       1.325  11.802 133.095  0.00  0.00    +0.000 A 
ATOM     25  C   UNL     1       1.420  13.152 133.248  0.00  0.00    +0.000 A 
ATOM     26  C   UNL     1       0.251  13.558 133.833  0.00  0.00    +0.000 A 
ATOM     27  C   UNL     1      -1.057  12.507 134.096  0.00  0.00    +0.000 A 
ATOM     28  C   UNL     1      -1.212  10.913 133.763  0.00  0.00    +0.000 A 
ENDBRANCH  15  18
ENDBRANCH   1  11
BRANCH   6  29
ATOM     29  C   UNL     1      -6.020   2.132 124.784  0.00  0.00    +0.000 C 
BRANCH  29  30
ATOM     30  N   UNL     1      -7.297   2.297 124.067  0.00  0.00    +0.000 NA
ATOM     31  C   UNL     1      -7.099   2.829 122.716  0.00  0.00    +0.000 C 
ATOM     32  C   UNL     1      -8.435   3.204 122.078  0.00  0.00    +0.000 C 
ATOM     33  C   UNL     1      -9.428   2.054 122.118  0.00  0.00    +0.000 C 
ATOM     34  C   UNL     1      -9.558   1.550 123.560  0.00  0.00    +0.000 C 
ATOM     35  C   UNL     1      -8.191   1.106 124.088  0.00  0.00    +0.000 C 
BRANCH  35  36
ATOM     36  C   UNL     1      -7.646  -0.089 123.264  0.00  0.00    +0.000 C 
BRANCH  36  37
ATOM     37  N   UNL     1      -7.523  -1.388 123.861  0.00  0.00    +0.000 N 
ATOM     38  C   UNL     1      -6.278  -1.898 124.115  0.00  0.00    +0.000 A 
ATOM     39  C   UNL     1      -6.087  -3.216 124.136  0.00  0.00    +0.000 A 
ATOM     40  C   UNL     1      -7.247  -4.062 124.295  0.00  0.00    +0.000 A 
ATOM     41  C   UNL     1      -8.476  -3.537 124.384  0.00  0.00    +0.000 A 
ATOM     42  C   UNL     1      -8.692  -2.130 124.006  0.00  0.00    +0.000 A 
ATOM     43  O   UNL     1      -9.839  -1.738 123.818  0.00  0.00    +0.000 OA
BRANCH  39  44
ATOM     44  C   UNL     1      -4.724  -3.806 124.010  0.00  0.00    +0.000 C 
ATOM     45  F   UNL     1      -4.759  -4.980 123.341  0.00  0.00    +0.000 F 
ATOM     46  F   UNL     1      -3.888  -2.976 123.338  0.00  0.00    +0.000 F 
ATOM     47  F   UNL     1      -4.140  -4.047 125.215  0.00  0.00    +0.000 F 
ENDBRANCH  39  44
ENDBRANCH  36  37
ENDBRANCH  35  36
ENDBRANCH  29  30
ENDBRANCH   6  29
TORSDOF 7
ENDMDL
