MODEL 1
REMARK VINA RESULT:      -8.4      0.000      0.000
REMARK  Name = CHEMBL401910
REMARK  12 active torsions:
REMARK  status: ('A' for Active; 'I' for Inactive)
REMARK    1  A    between atoms: C_1  and  C_2
REMARK    2  A    between atoms: C_4  and  C_5
REMARK    3  A    between atoms: C_5  and  C_6
REMARK    4  A    between atoms: C_5  and  N_12
REMARK    5  A    between atoms: N_8  and  C_9
REMARK    6  A    between atoms: C_9  and  C_10
REMARK    7  A    between atoms: C_9  and  C_11
REMARK    8  A    between atoms: C_15  and  C_16
REMARK    9  A    between atoms: CA_28  and  CB_29
REMARK   10  A    between atoms: CB_29  and  CG_30
REMARK   11  A    between atoms: CG_30  and  CD1_31
REMARK   12  A    between atoms: CG_30  and  CD2_32
REMARK                            x       y       z     vdW  Elec       q    Type
REMARK                         _______ _______ _______ _____ _____    ______ ____
ROOT
ATOM      1  N   LEU A   1      -7.660   0.677 127.495  0.00  0.00    +0.000 N 
ATOM      2  C   UNK A   2      -7.639   1.755 126.598  0.00  0.00    +0.000 C 
ATOM      3  O   UNK A   2      -7.188   2.851 126.917  0.00  0.00    +0.000 OA
ATOM      4  C   UNK A   2      -8.344   1.511 125.227  0.00  0.00    +0.000 C 
ATOM      5  N   UNK A   2      -7.882   0.263 124.708  0.00  0.00    +0.000 N 
ATOM      6  C   LEU A   1      -8.173  -0.850 125.434  0.00  0.00    +0.000 C 
ATOM      7  O   LEU A   1      -8.312  -1.896 124.850  0.00  0.00    +0.000 OA
ATOM      8  CA  LEU A   1      -8.276  -0.602 126.977  0.00  0.00    +0.000 C 
ATOM      9  H   UNK A   2      -7.780   0.080 123.717  0.00  0.00    +0.000 HD
ENDROOT
BRANCH   4  10
ATOM     10  C   UNK A   2      -8.098   2.579 124.191  0.00  0.00    +0.000 C 
ATOM     11  C   UNK A   2      -6.685   2.487 123.603  0.00  0.00    +0.000 C 
ATOM     12  C   UNK A   2      -6.915   3.096 122.266  0.00  0.00    +0.000 A 
ATOM     13  C   UNK A   2      -5.951   3.541 121.387  0.00  0.00    +0.000 A 
ATOM     14  C   UNK A   2      -6.376   4.096 120.184  0.00  0.00    +0.000 A 
ATOM     15  C   UNK A   2      -7.743   4.166 119.866  0.00  0.00    +0.000 A 
ATOM     16  C   UNK A   2      -8.708   3.673 120.745  0.00  0.00    +0.000 A 
ATOM     17  C   UNK A   2      -8.277   3.144 121.945  0.00  0.00    +0.000 A 
ATOM     18  C   UNK A   2      -9.107   2.538 123.023  0.00  0.00    +0.000 C 
ENDBRANCH   4  10
BRANCH   1  19
ATOM     19  C   UNK A   0      -7.166   0.922 128.984  0.00  0.00    +0.000 C 
BRANCH  19  23
ATOM     20  C   UNK A   0      -9.222   2.944 133.228  0.00  0.00    +0.000 C 
ATOM     21  C   UNK A   0      -8.758   2.731 131.810  0.00  0.00    +0.000 A 
ATOM     22  N   UNK A   0      -7.622   2.281 131.269  0.00  0.00    +0.000 NA
ATOM     23  C   UNK A   0      -7.960   1.948 129.919  0.00  0.00    +0.000 A 
ATOM     24  C   UNK A   0      -9.196   2.528 129.702  0.00  0.00    +0.000 A 
ATOM     25  O   UNK A   0      -9.738   2.921 130.883  0.00  0.00    +0.000 OA
ENDBRANCH  19  23
BRANCH  19  26
ATOM     26  C   UNK A   0      -5.690   1.419 128.841  0.00  0.00    +0.000 C 
ATOM     27  O   UNK A   0      -4.764   0.690 128.487  0.00  0.00    +0.000 OA
ATOM     28  N   UNK A   0      -5.425   2.719 129.218  0.00  0.00    +0.000 N 
ATOM     29  H   UNK A   0      -6.167   3.245 129.687  0.00  0.00    +0.000 HD
BRANCH  28  30
ATOM     30  C   UNK A   0      -4.055   3.179 129.355  0.00  0.00    +0.000 C 
ATOM     31  C   UNK A   0      -3.798   4.304 128.359  0.00  0.00    +0.000 C 
ATOM     32  C   UNK A   0      -3.779   3.659 130.773  0.00  0.00    +0.000 C 
ENDBRANCH  28  30
ENDBRANCH  19  26
ENDBRANCH   1  19
BRANCH   8  33
ATOM     33  CB  LEU A   1      -7.528  -1.765 127.573  0.00  0.00    +0.000 C 
BRANCH  33  34
ATOM     34  CG  LEU A   1      -8.185  -2.723 128.562  0.00  0.00    +0.000 C 
ATOM     35  CD1 LEU A   1      -8.882  -3.876 127.812  0.00  0.00    +0.000 C 
ATOM     36  CD2 LEU A   1      -7.179  -3.400 129.444  0.00  0.00    +0.000 C 
ENDBRANCH  33  34
ENDBRANCH   8  33
TORSDOF 7
ENDMDL
MODEL 2
REMARK VINA RESULT:      -8.0      4.801      7.339
REMARK  Name = CHEMBL401910
REMARK  12 active torsions:
REMARK  status: ('A' for Active; 'I' for Inactive)
REMARK    1  A    between atoms: C_1  and  C_2
REMARK    2  A    between atoms: C_4  and  C_5
REMARK    3  A    between atoms: C_5  and  C_6
REMARK    4  A    between atoms: C_5  and  N_12
REMARK    5  A    between atoms: N_8  and  C_9
REMARK    6  A    between atoms: C_9  and  C_10
REMARK    7  A    between atoms: C_9  and  C_11
REMARK    8  A    between atoms: C_15  and  C_16
REMARK    9  A    between atoms: CA_28  and  CB_29
REMARK   10  A    between atoms: CB_29  and  CG_30
REMARK   11  A    between atoms: CG_30  and  CD1_31
REMARK   12  A    between atoms: CG_30  and  CD2_32
REMARK                            x       y       z     vdW  Elec       q    Type
REMARK                         _______ _______ _______ _____ _____    ______ ____
ROOT
ATOM      1  N   LEU A   1      -6.450   4.059 131.416  0.00  0.00    +0.000 N 
ATOM      2  C   UNK A   2      -7.216   4.824 130.524  0.00  0.00    +0.000 C 
ATOM      3  O   UNK A   2      -6.731   5.299 129.500  0.00  0.00    +0.000 OA
ATOM      4  C   UNK A   2      -8.674   5.141 130.981  0.00  0.00    +0.000 C 
ATOM      5  N   UNK A   2      -9.272   3.924 131.428  0.00  0.00    +0.000 N 
ATOM      6  C   LEU A   1      -8.708   3.322 132.509  0.00  0.00    +0.000 C 
ATOM      7  O   LEU A   1      -9.414   2.667 133.236  0.00  0.00    +0.000 OA
ATOM      8  CA  LEU A   1      -7.168   3.567 132.651  0.00  0.00    +0.000 C 
ATOM      9  H   UNK A   2     -10.260   3.724 131.328  0.00  0.00    +0.000 HD
ENDROOT
BRANCH   4  10
ATOM     10  C   UNK A   2      -9.554   5.743 129.915  0.00  0.00    +0.000 C 
ATOM     11  C   UNK A   2     -11.007   5.268 130.042  0.00  0.00    +0.000 C 
ATOM     12  C   UNK A   2     -11.715   6.419 129.421  0.00  0.00    +0.000 A 
ATOM     13  C   UNK A   2     -13.027   6.445 128.997  0.00  0.00    +0.000 A 
ATOM     14  C   UNK A   2     -13.500   7.623 128.424  0.00  0.00    +0.000 A 
ATOM     15  C   UNK A   2     -12.673   8.753 128.315  0.00  0.00    +0.000 A 
ATOM     16  C   UNK A   2     -11.360   8.728 128.787  0.00  0.00    +0.000 A 
ATOM     17  C   UNK A   2     -10.894   7.550 129.333  0.00  0.00    +0.000 A 
ATOM     18  C   UNK A   2      -9.551   7.287 129.923  0.00  0.00    +0.000 C 
ENDBRANCH   4  10
BRANCH   1  19
ATOM     19  C   UNK A   0      -4.898   3.888 131.126  0.00  0.00    +0.000 C 
BRANCH  19  23
ATOM     20  C   UNK A   0      -0.695   6.708 131.969  0.00  0.00    +0.000 C 
ATOM     21  C   UNK A   0      -2.069   6.259 131.544  0.00  0.00    +0.000 A 
ATOM     22  N   UNK A   0      -2.532   5.169 130.924  0.00  0.00    +0.000 NA
ATOM     23  C   UNK A   0      -3.941   5.168 131.176  0.00  0.00    +0.000 A 
ATOM     24  C   UNK A   0      -4.221   6.432 131.662  0.00  0.00    +0.000 A 
ATOM     25  O   UNK A   0      -3.069   7.072 131.986  0.00  0.00    +0.000 OA
ENDBRANCH  19  23
BRANCH  19  26
ATOM     26  C   UNK A   0      -4.823   3.267 129.692  0.00  0.00    +0.000 C 
ATOM     27  O   UNK A   0      -5.337   2.189 129.396  0.00  0.00    +0.000 OA
ATOM     28  N   UNK A   0      -4.066   3.939 128.754  0.00  0.00    +0.000 N 
ATOM     29  H   UNK A   0      -3.495   4.726 129.072  0.00  0.00    +0.000 HD
BRANCH  28  30
ATOM     30  C   UNK A   0      -3.740   3.311 127.487  0.00  0.00    +0.000 C 
ATOM     31  C   UNK A   0      -4.547   3.968 126.374  0.00  0.00    +0.000 C 
ATOM     32  C   UNK A   0      -2.250   3.419 127.191  0.00  0.00    +0.000 C 
ENDBRANCH  28  30
ENDBRANCH  19  26
ENDBRANCH   1  19
BRANCH   8  33
ATOM     33  CB  LEU A   1      -6.625   2.209 133.007  0.00  0.00    +0.000 C 
BRANCH  33  34
ATOM     34  CG  LEU A   1      -5.564   2.024 134.088  0.00  0.00    +0.000 C 
ATOM     35  CD1 LEU A   1      -5.680   3.134 135.151  0.00  0.00    +0.000 C 
ATOM     36  CD2 LEU A   1      -5.753   0.748 134.851  0.00  0.00    +0.000 C 
ENDBRANCH  33  34
ENDBRANCH   8  33
TORSDOF 7
ENDMDL
MODEL 3
REMARK VINA RESULT:      -7.9      2.152      2.595
REMARK  Name = CHEMBL401910
REMARK  12 active torsions:
REMARK  status: ('A' for Active; 'I' for Inactive)
REMARK    1  A    between atoms: C_1  and  C_2
REMARK    2  A    between atoms: C_4  and  C_5
REMARK    3  A    between atoms: C_5  and  C_6
REMARK    4  A    between atoms: C_5  and  N_12
REMARK    5  A    between atoms: N_8  and  C_9
REMARK    6  A    between atoms: C_9  and  C_10
REMARK    7  A    between atoms: C_9  and  C_11
REMARK    8  A    between atoms: C_15  and  C_16
REMARK    9  A    between atoms: CA_28  and  CB_29
REMARK   10  A    between atoms: CB_29  and  CG_30
REMARK   11  A    between atoms: CG_30  and  CD1_31
REMARK   12  A    between atoms: CG_30  and  CD2_32
REMARK                            x       y       z     vdW  Elec       q    Type
REMARK                         _______ _______ _______ _____ _____    ______ ____
ROOT
ATOM      1  N   LEU A   1      -6.274   2.664 127.960  0.00  0.00    +0.000 N 
ATOM      2  C   UNK A   2      -6.514   3.481 126.845  0.00  0.00    +0.000 C 
ATOM      3  O   UNK A   2      -6.597   4.702 126.945  0.00  0.00    +0.000 OA
ATOM      4  C   UNK A   2      -6.800   2.733 125.505  0.00  0.00    +0.000 C 
ATOM      5  N   UNK A   2      -5.798   1.729 125.336  0.00  0.00    +0.000 N 
ATOM      6  C   LEU A   1      -5.756   0.739 126.267  0.00  0.00    +0.000 C 
ATOM      7  O   LEU A   1      -5.363  -0.350 125.930  0.00  0.00    +0.000 OA
ATOM      8  CA  LEU A   1      -6.231   1.177 127.694  0.00  0.00    +0.000 C 
ATOM      9  H   UNK A   2      -5.451   1.441 124.429  0.00  0.00    +0.000 HD
ENDROOT
BRANCH   4  10
ATOM     10  C   UNK A   2      -6.807   3.612 124.280  0.00  0.00    +0.000 C 
ATOM     11  C   UNK A   2      -5.386   3.931 123.800  0.00  0.00    +0.000 C 
ATOM     12  C   UNK A   2      -5.642   4.163 122.353  0.00  0.00    +0.000 A 
ATOM     13  C   UNK A   2      -4.786   4.760 121.452  0.00  0.00    +0.000 A 
ATOM     14  C   UNK A   2      -5.222   4.897 120.137  0.00  0.00    +0.000 A 
ATOM     15  C   UNK A   2      -6.479   4.411 119.741  0.00  0.00    +0.000 A 
ATOM     16  C   UNK A   2      -7.319   3.770 120.652  0.00  0.00    +0.000 A 
ATOM     17  C   UNK A   2      -6.887   3.658 121.958  0.00  0.00    +0.000 A 
ATOM     18  C   UNK A   2      -7.587   2.999 123.096  0.00  0.00    +0.000 C 
ENDBRANCH   4  10
BRANCH   1  19
ATOM     19  C   UNK A   0      -6.200   3.344 129.393  0.00  0.00    +0.000 C 
BRANCH  19  23
ATOM     20  C   UNK A   0      -9.316   5.838 132.616  0.00  0.00    +0.000 C 
ATOM     21  C   UNK A   0      -8.648   5.317 131.371  0.00  0.00    +0.000 A 
ATOM     22  N   UNK A   0      -7.372   5.162 131.006  0.00  0.00    +0.000 NA
ATOM     23  C   UNK A   0      -7.410   4.262 129.894  0.00  0.00    +0.000 A 
ATOM     24  C   UNK A   0      -8.738   4.216 129.512  0.00  0.00    +0.000 A 
ATOM     25  O   UNK A   0      -9.517   4.777 130.471  0.00  0.00    +0.000 OA
ENDBRANCH  19  23
BRANCH  19  26
ATOM     26  C   UNK A   0      -4.899   4.211 129.360  0.00  0.00    +0.000 C 
ATOM     27  O   UNK A   0      -3.767   3.733 129.443  0.00  0.00    +0.000 OA
ATOM     28  N   UNK A   0      -5.056   5.581 129.320  0.00  0.00    +0.000 N 
ATOM     29  H   UNK A   0      -5.998   5.960 129.444  0.00  0.00    +0.000 HD
BRANCH  28  30
ATOM     30  C   UNK A   0      -3.920   6.458 129.539  0.00  0.00    +0.000 C 
ATOM     31  C   UNK A   0      -3.402   6.958 128.196  0.00  0.00    +0.000 C 
ATOM     32  C   UNK A   0      -4.301   7.634 130.428  0.00  0.00    +0.000 C 
ENDBRANCH  28  30
ENDBRANCH  19  26
ENDBRANCH   1  19
BRANCH   8  33
ATOM     33  CB  LEU A   1      -5.210   0.560 128.612  0.00  0.00    +0.000 C 
BRANCH  33  34
ATOM     34  CG  LEU A   1      -5.547  -0.629 129.507  0.00  0.00    +0.000 C 
ATOM     35  CD1 LEU A   1      -7.045  -0.977 129.399  0.00  0.00    +0.000 C 
ATOM     36  CD2 LEU A   1      -4.837  -1.877 129.076  0.00  0.00    +0.000 C 
ENDBRANCH  33  34
ENDBRANCH   8  33
TORSDOF 7
ENDMDL
MODEL 4
REMARK VINA RESULT:      -7.8      2.321      2.919
REMARK  Name = CHEMBL401910
REMARK  12 active torsions:
REMARK  status: ('A' for Active; 'I' for Inactive)
REMARK    1  A    between atoms: C_1  and  C_2
REMARK    2  A    between atoms: C_4  and  C_5
REMARK    3  A    between atoms: C_5  and  C_6
REMARK    4  A    between atoms: C_5  and  N_12
REMARK    5  A    between atoms: N_8  and  C_9
REMARK    6  A    between atoms: C_9  and  C_10
REMARK    7  A    between atoms: C_9  and  C_11
REMARK    8  A    between atoms: C_15  and  C_16
REMARK    9  A    between atoms: CA_28  and  CB_29
REMARK   10  A    between atoms: CB_29  and  CG_30
REMARK   11  A    between atoms: CG_30  and  CD1_31
REMARK   12  A    between atoms: CG_30  and  CD2_32
REMARK                            x       y       z     vdW  Elec       q    Type
REMARK                         _______ _______ _______ _____ _____    ______ ____
ROOT
ATOM      1  N   LEU A   1      -7.950   2.972 128.392  0.00  0.00    +0.000 N 
ATOM      2  C   UNK A   2      -7.857   3.714 127.206  0.00  0.00    +0.000 C 
ATOM      3  O   UNK A   2      -7.727   4.935 127.217  0.00  0.00    +0.000 OA
ATOM      4  C   UNK A   2      -8.062   2.910 125.884  0.00  0.00    +0.000 C 
ATOM      5  N   UNK A   2      -7.250   1.737 125.949  0.00  0.00    +0.000 N 
ATOM      6  C   LEU A   1      -7.539   0.842 126.931  0.00  0.00    +0.000 C 
ATOM      7  O   LEU A   1      -7.306  -0.324 126.732  0.00  0.00    +0.000 OA
ATOM      8  CA  LEU A   1      -8.142   1.482 128.227  0.00  0.00    +0.000 C 
ATOM      9  H   UNK A   2      -6.824   1.314 125.133  0.00  0.00    +0.000 HD
ENDROOT
BRANCH   4  10
ATOM     10  C   UNK A   2      -7.715   3.663 124.625  0.00  0.00    +0.000 C 
ATOM     11  C   UNK A   2      -6.199   3.724 124.399  0.00  0.00    +0.000 C 
ATOM     12  C   UNK A   2      -6.159   3.857 122.918  0.00  0.00    +0.000 A 
ATOM     13  C   UNK A   2      -5.074   4.236 122.155  0.00  0.00    +0.000 A 
ATOM     14  C   UNK A   2      -5.247   4.314 120.776  0.00  0.00    +0.000 A 
ATOM     15  C   UNK A   2      -6.478   3.984 120.185  0.00  0.00    +0.000 A 
ATOM     16  C   UNK A   2      -7.556   3.561 120.963  0.00  0.00    +0.000 A 
ATOM     17  C   UNK A   2      -7.381   3.507 122.331  0.00  0.00    +0.000 A 
ATOM     18  C   UNK A   2      -8.365   3.066 123.359  0.00  0.00    +0.000 C 
ENDBRANCH   4  10
BRANCH   1  19
ATOM     19  C   UNK A   0      -7.978   3.754 129.774  0.00  0.00    +0.000 C 
BRANCH  19  23
ATOM     20  C   UNK A   0     -11.278   7.682 129.716  0.00  0.00    +0.000 C 
ATOM     21  C   UNK A   0     -10.612   6.362 130.006  0.00  0.00    +0.000 A 
ATOM     22  N   UNK A   0     -10.012   5.445 129.242  0.00  0.00    +0.000 NA
ATOM     23  C   UNK A   0      -9.252   4.643 130.152  0.00  0.00    +0.000 A 
ATOM     24  C   UNK A   0      -9.726   4.974 131.408  0.00  0.00    +0.000 A 
ATOM     25  O   UNK A   0     -10.485   6.097 131.337  0.00  0.00    +0.000 OA
ENDBRANCH  19  23
BRANCH  19  26
ATOM     26  C   UNK A   0      -6.719   4.681 129.736  0.00  0.00    +0.000 C 
ATOM     27  O   UNK A   0      -6.745   5.869 130.058  0.00  0.00    +0.000 OA
ATOM     28  N   UNK A   0      -5.554   4.140 129.234  0.00  0.00    +0.000 N 
ATOM     29  H   UNK A   0      -5.602   3.216 128.797  0.00  0.00    +0.000 HD
BRANCH  28  30
ATOM     30  C   UNK A   0      -4.418   4.992 128.931  0.00  0.00    +0.000 C 
ATOM     31  C   UNK A   0      -3.180   4.454 129.637  0.00  0.00    +0.000 C 
ATOM     32  C   UNK A   0      -4.177   5.068 127.429  0.00  0.00    +0.000 C 
ENDBRANCH  28  30
ENDBRANCH  19  26
ENDBRANCH   1  19
BRANCH   8  33
ATOM     33  CB  LEU A   1      -7.410   0.782 129.341  0.00  0.00    +0.000 C 
BRANCH  33  34
ATOM     34  CG  LEU A   1      -8.136  -0.101 130.351  0.00  0.00    +0.000 C 
ATOM     35  CD1 LEU A   1      -7.672  -1.566 130.217  0.00  0.00    +0.000 C 
ATOM     36  CD2 LEU A   1      -7.806   0.272 131.765  0.00  0.00    +0.000 C 
ENDBRANCH  33  34
ENDBRANCH   8  33
TORSDOF 7
ENDMDL
MODEL 5
REMARK VINA RESULT:      -7.7      3.547      6.088
REMARK  Name = CHEMBL401910
REMARK  12 active torsions:
REMARK  status: ('A' for Active; 'I' for Inactive)
REMARK    1  A    between atoms: C_1  and  C_2
REMARK    2  A    between atoms: C_4  and  C_5
REMARK    3  A    between atoms: C_5  and  C_6
REMARK    4  A    between atoms: C_5  and  N_12
REMARK    5  A    between atoms: N_8  and  C_9
REMARK    6  A    between atoms: C_9  and  C_10
REMARK    7  A    between atoms: C_9  and  C_11
REMARK    8  A    between atoms: C_15  and  C_16
REMARK    9  A    between atoms: CA_28  and  CB_29
REMARK   10  A    between atoms: CB_29  and  CG_30
REMARK   11  A    between atoms: CG_30  and  CD1_31
REMARK   12  A    between atoms: CG_30  and  CD2_32
REMARK                            x       y       z     vdW  Elec       q    Type
REMARK                         _______ _______ _______ _____ _____    ______ ____
ROOT
ATOM      1  N   LEU A   1      -5.443   5.014 130.026  0.00  0.00    +0.000 N 
ATOM      2  C   UNK A   2      -6.109   4.686 128.837  0.00  0.00    +0.000 C 
ATOM      3  O   UNK A   2      -7.332   4.587 128.788  0.00  0.00    +0.000 OA
ATOM      4  C   UNK A   2      -5.196   4.328 127.623  0.00  0.00    +0.000 C 
ATOM      5  N   UNK A   2      -4.189   5.337 127.514  0.00  0.00    +0.000 N 
ATOM      6  C   LEU A   1      -3.325   5.458 128.557  0.00  0.00    +0.000 C 
ATOM      7  O   LEU A   1      -2.206   5.849 128.334  0.00  0.00    +0.000 OA
ATOM      8  CA  LEU A   1      -3.935   5.068 129.946  0.00  0.00    +0.000 C 
ATOM      9  H   UNK A   2      -3.793   5.629 126.629  0.00  0.00    +0.000 HD
ENDROOT
BRANCH   4  10
ATOM     10  C   UNK A   2      -5.912   4.224 126.301  0.00  0.00    +0.000 C 
ATOM     11  C   UNK A   2      -5.074   4.800 125.153  0.00  0.00    +0.000 C 
ATOM     12  C   UNK A   2      -5.615   4.014 124.012  0.00  0.00    +0.000 A 
ATOM     13  C   UNK A   2      -5.444   4.287 122.671  0.00  0.00    +0.000 A 
ATOM     14  C   UNK A   2      -6.047   3.432 121.753  0.00  0.00    +0.000 A 
ATOM     15  C   UNK A   2      -6.777   2.311 122.185  0.00  0.00    +0.000 A 
ATOM     16  C   UNK A   2      -6.906   2.021 123.543  0.00  0.00    +0.000 A 
ATOM     17  C   UNK A   2      -6.322   2.887 124.446  0.00  0.00    +0.000 A 
ATOM     18  C   UNK A   2      -6.301   2.776 125.931  0.00  0.00    +0.000 C 
ENDBRANCH   4  10
BRANCH   1  19
ATOM     19  C   UNK A   0      -6.299   5.168 131.355  0.00  0.00    +0.000 C 
BRANCH  19  23
ATOM     20  C   UNK A   0      -9.817   1.514 132.125  0.00  0.00    +0.000 C 
ATOM     21  C   UNK A   0      -8.564   2.347 132.197  0.00  0.00    +0.000 A 
ATOM     22  N   UNK A   0      -7.780   2.914 131.276  0.00  0.00    +0.000 NA
ATOM     23  C   UNK A   0      -7.006   3.882 131.991  0.00  0.00    +0.000 A 
ATOM     24  C   UNK A   0      -7.189   3.575 133.327  0.00  0.00    +0.000 A 
ATOM     25  O   UNK A   0      -8.220   2.704 133.466  0.00  0.00    +0.000 OA
ENDBRANCH  19  23
BRANCH  19  26
ATOM     26  C   UNK A   0      -7.402   6.219 131.003  0.00  0.00    +0.000 C 
ATOM     27  O   UNK A   0      -7.157   7.402 130.767  0.00  0.00    +0.000 OA
ATOM     28  N   UNK A   0      -8.714   5.793 131.047  0.00  0.00    +0.000 N 
ATOM     29  H   UNK A   0      -8.905   4.863 131.428  0.00  0.00    +0.000 HD
BRANCH  28  30
ATOM     30  C   UNK A   0      -9.800   6.753 130.981  0.00  0.00    +0.000 C 
ATOM     31  C   UNK A   0     -10.318   6.834 129.550  0.00  0.00    +0.000 C 
ATOM     32  C   UNK A   0     -10.929   6.366 131.928  0.00  0.00    +0.000 C 
ENDBRANCH  28  30
ENDBRANCH  19  26
ENDBRANCH   1  19
BRANCH   8  33
ATOM     33  CB  LEU A   1      -3.450   6.159 130.864  0.00  0.00    +0.000 C 
BRANCH  33  34
ATOM     34  CG  LEU A   1      -2.460   5.881 131.992  0.00  0.00    +0.000 C 
ATOM     35  CD1 LEU A   1      -2.282   4.362 132.189  0.00  0.00    +0.000 C 
ATOM     36  CD2 LEU A   1      -1.085   6.384 131.672  0.00  0.00    +0.000 C 
ENDBRANCH  33  34
ENDBRANCH   8  33
TORSDOF 7
ENDMDL
MODEL 6
REMARK VINA RESULT:      -7.7      3.410      7.286
REMARK  Name = CHEMBL401910
REMARK  12 active torsions:
REMARK  status: ('A' for Active; 'I' for Inactive)
REMARK    1  A    between atoms: C_1  and  C_2
REMARK    2  A    between atoms: C_4  and  C_5
REMARK    3  A    between atoms: C_5  and  C_6
REMARK    4  A    between atoms: C_5  and  N_12
REMARK    5  A    between atoms: N_8  and  C_9
REMARK    6  A    between atoms: C_9  and  C_10
REMARK    7  A    between atoms: C_9  and  C_11
REMARK    8  A    between atoms: C_15  and  C_16
REMARK    9  A    between atoms: CA_28  and  CB_29
REMARK   10  A    between atoms: CB_29  and  CG_30
REMARK   11  A    between atoms: CG_30  and  CD1_31
REMARK   12  A    between atoms: CG_30  and  CD2_32
REMARK                            x       y       z     vdW  Elec       q    Type
REMARK                         _______ _______ _______ _____ _____    ______ ____
ROOT
ATOM      1  N   LEU A   1      -7.366   2.567 129.755  0.00  0.00    +0.000 N 
ATOM      2  C   UNK A   2      -8.302   3.521 129.327  0.00  0.00    +0.000 C 
ATOM      3  O   UNK A   2      -8.455   3.786 128.138  0.00  0.00    +0.000 OA
ATOM      4  C   UNK A   2      -9.032   4.310 130.458  0.00  0.00    +0.000 C 
ATOM      5  N   UNK A   2      -9.502   3.368 131.423  0.00  0.00    +0.000 N 
ATOM      6  C   LEU A   1      -8.560   2.640 132.080  0.00  0.00    +0.000 C 
ATOM      7  O   LEU A   1      -8.800   2.271 133.203  0.00  0.00    +0.000 OA
ATOM      8  CA  LEU A   1      -7.261   2.368 131.249  0.00  0.00    +0.000 C 
ATOM      9  H   UNK A   2     -10.351   3.502 131.959  0.00  0.00    +0.000 HD
ENDROOT
BRANCH   4  10
ATOM     10  C   UNK A   2     -10.200   5.143 129.995  0.00  0.00    +0.000 C 
ATOM     11  C   UNK A   2     -11.070   5.606 131.170  0.00  0.00    +0.000 C 
ATOM     12  C   UNK A   2     -11.650   6.849 130.596  0.00  0.00    +0.000 A 
ATOM     13  C   UNK A   2     -12.728   7.556 131.085  0.00  0.00    +0.000 A 
ATOM     14  C   UNK A   2     -13.126   8.694 130.390  0.00  0.00    +0.000 A 
ATOM     15  C   UNK A   2     -12.428   9.121 129.247  0.00  0.00    +0.000 A 
ATOM     16  C   UNK A   2     -11.312   8.422 128.787  0.00  0.00    +0.000 A 
ATOM     17  C   UNK A   2     -10.938   7.283 129.471  0.00  0.00    +0.000 A 
ATOM     18  C   UNK A   2      -9.778   6.391 129.190  0.00  0.00    +0.000 C 
ENDBRANCH   4  10
BRANCH   1  19
ATOM     19  C   UNK A   0      -6.427   1.889 128.668  0.00  0.00    +0.000 C 
BRANCH  19  23
ATOM     20  C   UNK A   0      -1.910   3.103 126.559  0.00  0.00    +0.000 C 
ATOM     21  C   UNK A   0      -3.341   3.149 127.030  0.00  0.00    +0.000 A 
ATOM     22  N   UNK A   0      -4.354   2.278 126.986  0.00  0.00    +0.000 NA
ATOM     23  C   UNK A   0      -5.302   2.763 127.942  0.00  0.00    +0.000 A 
ATOM     24  C   UNK A   0      -4.892   4.051 128.236  0.00  0.00    +0.000 A 
ATOM     25  O   UNK A   0      -3.638   4.259 127.761  0.00  0.00    +0.000 OA
ENDBRANCH  19  23
BRANCH  19  26
ATOM     26  C   UNK A   0      -7.405   1.336 127.581  0.00  0.00    +0.000 C 
ATOM     27  O   UNK A   0      -8.186   0.407 127.786  0.00  0.00    +0.000 OA
ATOM     28  N   UNK A   0      -7.309   1.875 126.315  0.00  0.00    +0.000 N 
ATOM     29  H   UNK A   0      -6.528   2.507 126.119  0.00  0.00    +0.000 HD
BRANCH  28  30
ATOM     30  C   UNK A   0      -7.995   1.253 125.197  0.00  0.00    +0.000 C 
ATOM     31  C   UNK A   0      -8.979   2.247 124.591  0.00  0.00    +0.000 C 
ATOM     32  C   UNK A   0      -7.004   0.784 124.141  0.00  0.00    +0.000 C 
ENDBRANCH  28  30
ENDBRANCH  19  26
ENDBRANCH   1  19
BRANCH   8  33
ATOM     33  CB  LEU A   1      -6.968   0.915 131.514  0.00  0.00    +0.000 C 
BRANCH  33  34
ATOM     34  CG  LEU A   1      -5.691   0.468 132.218  0.00  0.00    +0.000 C 
ATOM     35  CD1 LEU A   1      -4.502   1.350 131.790  0.00  0.00    +0.000 C 
ATOM     36  CD2 LEU A   1      -5.775   0.643 133.705  0.00  0.00    +0.000 C 
ENDBRANCH  33  34
ENDBRANCH   8  33
TORSDOF 7
ENDMDL
MODEL 7
REMARK VINA RESULT:      -7.5      2.063      6.945
REMARK  Name = CHEMBL401910
REMARK  12 active torsions:
REMARK  status: ('A' for Active; 'I' for Inactive)
REMARK    1  A    between atoms: C_1  and  C_2
REMARK    2  A    between atoms: C_4  and  C_5
REMARK    3  A    between atoms: C_5  and  C_6
REMARK    4  A    between atoms: C_5  and  N_12
REMARK    5  A    between atoms: N_8  and  C_9
REMARK    6  A    between atoms: C_9  and  C_10
REMARK    7  A    between atoms: C_9  and  C_11
REMARK    8  A    between atoms: C_15  and  C_16
REMARK    9  A    between atoms: CA_28  and  CB_29
REMARK   10  A    between atoms: CB_29  and  CG_30
REMARK   11  A    between atoms: CG_30  and  CD1_31
REMARK   12  A    between atoms: CG_30  and  CD2_32
REMARK                            x       y       z     vdW  Elec       q    Type
REMARK                         _______ _______ _______ _____ _____    ______ ____
ROOT
ATOM      1  N   LEU A   1      -6.751   1.818 125.353  0.00  0.00    +0.000 N 
ATOM      2  C   UNK A   2      -6.550   0.750 126.241  0.00  0.00    +0.000 C 
ATOM      3  O   UNK A   2      -6.151   0.930 127.388  0.00  0.00    +0.000 OA
ATOM      4  C   UNK A   2      -6.738  -0.677 125.638  0.00  0.00    +0.000 C 
ATOM      5  N   UNK A   2      -7.969  -0.693 124.913  0.00  0.00    +0.000 N 
ATOM      6  C   LEU A   1      -8.062   0.136 123.840  0.00  0.00    +0.000 C 
ATOM      7  O   LEU A   1      -8.771  -0.191 122.921  0.00  0.00    +0.000 OA
ATOM      8  CA  LEU A   1      -7.212   1.446 123.963  0.00  0.00    +0.000 C 
ATOM      9  H   UNK A   2      -8.554  -1.517 124.836  0.00  0.00    +0.000 HD
ENDROOT
BRANCH   4  10
ATOM     10  C   UNK A   2      -6.765  -1.793 126.651  0.00  0.00    +0.000 C 
ATOM     11  C   UNK A   2      -5.386  -2.023 127.282  0.00  0.00    +0.000 C 
ATOM     12  C   UNK A   2      -5.789  -2.593 128.595  0.00  0.00    +0.000 A 
ATOM     13  C   UNK A   2      -4.974  -3.256 129.489  0.00  0.00    +0.000 A 
ATOM     14  C   UNK A   2      -5.550  -3.729 130.664  0.00  0.00    +0.000 A 
ATOM     15  C   UNK A   2      -6.910  -3.507 130.940  0.00  0.00    +0.000 A 
ATOM     16  C   UNK A   2      -7.714  -2.797 130.048  0.00  0.00    +0.000 A 
ATOM     17  C   UNK A   2      -7.139  -2.351 128.875  0.00  0.00    +0.000 A 
ATOM     18  C   UNK A   2      -7.780  -1.557 127.791  0.00  0.00    +0.000 C 
ENDBRANCH   4  10
BRANCH   1  19
ATOM     19  C   UNK A   0      -6.360   3.281 125.831  0.00  0.00    +0.000 C 
BRANCH  19  23
ATOM     20  C   UNK A   0      -2.535   5.777 128.169  0.00  0.00    +0.000 C 
ATOM     21  C   UNK A   0      -3.418   4.695 127.603  0.00  0.00    +0.000 A 
ATOM     22  N   UNK A   0      -4.736   4.476 127.624  0.00  0.00    +0.000 NA
ATOM     23  C   UNK A   0      -4.970   3.520 126.584  0.00  0.00    +0.000 A 
ATOM     24  C   UNK A   0      -3.719   3.032 126.254  0.00  0.00    +0.000 A 
ATOM     25  O   UNK A   0      -2.755   3.817 126.799  0.00  0.00    +0.000 OA
ENDBRANCH  19  23
BRANCH  19  26
ATOM     26  C   UNK A   0      -7.523   3.717 126.783  0.00  0.00    +0.000 C 
ATOM     27  O   UNK A   0      -8.492   4.375 126.406  0.00  0.00    +0.000 OA
ATOM     28  N   UNK A   0      -7.390   3.409 128.121  0.00  0.00    +0.000 N 
ATOM     29  H   UNK A   0      -6.493   3.033 128.441  0.00  0.00    +0.000 HD
BRANCH  28  30
ATOM     30  C   UNK A   0      -8.289   3.989 129.101  0.00  0.00    +0.000 C 
ATOM     31  C   UNK A   0      -9.087   2.878 129.774  0.00  0.00    +0.000 C 
ATOM     32  C   UNK A   0      -7.519   4.789 130.143  0.00  0.00    +0.000 C 
ENDBRANCH  28  30
ENDBRANCH  19  26
ENDBRANCH   1  19
BRANCH   8  33
ATOM     33  CB  LEU A   1      -8.144   2.520 123.469  0.00  0.00    +0.000 C 
BRANCH  33  34
ATOM     34  CG  LEU A   1      -7.742   3.484 122.357  0.00  0.00    +0.000 C 
ATOM     35  CD1 LEU A   1      -6.371   3.090 121.771  0.00  0.00    +0.000 C 
ATOM     36  CD2 LEU A   1      -8.682   3.424 121.191  0.00  0.00    +0.000 C 
ENDBRANCH  33  34
ENDBRANCH   8  33
TORSDOF 7
ENDMDL
MODEL 8
REMARK VINA RESULT:      -7.5      2.817      7.781
REMARK  Name = CHEMBL401910
REMARK  12 active torsions:
REMARK  status: ('A' for Active; 'I' for Inactive)
REMARK    1  A    between atoms: C_1  and  C_2
REMARK    2  A    between atoms: C_4  and  C_5
REMARK    3  A    between atoms: C_5  and  C_6
REMARK    4  A    between atoms: C_5  and  N_12
REMARK    5  A    between atoms: N_8  and  C_9
REMARK    6  A    between atoms: C_9  and  C_10
REMARK    7  A    between atoms: C_9  and  C_11
REMARK    8  A    between atoms: C_15  and  C_16
REMARK    9  A    between atoms: CA_28  and  CB_29
REMARK   10  A    between atoms: CB_29  and  CG_30
REMARK   11  A    between atoms: CG_30  and  CD1_31
REMARK   12  A    between atoms: CG_30  and  CD2_32
REMARK                            x       y       z     vdW  Elec       q    Type
REMARK                         _______ _______ _______ _____ _____    ______ ____
ROOT
ATOM      1  N   LEU A   1      -7.161  -0.411 127.011  0.00  0.00    +0.000 N 
ATOM      2  C   UNK A   2      -6.584  -0.713 128.253  0.00  0.00    +0.000 C 
ATOM      3  O   UNK A   2      -6.153   0.164 128.996  0.00  0.00    +0.000 OA
ATOM      4  C   UNK A   2      -6.405  -2.232 128.566  0.00  0.00    +0.000 C 
ATOM      5  N   UNK A   2      -7.638  -2.892 128.276  0.00  0.00    +0.000 N 
ATOM      6  C   LEU A   1      -8.060  -2.866 126.984  0.00  0.00    +0.000 C 
ATOM      7  O   LEU A   1      -8.724  -3.788 126.577  0.00  0.00    +0.000 OA
ATOM      8  CA  LEU A   1      -7.616  -1.593 126.187  0.00  0.00    +0.000 C 
ATOM      9  H   UNK A   2      -7.965  -3.702 128.789  0.00  0.00    +0.000 HD
ENDROOT
BRANCH   4  10
ATOM     10  C   UNK A   2      -6.020  -2.543 129.990  0.00  0.00    +0.000 C 
ATOM     11  C   UNK A   2      -7.207  -2.387 130.947  0.00  0.00    +0.000 C 
ATOM     12  C   UNK A   2      -6.807  -3.335 132.021  0.00  0.00    +0.000 A 
ATOM     13  C   UNK A   2      -7.345  -3.418 133.288  0.00  0.00    +0.000 A 
ATOM     14  C   UNK A   2      -6.818  -4.370 134.155  0.00  0.00    +0.000 A 
ATOM     15  C   UNK A   2      -5.794  -5.237 133.737  0.00  0.00    +0.000 A 
ATOM     16  C   UNK A   2      -5.287  -5.172 132.439  0.00  0.00    +0.000 A 
ATOM     17  C   UNK A   2      -5.802  -4.210 131.593  0.00  0.00    +0.000 A 
ATOM     18  C   UNK A   2      -5.444  -3.964 130.168  0.00  0.00    +0.000 C 
ENDBRANCH   4  10
BRANCH   1  19
ATOM     19  C   UNK A   0      -7.167   1.103 126.529  0.00  0.00    +0.000 C 
BRANCH  19  23
ATOM     20  C   UNK A   0      -2.573   3.298 127.159  0.00  0.00    +0.000 C 
ATOM     21  C   UNK A   0      -3.814   2.701 126.549  0.00  0.00    +0.000 A 
ATOM     22  N   UNK A   0      -4.530   1.602 126.805  0.00  0.00    +0.000 NA
ATOM     23  C   UNK A   0      -5.787   1.817 126.154  0.00  0.00    +0.000 A 
ATOM     24  C   UNK A   0      -5.578   2.894 125.312  0.00  0.00    +0.000 A 
ATOM     25  O   UNK A   0      -4.406   3.505 125.622  0.00  0.00    +0.000 OA
ENDBRANCH  19  23
BRANCH  19  26
ATOM     26  C   UNK A   0      -7.835   1.895 127.701  0.00  0.00    +0.000 C 
ATOM     27  O   UNK A   0      -9.045   1.874 127.926  0.00  0.00    +0.000 OA
ATOM     28  N   UNK A   0      -7.018   2.714 128.452  0.00  0.00    +0.000 N 
ATOM     29  H   UNK A   0      -6.058   2.863 128.129  0.00  0.00    +0.000 HD
BRANCH  28  30
ATOM     30  C   UNK A   0      -7.591   3.666 129.386  0.00  0.00    +0.000 C 
ATOM     31  C   UNK A   0      -7.844   2.975 130.720  0.00  0.00    +0.000 C 
ATOM     32  C   UNK A   0      -6.671   4.864 129.579  0.00  0.00    +0.000 C 
ENDBRANCH  28  30
ENDBRANCH  19  26
ENDBRANCH   1  19
BRANCH   8  33
ATOM     33  CB  LEU A   1      -8.858  -1.196 125.433  0.00  0.00    +0.000 C 
BRANCH  33  34
ATOM     34  CG  LEU A   1      -8.908  -1.195 123.908  0.00  0.00    +0.000 C 
ATOM     35  CD1 LEU A   1      -7.531  -0.819 123.325  0.00  0.00    +0.000 C 
ATOM     36  CD2 LEU A   1      -9.193  -2.559 123.353  0.00  0.00    +0.000 C 
ENDBRANCH  33  34
ENDBRANCH   8  33
TORSDOF 7
ENDMDL
MODEL 9
REMARK VINA RESULT:      -7.5      3.587      4.549
REMARK  Name = CHEMBL401910
REMARK  12 active torsions:
REMARK  status: ('A' for Active; 'I' for Inactive)
REMARK    1  A    between atoms: C_1  and  C_2
REMARK    2  A    between atoms: C_4  and  C_5
REMARK    3  A    between atoms: C_5  and  C_6
REMARK    4  A    between atoms: C_5  and  N_12
REMARK    5  A    between atoms: N_8  and  C_9
REMARK    6  A    between atoms: C_9  and  C_10
REMARK    7  A    between atoms: C_9  and  C_11
REMARK    8  A    between atoms: C_15  and  C_16
REMARK    9  A    between atoms: CA_28  and  CB_29
REMARK   10  A    between atoms: CB_29  and  CG_30
REMARK   11  A    between atoms: CG_30  and  CD1_31
REMARK   12  A    between atoms: CG_30  and  CD2_32
REMARK                            x       y       z     vdW  Elec       q    Type
REMARK                         _______ _______ _______ _____ _____    ______ ____
ROOT
ATOM      1  N   LEU A   1      -7.061  -1.245 130.900  0.00  0.00    +0.000 N 
ATOM      2  C   UNK A   2      -7.329  -0.814 129.592  0.00  0.00    +0.000 C 
ATOM      3  O   UNK A   2      -7.351   0.378 129.298  0.00  0.00    +0.000 OA
ATOM      4  C   UNK A   2      -7.725  -1.930 128.577  0.00  0.00    +0.000 C 
ATOM      5  N   UNK A   2      -6.780  -2.995 128.699  0.00  0.00    +0.000 N 
ATOM      6  C   LEU A   1      -6.728  -3.637 129.896  0.00  0.00    +0.000 C 
ATOM      7  O   LEU A   1      -6.404  -4.799 129.912  0.00  0.00    +0.000 OA
ATOM      8  CA  LEU A   1      -7.099  -2.739 131.124  0.00  0.00    +0.000 C 
ATOM      9  H   UNK A   2      -6.499  -3.577 127.919  0.00  0.00    +0.000 HD
ENDROOT
BRANCH   4  10
ATOM     10  C   UNK A   2      -7.765  -1.490 127.136  0.00  0.00    +0.000 C 
ATOM     11  C   UNK A   2      -6.396  -1.632 126.459  0.00  0.00    +0.000 C 
ATOM     12  C   UNK A   2      -6.818  -1.809 125.044  0.00  0.00    +0.000 A 
ATOM     13  C   UNK A   2      -6.016  -1.708 123.927  0.00  0.00    +0.000 A 
ATOM     14  C   UNK A   2      -6.610  -1.895 122.683  0.00  0.00    +0.000 A 
ATOM     15  C   UNK A   2      -7.975  -2.210 122.577  0.00  0.00    +0.000 A 
ATOM     16  C   UNK A   2      -8.767  -2.353 123.716  0.00  0.00    +0.000 A 
ATOM     17  C   UNK A   2      -8.174  -2.144 124.944  0.00  0.00    +0.000 A 
ATOM     18  C   UNK A   2      -8.800  -2.263 126.291  0.00  0.00    +0.000 C 
ENDBRANCH   4  10
BRANCH   1  19
ATOM     19  C   UNK A   0      -6.873  -0.150 132.034  0.00  0.00    +0.000 C 
BRANCH  19  23
ATOM     20  C   UNK A   0      -9.271   3.958 133.959  0.00  0.00    +0.000 C 
ATOM     21  C   UNK A   0      -8.840   2.831 133.056  0.00  0.00    +0.000 A 
ATOM     22  N   UNK A   0      -7.650   2.351 132.685  0.00  0.00    +0.000 NA
ATOM     23  C   UNK A   0      -7.923   1.051 132.152  0.00  0.00    +0.000 A 
ATOM     24  C   UNK A   0      -9.293   1.015 131.974  0.00  0.00    +0.000 A 
ATOM     25  O   UNK A   0      -9.874   2.059 132.619  0.00  0.00    +0.000 OA
ENDBRANCH  19  23
BRANCH  19  26
ATOM     26  C   UNK A   0      -5.453   0.454 131.780  0.00  0.00    +0.000 C 
ATOM     27  O   UNK A   0      -4.426  -0.007 132.276  0.00  0.00    +0.000 OA
ATOM     28  N   UNK A   0      -5.386   1.608 131.028  0.00  0.00    +0.000 N 
ATOM     29  H   UNK A   0      -6.263   2.078 130.787  0.00  0.00    +0.000 HD
BRANCH  28  30
ATOM     30  C   UNK A   0      -4.150   2.366 130.955  0.00  0.00    +0.000 C 
ATOM     31  C   UNK A   0      -3.979   2.919 129.545  0.00  0.00    +0.000 C 
ATOM     32  C   UNK A   0      -4.144   3.501 131.969  0.00  0.00    +0.000 C 
ENDBRANCH  28  30
ENDBRANCH  19  26
ENDBRANCH   1  19
BRANCH   8  33
ATOM     33  CB  LEU A   1      -6.054  -3.092 132.150  0.00  0.00    +0.000 C 
BRANCH  33  34
ATOM     34  CG  LEU A   1      -6.405  -3.846 133.429  0.00  0.00    +0.000 C 
ATOM     35  CD1 LEU A   1      -5.648  -5.187 133.489  0.00  0.00    +0.000 C 
ATOM     36  CD2 LEU A   1      -5.964  -3.107 134.657  0.00  0.00    +0.000 C 
ENDBRANCH  33  34
ENDBRANCH   8  33
TORSDOF 7
ENDMDL
