MODEL 1
REMARK VINA RESULT:     -11.3      0.000      0.000
REMARK  Name = CHEMBL281081
REMARK  7 active torsions:
REMARK  status: ('A' for Active; 'I' for Inactive)
REMARK    1  A    between atoms: C_2  and  C_3
REMARK    2  A    between atoms: C_3  and  N_4
REMARK    3  A    between atoms: C_6  and  C_7
REMARK    4  A    between atoms: N_15  and  C_16
REMARK    5  A    between atoms: C_16  and  C_17
REMARK    6  A    between atoms: C_22  and  C_23
REMARK    7  A    between atoms: C_28  and  N_29
REMARK                            x       y       z     vdW  Elec       q    Type
REMARK                         _______ _______ _______ _____ _____    ______ ____
ROOT
ATOM      1  C   UNL     1      -7.320  -2.462 126.477  0.00  0.00    +0.000 A 
ATOM      2  N   UNL     1      -7.981  -2.266 127.609  0.00  0.00    +0.000 NA
ATOM      3  C   UNL     1      -7.532  -1.070 128.122  0.00  0.00    +0.000 A 
ATOM      4  C   UNL     1      -7.844   0.268 127.781  0.00  0.00    +0.000 A 
ATOM      5  C   UNL     1      -7.039   1.346 128.268  0.00  0.00    +0.000 A 
ATOM      6  C   UNL     1      -6.074   1.172 129.279  0.00  0.00    +0.000 A 
ATOM      7  C   UNL     1      -5.744  -0.167 129.536  0.00  0.00    +0.000 A 
ATOM      8  C   UNL     1      -6.225  -1.198 128.606  0.00  0.00    +0.000 A 
ATOM      9  S   UNL     1      -5.745  -1.549 126.615  0.00  0.00    +0.000 S 
ENDROOT
BRANCH   6  10
ATOM     10  C   UNL     1      -5.604   2.416 130.064  0.00  0.00    +0.000 C 
ATOM     11  O   UNL     1      -4.381   2.574 130.160  0.00  0.00    +0.000 OA
ATOM     12  N   UNL     1      -6.485   3.430 130.535  0.00  0.00    +0.000 N 
ATOM     13  C   UNL     1      -6.234   4.820 130.127  0.00  0.00    +0.000 C 
ATOM     14  C   UNL     1      -6.247   5.834 131.260  0.00  0.00    +0.000 C 
ATOM     15  C   UNL     1      -7.891   5.977 131.838  0.00  0.00    +0.000 C 
ATOM     16  C   UNL     1      -7.774   4.350 132.480  0.00  0.00    +0.000 C 
ATOM     17  C   UNL     1      -7.660   3.254 131.400  0.00  0.00    +0.000 C 
BRANCH  15  18
ATOM     18  N   UNL     1      -9.011   7.066 130.814  0.00  0.00    +0.000 N 
ATOM     19  C   UNL     1      -9.990   6.498 131.730  0.00  0.00    +0.000 C 
ATOM     20  O   UNL     1      -9.981   6.462 132.988  0.00  0.00    +0.000 OA
ATOM     21  O   UNL     1     -10.945   5.771 131.180  0.00  0.00    +0.000 OA
ATOM     22  C   UNL     1     -11.897   6.768 131.150  0.00  0.00    +0.000 C 
ATOM     23  C   UNL     1     -11.596   6.997 129.748  0.00  0.00    +0.000 A 
ATOM     24  C   UNL     1     -12.638   6.605 128.786  0.00  0.00    +0.000 A 
ATOM     25  C   UNL     1     -12.742   7.022 127.482  0.00  0.00    +0.000 A 
ATOM     26  C   UNL     1     -11.939   8.111 127.281  0.00  0.00    +0.000 A 
ATOM     27  C   UNL     1     -10.749   8.423 128.330  0.00  0.00    +0.000 A 
ATOM     28  C   UNL     1     -10.298   7.485 129.526  0.00  0.00    +0.000 A 
ENDBRANCH  15  18
ENDBRANCH   6  10
BRANCH   1  29
ATOM     29  C   UNL     1      -7.788  -3.547 125.441  0.00  0.00    +0.000 C 
BRANCH  29  32
ATOM     30  O   UNL     1      -8.279  -2.293 122.050  0.00  0.00    +0.000 OA
ATOM     31  C   UNL     1      -8.381  -2.306 123.280  0.00  0.00    +0.000 C 
ATOM     32  N   UNL     1      -7.787  -3.357 123.986  0.00  0.00    +0.000 N 
ATOM     33  H   UNL     1      -7.330  -4.023 123.374  0.00  0.00    +0.000 HD
BRANCH  31  34
ATOM     34  C   UNL     1      -9.123  -1.170 124.038  0.00  0.00    +0.000 C 
BRANCH  34  35
ATOM     35  N   UNL     1      -8.707   0.194 123.634  0.00  0.00    +0.000 N 
ATOM     36  C   UNL     1      -7.564   0.768 124.182  0.00  0.00    +0.000 A 
ATOM     37  C   UNL     1      -7.330   2.093 124.107  0.00  0.00    +0.000 A 
ATOM     38  C   UNL     1      -8.196   2.910 123.276  0.00  0.00    +0.000 A 
ATOM     39  C   UNL     1      -9.207   2.355 122.597  0.00  0.00    +0.000 A 
ATOM     40  C   UNL     1      -9.607   0.947 122.877  0.00  0.00    +0.000 A 
ATOM     41  O   UNL     1     -10.696   0.544 122.479  0.00  0.00    +0.000 OA
BRANCH  37  42
ATOM     42  C   UNL     1      -6.210   2.782 124.832  0.00  0.00    +0.000 C 
ATOM     43  F   UNL     1      -6.659   3.617 125.802  0.00  0.00    +0.000 F 
ATOM     44  F   UNL     1      -5.387   1.885 125.436  0.00  0.00    +0.000 F 
ATOM     45  F   UNL     1      -5.433   3.521 123.999  0.00  0.00    +0.000 F 
ENDBRANCH  37  42
ENDBRANCH  34  35
ENDBRANCH  31  34
ENDBRANCH  29  32
ENDBRANCH   1  29
TORSDOF 7
ENDMDL
MODEL 2
REMARK VINA RESULT:     -10.5      1.488      1.994
REMARK  Name = CHEMBL281081
REMARK  7 active torsions:
REMARK  status: ('A' for Active; 'I' for Inactive)
REMARK    1  A    between atoms: C_2  and  C_3
REMARK    2  A    between atoms: C_3  and  N_4
REMARK    3  A    between atoms: C_6  and  C_7
REMARK    4  A    between atoms: N_15  and  C_16
REMARK    5  A    between atoms: C_16  and  C_17
REMARK    6  A    between atoms: C_22  and  C_23
REMARK    7  A    between atoms: C_28  and  N_29
REMARK                            x       y       z     vdW  Elec       q    Type
REMARK                         _______ _______ _______ _____ _____    ______ ____
ROOT
ATOM      1  C   UNL     1      -7.319  -2.764 126.906  0.00  0.00    +0.000 A 
ATOM      2  N   UNL     1      -8.280  -2.409 127.746  0.00  0.00    +0.000 NA
ATOM      3  C   UNL     1      -7.849  -1.260 128.370  0.00  0.00    +0.000 A 
ATOM      4  C   UNL     1      -7.821   0.086 127.932  0.00  0.00    +0.000 A 
ATOM      5  C   UNL     1      -7.067   1.066 128.653  0.00  0.00    +0.000 A 
ATOM      6  C   UNL     1      -6.532   0.819 129.931  0.00  0.00    +0.000 A 
ATOM      7  C   UNL     1      -6.515  -0.535 130.296  0.00  0.00    +0.000 A 
ATOM      8  C   UNL     1      -6.813  -1.542 129.268  0.00  0.00    +0.000 A 
ATOM      9  S   UNL     1      -5.758  -2.076 127.558  0.00  0.00    +0.000 S 
ENDROOT
BRANCH   6  10
ATOM     10  C   UNL     1      -6.164   2.028 130.818  0.00  0.00    +0.000 C 
ATOM     11  O   UNL     1      -4.983   2.106 131.177  0.00  0.00    +0.000 OA
ATOM     12  N   UNL     1      -7.059   3.097 131.104  0.00  0.00    +0.000 N 
ATOM     13  C   UNL     1      -6.639   4.468 130.780  0.00  0.00    +0.000 C 
ATOM     14  C   UNL     1      -6.832   5.479 131.899  0.00  0.00    +0.000 C 
ATOM     15  C   UNL     1      -8.549   5.729 132.113  0.00  0.00    +0.000 C 
ATOM     16  C   UNL     1      -8.677   4.097 132.740  0.00  0.00    +0.000 C 
ATOM     17  C   UNL     1      -8.402   2.998 131.693  0.00  0.00    +0.000 C 
BRANCH  15  18
ATOM     18  N   UNL     1      -9.350   6.890 130.888  0.00  0.00    +0.000 N 
ATOM     19  C   UNL     1     -10.514   6.534 131.689  0.00  0.00    +0.000 C 
ATOM     20  O   UNL     1     -10.673   6.587 132.936  0.00  0.00    +0.000 OA
ATOM     21  O   UNL     1     -11.488   5.913 131.050  0.00  0.00    +0.000 OA
ATOM     22  C   UNL     1     -12.267   7.029 130.837  0.00  0.00    +0.000 C 
ATOM     23  C   UNL     1     -11.757   7.113 129.480  0.00  0.00    +0.000 A 
ATOM     24  C   UNL     1     -12.713   6.805 128.405  0.00  0.00    +0.000 A 
ATOM     25  C   UNL     1     -12.583   7.138 127.079  0.00  0.00    +0.000 A 
ATOM     26  C   UNL     1     -11.606   8.085 126.935  0.00  0.00    +0.000 A 
ATOM     27  C   UNL     1     -10.529   8.299 128.121  0.00  0.00    +0.000 A 
ATOM     28  C   UNL     1     -10.382   7.394 129.415  0.00  0.00    +0.000 A 
ENDBRANCH  15  18
ENDBRANCH   6  10
BRANCH   1  29
ATOM     29  C   UNL     1      -7.577  -3.832 125.782  0.00  0.00    +0.000 C 
BRANCH  29  32
ATOM     30  O   UNL     1     -10.119  -3.473 123.190  0.00  0.00    +0.000 OA
ATOM     31  C   UNL     1      -9.028  -3.299 123.739  0.00  0.00    +0.000 C 
ATOM     32  N   UNL     1      -8.802  -3.907 124.978  0.00  0.00    +0.000 N 
ATOM     33  H   UNL     1      -9.604  -4.436 125.299  0.00  0.00    +0.000 HD
BRANCH  31  34
ATOM     34  C   UNL     1      -7.914  -2.451 123.065  0.00  0.00    +0.000 C 
BRANCH  34  35
ATOM     35  N   UNL     1      -7.661  -1.151 123.732  0.00  0.00    +0.000 N 
ATOM     36  C   UNL     1      -8.628  -0.151 123.705  0.00  0.00    +0.000 A 
ATOM     37  C   UNL     1      -8.331   1.130 123.997  0.00  0.00    +0.000 A 
ATOM     38  C   UNL     1      -7.017   1.440 124.530  0.00  0.00    +0.000 A 
ATOM     39  C   UNL     1      -6.118   0.468 124.728  0.00  0.00    +0.000 A 
ATOM     40  C   UNL     1      -6.362  -0.895 124.177  0.00  0.00    +0.000 A 
ATOM     41  O   UNL     1      -5.427  -1.687 124.102  0.00  0.00    +0.000 OA
BRANCH  37  42
ATOM     42  C   UNL     1      -9.292   2.269 123.811  0.00  0.00    +0.000 C 
ATOM     43  F   UNL     1     -10.572   1.916 124.087  0.00  0.00    +0.000 F 
ATOM     44  F   UNL     1      -8.988   3.310 124.630  0.00  0.00    +0.000 F 
ATOM     45  F   UNL     1      -9.278   2.755 122.544  0.00  0.00    +0.000 F 
ENDBRANCH  37  42
ENDBRANCH  34  35
ENDBRANCH  31  34
ENDBRANCH  29  32
ENDBRANCH   1  29
TORSDOF 7
ENDMDL
MODEL 3
REMARK VINA RESULT:     -10.2      4.218     10.596
REMARK  Name = CHEMBL281081
REMARK  7 active torsions:
REMARK  status: ('A' for Active; 'I' for Inactive)
REMARK    1  A    between atoms: C_2  and  C_3
REMARK    2  A    between atoms: C_3  and  N_4
REMARK    3  A    between atoms: C_6  and  C_7
REMARK    4  A    between atoms: N_15  and  C_16
REMARK    5  A    between atoms: C_16  and  C_17
REMARK    6  A    between atoms: C_22  and  C_23
REMARK    7  A    between atoms: C_28  and  N_29
REMARK                            x       y       z     vdW  Elec       q    Type
REMARK                         _______ _______ _______ _____ _____    ______ ____
ROOT
ATOM      1  C   UNL     1      -2.883   5.342 131.046  0.00  0.00    +0.000 A 
ATOM      2  N   UNL     1      -3.085   4.128 130.553  0.00  0.00    +0.000 NA
ATOM      3  C   UNL     1      -3.682   4.301 129.324  0.00  0.00    +0.000 A 
ATOM      4  C   UNL     1      -3.142   4.654 128.065  0.00  0.00    +0.000 A 
ATOM      5  C   UNL     1      -4.003   5.045 126.992  0.00  0.00    +0.000 A 
ATOM      6  C   UNL     1      -5.400   4.869 127.040  0.00  0.00    +0.000 A 
ATOM      7  C   UNL     1      -5.900   4.589 128.320  0.00  0.00    +0.000 A 
ATOM      8  C   UNL     1      -5.002   4.742 129.472  0.00  0.00    +0.000 A 
ATOM      9  S   UNL     1      -4.122   6.442 130.280  0.00  0.00    +0.000 S 
ENDROOT
BRANCH   6  10
ATOM     10  C   UNL     1      -6.184   4.864 125.710  0.00  0.00    +0.000 C 
ATOM     11  O   UNL     1      -6.179   5.919 125.066  0.00  0.00    +0.000 OA
ATOM     12  N   UNL     1      -6.765   3.695 125.142  0.00  0.00    +0.000 N 
ATOM     13  C   UNL     1      -6.385   3.319 123.773  0.00  0.00    +0.000 C 
ATOM     14  C   UNL     1      -7.550   3.000 122.848  0.00  0.00    +0.000 C 
ATOM     15  C   UNL     1      -8.274   1.502 123.387  0.00  0.00    +0.000 C 
ATOM     16  C   UNL     1      -8.846   2.331 124.822  0.00  0.00    +0.000 C 
ATOM     17  C   UNL     1      -7.723   2.779 125.779  0.00  0.00    +0.000 C 
BRANCH  15  18
ATOM     18  N   UNL     1      -7.390  -0.054 122.854  0.00  0.00    +0.000 N 
ATOM     19  C   UNL     1      -8.673  -0.621 123.246  0.00  0.00    +0.000 C 
ATOM     20  O   UNL     1      -9.834  -0.297 122.884  0.00  0.00    +0.000 OA
ATOM     21  O   UNL     1      -8.644  -1.486 124.243  0.00  0.00    +0.000 OA
ATOM     22  C   UNL     1      -8.646  -2.621 123.460  0.00  0.00    +0.000 C 
ATOM     23  C   UNL     1      -7.209  -2.733 123.640  0.00  0.00    +0.000 A 
ATOM     24  C   UNL     1      -6.742  -3.858 124.465  0.00  0.00    +0.000 A 
ATOM     25  C   UNL     1      -5.469  -4.371 124.498  0.00  0.00    +0.000 A 
ATOM     26  C   UNL     1      -4.761  -3.916 123.419  0.00  0.00    +0.000 A 
ATOM     27  C   UNL     1      -5.284  -2.612 122.620  0.00  0.00    +0.000 A 
ATOM     28  C   UNL     1      -6.488  -1.678 123.057  0.00  0.00    +0.000 A 
ENDBRANCH  15  18
ENDBRANCH   6  10
BRANCH   1  29
ATOM     29  C   UNL     1      -1.931   5.570 132.275  0.00  0.00    +0.000 C 
BRANCH  29  32
ATOM     30  O   UNL     1      -3.270   6.990 135.358  0.00  0.00    +0.000 OA
ATOM     31  C   UNL     1      -3.126   6.150 134.466  0.00  0.00    +0.000 C 
ATOM     32  N   UNL     1      -2.246   6.435 133.417  0.00  0.00    +0.000 N 
ATOM     33  H   UNL     1      -1.818   7.349 133.512  0.00  0.00    +0.000 HD
BRANCH  31  34
ATOM     34  C   UNL     1      -3.875   4.789 134.513  0.00  0.00    +0.000 C 
BRANCH  34  35
ATOM     35  N   UNL     1      -5.349   4.910 134.399  0.00  0.00    +0.000 N 
ATOM     36  C   UNL     1      -5.931   5.246 133.181  0.00  0.00    +0.000 A 
ATOM     37  C   UNL     1      -7.202   5.685 133.099  0.00  0.00    +0.000 A 
ATOM     38  C   UNL     1      -8.039   5.629 134.284  0.00  0.00    +0.000 A 
ATOM     39  C   UNL     1      -7.554   5.148 135.436  0.00  0.00    +0.000 A 
ATOM     40  C   UNL     1      -6.092   4.899 135.582  0.00  0.00    +0.000 A 
ATOM     41  O   UNL     1      -5.620   4.746 136.704  0.00  0.00    +0.000 OA
BRANCH  37  42
ATOM     42  C   UNL     1      -7.816   6.226 131.840  0.00  0.00    +0.000 C 
ATOM     43  F   UNL     1      -7.129   7.286 131.345  0.00  0.00    +0.000 F 
ATOM     44  F   UNL     1      -7.844   5.285 130.860  0.00  0.00    +0.000 F 
ATOM     45  F   UNL     1      -9.097   6.634 132.024  0.00  0.00    +0.000 F 
ENDBRANCH  37  42
ENDBRANCH  34  35
ENDBRANCH  31  34
ENDBRANCH  29  32
ENDBRANCH   1  29
TORSDOF 7
ENDMDL
MODEL 4
REMARK VINA RESULT:     -10.1      5.301      7.425
REMARK  Name = CHEMBL281081
REMARK  7 active torsions:
REMARK  status: ('A' for Active; 'I' for Inactive)
REMARK    1  A    between atoms: C_2  and  C_3
REMARK    2  A    between atoms: C_3  and  N_4
REMARK    3  A    between atoms: C_6  and  C_7
REMARK    4  A    between atoms: N_15  and  C_16
REMARK    5  A    between atoms: C_16  and  C_17
REMARK    6  A    between atoms: C_22  and  C_23
REMARK    7  A    between atoms: C_28  and  N_29
REMARK                            x       y       z     vdW  Elec       q    Type
REMARK                         _______ _______ _______ _____ _____    ______ ____
ROOT
ATOM      1  C   UNL     1      -4.441   5.245 128.056  0.00  0.00    +0.000 A 
ATOM      2  N   UNL     1      -3.981   6.481 127.924  0.00  0.00    +0.000 NA
ATOM      3  C   UNL     1      -3.315   6.776 129.093  0.00  0.00    +0.000 A 
ATOM      4  C   UNL     1      -2.026   6.412 129.550  0.00  0.00    +0.000 A 
ATOM      5  C   UNL     1      -1.662   6.607 130.920  0.00  0.00    +0.000 A 
ATOM      6  C   UNL     1      -2.442   7.374 131.808  0.00  0.00    +0.000 A 
ATOM      7  C   UNL     1      -3.735   7.653 131.344  0.00  0.00    +0.000 A 
ATOM      8  C   UNL     1      -4.218   6.948 130.148  0.00  0.00    +0.000 A 
ATOM      9  S   UNL     1      -4.633   4.935 129.845  0.00  0.00    +0.000 S 
ENDROOT
BRANCH   6  10
ATOM     10  C   UNL     1      -1.770   7.924 133.085  0.00  0.00    +0.000 C 
ATOM     11  O   UNL     1      -0.737   8.583 132.921  0.00  0.00    +0.000 OA
ATOM     12  N   UNL     1      -2.351   7.836 134.381  0.00  0.00    +0.000 N 
ATOM     13  C   UNL     1      -2.549   9.076 135.146  0.00  0.00    +0.000 C 
ATOM     14  C   UNL     1      -2.048   9.031 136.581  0.00  0.00    +0.000 C 
ATOM     15  C   UNL     1      -3.084   7.949 137.482  0.00  0.00    +0.000 C 
ATOM     16  C   UNL     1      -2.425   6.606 136.566  0.00  0.00    +0.000 C 
ATOM     17  C   UNL     1      -2.803   6.619 135.071  0.00  0.00    +0.000 C 
BRANCH  15  18
ATOM     18  N   UNL     1      -4.711   8.675 138.044  0.00  0.00    +0.000 N 
ATOM     19  C   UNL     1      -4.809   7.353 138.648  0.00  0.00    +0.000 C 
ATOM     20  O   UNL     1      -3.995   6.754 139.397  0.00  0.00    +0.000 OA
ATOM     21  O   UNL     1      -5.808   6.598 138.229  0.00  0.00    +0.000 OA
ATOM     22  C   UNL     1      -6.662   6.882 139.272  0.00  0.00    +0.000 C 
ATOM     23  C   UNL     1      -7.353   7.842 138.430  0.00  0.00    +0.000 A 
ATOM     24  C   UNL     1      -8.718   7.480 138.016  0.00  0.00    +0.000 A 
ATOM     25  C   UNL     1      -9.675   8.336 137.530  0.00  0.00    +0.000 A 
ATOM     26  C   UNL     1      -9.312   9.630 137.788  0.00  0.00    +0.000 A 
ATOM     27  C   UNL     1      -7.770   9.964 138.141  0.00  0.00    +0.000 A 
ATOM     28  C   UNL     1      -6.559   8.943 138.069  0.00  0.00    +0.000 A 
ENDBRANCH  15  18
ENDBRANCH   6  10
BRANCH   1  29
ATOM     29  C   UNL     1      -4.967   4.439 126.814  0.00  0.00    +0.000 C 
BRANCH  29  32
ATOM     30  O   UNL     1      -5.231   0.901 125.958  0.00  0.00    +0.000 OA
ATOM     31  C   UNL     1      -5.617   2.064 126.104  0.00  0.00    +0.000 C 
ATOM     32  N   UNL     1      -4.708   3.013 126.583  0.00  0.00    +0.000 N 
ATOM     33  H   UNL     1      -3.797   2.611 126.774  0.00  0.00    +0.000 HD
BRANCH  31  34
ATOM     34  C   UNL     1      -7.068   2.482 125.737  0.00  0.00    +0.000 C 
BRANCH  34  35
ATOM     35  N   UNL     1      -7.302   2.628 124.280  0.00  0.00    +0.000 N 
ATOM     36  C   UNL     1      -6.268   3.032 123.442  0.00  0.00    +0.000 A 
ATOM     37  C   UNL     1      -6.502   3.491 122.197  0.00  0.00    +0.000 A 
ATOM     38  C   UNL     1      -7.844   3.386 121.654  0.00  0.00    +0.000 A 
ATOM     39  C   UNL     1      -8.830   2.842 122.379  0.00  0.00    +0.000 A 
ATOM     40  C   UNL     1      -8.623   2.567 123.828  0.00  0.00    +0.000 A 
ATOM     41  O   UNL     1      -9.597   2.351 124.543  0.00  0.00    +0.000 OA
BRANCH  37  42
ATOM     42  C   UNL     1      -5.445   4.103 121.324  0.00  0.00    +0.000 C 
ATOM     43  F   UNL     1      -5.972   4.839 120.314  0.00  0.00    +0.000 F 
ATOM     44  F   UNL     1      -4.638   4.933 122.035  0.00  0.00    +0.000 F 
ATOM     45  F   UNL     1      -4.638   3.169 120.757  0.00  0.00    +0.000 F 
ENDBRANCH  37  42
ENDBRANCH  34  35
ENDBRANCH  31  34
ENDBRANCH  29  32
ENDBRANCH   1  29
TORSDOF 7
ENDMDL
MODEL 5
REMARK VINA RESULT:     -10.0      4.317      6.026
REMARK  Name = CHEMBL281081
REMARK  7 active torsions:
REMARK  status: ('A' for Active; 'I' for Inactive)
REMARK    1  A    between atoms: C_2  and  C_3
REMARK    2  A    between atoms: C_3  and  N_4
REMARK    3  A    between atoms: C_6  and  C_7
REMARK    4  A    between atoms: N_15  and  C_16
REMARK    5  A    between atoms: C_16  and  C_17
REMARK    6  A    between atoms: C_22  and  C_23
REMARK    7  A    between atoms: C_28  and  N_29
REMARK                            x       y       z     vdW  Elec       q    Type
REMARK                         _______ _______ _______ _____ _____    ______ ____
ROOT
ATOM      1  C   UNL     1      -8.869  -2.132 124.291  0.00  0.00    +0.000 A 
ATOM      2  N   UNL     1      -9.600  -1.759 125.332  0.00  0.00    +0.000 NA
ATOM      3  C   UNL     1      -8.857  -2.050 126.454  0.00  0.00    +0.000 A 
ATOM      4  C   UNL     1      -7.768  -1.372 127.055  0.00  0.00    +0.000 A 
ATOM      5  C   UNL     1      -6.980  -2.018 128.059  0.00  0.00    +0.000 A 
ATOM      6  C   UNL     1      -7.373  -3.225 128.670  0.00  0.00    +0.000 A 
ATOM      7  C   UNL     1      -8.406  -3.897 128.002  0.00  0.00    +0.000 A 
ATOM      8  C   UNL     1      -8.796  -3.432 126.664  0.00  0.00    +0.000 A 
ATOM      9  S   UNL     1      -7.744  -3.447 124.872  0.00  0.00    +0.000 S 
ENDROOT
BRANCH   6  10
ATOM     10  C   UNL     1      -6.745  -3.595 130.031  0.00  0.00    +0.000 C 
ATOM     11  O   UNL     1      -6.326  -4.753 130.146  0.00  0.00    +0.000 OA
ATOM     12  N   UNL     1      -6.501  -2.652 131.069  0.00  0.00    +0.000 N 
ATOM     13  C   UNL     1      -5.134  -2.526 131.594  0.00  0.00    +0.000 C 
ATOM     14  C   UNL     1      -5.023  -2.555 133.110  0.00  0.00    +0.000 C 
ATOM     15  C   UNL     1      -5.726  -1.080 133.732  0.00  0.00    +0.000 C 
ATOM     16  C   UNL     1      -7.303  -1.655 133.226  0.00  0.00    +0.000 C 
ATOM     17  C   UNL     1      -7.477  -1.750 131.697  0.00  0.00    +0.000 C 
BRANCH  15  18
ATOM     18  N   UNL     1      -4.627   0.429 133.653  0.00  0.00    +0.000 N 
ATOM     19  C   UNL     1      -5.553   0.853 134.694  0.00  0.00    +0.000 C 
ATOM     20  O   UNL     1      -5.886   0.263 135.755  0.00  0.00    +0.000 OA
ATOM     21  O   UNL     1      -6.277   1.924 134.425  0.00  0.00    +0.000 OA
ATOM     22  C   UNL     1      -5.476   2.821 135.097  0.00  0.00    +0.000 C 
ATOM     23  C   UNL     1      -4.871   3.209 133.835  0.00  0.00    +0.000 A 
ATOM     24  C   UNL     1      -5.191   4.560 133.348  0.00  0.00    +0.000 A 
ATOM     25  C   UNL     1      -4.498   5.270 132.398  0.00  0.00    +0.000 A 
ATOM     26  C   UNL     1      -3.274   4.694 132.196  0.00  0.00    +0.000 A 
ATOM     27  C   UNL     1      -3.027   3.169 132.670  0.00  0.00    +0.000 A 
ATOM     28  C   UNL     1      -4.134   2.180 133.228  0.00  0.00    +0.000 A 
ENDBRANCH  15  18
ENDBRANCH   6  10
BRANCH   1  29
ATOM     29  C   UNL     1      -9.233  -1.664 122.835  0.00  0.00    +0.000 C 
BRANCH  29  32
ATOM     30  O   UNL     1      -9.839   1.919 122.513  0.00  0.00    +0.000 OA
ATOM     31  C   UNL     1      -9.259   0.897 122.890  0.00  0.00    +0.000 C 
ATOM     32  N   UNL     1      -9.777  -0.343 122.503  0.00  0.00    +0.000 N 
ATOM     33  H   UNL     1     -10.616  -0.251 121.940  0.00  0.00    +0.000 HD
BRANCH  31  34
ATOM     34  C   UNL     1      -7.966   0.975 123.748  0.00  0.00    +0.000 C 
BRANCH  34  35
ATOM     35  N   UNL     1      -7.315   2.307 123.736  0.00  0.00    +0.000 N 
ATOM     36  C   UNL     1      -6.734   2.791 122.569  0.00  0.00    +0.000 A 
ATOM     37  C   UNL     1      -5.862   3.818 122.585  0.00  0.00    +0.000 A 
ATOM     38  C   UNL     1      -5.668   4.553 123.821  0.00  0.00    +0.000 A 
ATOM     39  C   UNL     1      -6.346   4.215 124.925  0.00  0.00    +0.000 A 
ATOM     40  C   UNL     1      -7.114   2.939 124.966  0.00  0.00    +0.000 A 
ATOM     41  O   UNL     1      -7.481   2.495 126.049  0.00  0.00    +0.000 OA
BRANCH  37  42
ATOM     42  C   UNL     1      -5.075   4.260 121.384  0.00  0.00    +0.000 C 
ATOM     43  F   UNL     1      -4.495   3.219 120.735  0.00  0.00    +0.000 F 
ATOM     44  F   UNL     1      -5.869   4.892 120.479  0.00  0.00    +0.000 F 
ATOM     45  F   UNL     1      -4.085   5.130 121.706  0.00  0.00    +0.000 F 
ENDBRANCH  37  42
ENDBRANCH  34  35
ENDBRANCH  31  34
ENDBRANCH  29  32
ENDBRANCH   1  29
TORSDOF 7
ENDMDL
MODEL 6
REMARK VINA RESULT:      -9.9      4.149     10.115
REMARK  Name = CHEMBL281081
REMARK  7 active torsions:
REMARK  status: ('A' for Active; 'I' for Inactive)
REMARK    1  A    between atoms: C_2  and  C_3
REMARK    2  A    between atoms: C_3  and  N_4
REMARK    3  A    between atoms: C_6  and  C_7
REMARK    4  A    between atoms: N_15  and  C_16
REMARK    5  A    between atoms: C_16  and  C_17
REMARK    6  A    between atoms: C_22  and  C_23
REMARK    7  A    between atoms: C_28  and  N_29
REMARK                            x       y       z     vdW  Elec       q    Type
REMARK                         _______ _______ _______ _____ _____    ______ ____
ROOT
ATOM      1  C   UNL     1      -3.629   4.270 132.005  0.00  0.00    +0.000 A 
ATOM      2  N   UNL     1      -3.963   3.124 131.429  0.00  0.00    +0.000 NA
ATOM      3  C   UNL     1      -4.368   3.433 130.150  0.00  0.00    +0.000 A 
ATOM      4  C   UNL     1      -3.625   3.731 128.982  0.00  0.00    +0.000 A 
ATOM      5  C   UNL     1      -4.273   4.295 127.838  0.00  0.00    +0.000 A 
ATOM      6  C   UNL     1      -5.675   4.354 127.714  0.00  0.00    +0.000 A 
ATOM      7  C   UNL     1      -6.368   4.121 128.910  0.00  0.00    +0.000 A 
ATOM      8  C   UNL     1      -5.607   4.084 130.166  0.00  0.00    +0.000 A 
ATOM      9  S   UNL     1      -4.568   5.586 131.158  0.00  0.00    +0.000 S 
ENDROOT
BRANCH   6  10
ATOM     10  C   UNL     1      -6.279   4.523 126.303  0.00  0.00    +0.000 C 
ATOM     11  O   UNL     1      -6.132   5.630 125.772  0.00  0.00    +0.000 OA
ATOM     12  N   UNL     1      -6.845   3.453 125.555  0.00  0.00    +0.000 N 
ATOM     13  C   UNL     1      -6.313   3.178 124.212  0.00  0.00    +0.000 C 
ATOM     14  C   UNL     1      -7.364   3.024 123.124  0.00  0.00    +0.000 C 
ATOM     15  C   UNL     1      -8.233   1.536 123.419  0.00  0.00    +0.000 C 
ATOM     16  C   UNL     1      -8.939   2.267 124.847  0.00  0.00    +0.000 C 
ATOM     17  C   UNL     1      -7.927   2.550 125.975  0.00  0.00    +0.000 C 
BRANCH  15  18
ATOM     18  N   UNL     1      -7.375  -0.022 122.848  0.00  0.00    +0.000 N 
ATOM     19  C   UNL     1      -8.645  -0.586 123.285  0.00  0.00    +0.000 C 
ATOM     20  O   UNL     1      -9.817  -0.256 122.968  0.00  0.00    +0.000 OA
ATOM     21  O   UNL     1      -8.582  -1.455 124.277  0.00  0.00    +0.000 OA
ATOM     22  C   UNL     1      -8.617  -2.586 123.492  0.00  0.00    +0.000 C 
ATOM     23  C   UNL     1      -7.175  -2.704 123.617  0.00  0.00    +0.000 A 
ATOM     24  C   UNL     1      -6.682  -3.834 124.420  0.00  0.00    +0.000 A 
ATOM     25  C   UNL     1      -5.409  -4.351 124.404  0.00  0.00    +0.000 A 
ATOM     26  C   UNL     1      -4.740  -3.895 123.301  0.00  0.00    +0.000 A 
ATOM     27  C   UNL     1      -5.288  -2.586 122.526  0.00  0.00    +0.000 A 
ATOM     28  C   UNL     1      -6.472  -1.649 123.011  0.00  0.00    +0.000 A 
ENDBRANCH  15  18
ENDBRANCH   6  10
BRANCH   1  29
ATOM     29  C   UNL     1      -2.811   4.295 133.347  0.00  0.00    +0.000 C 
BRANCH  29  32
ATOM     30  O   UNL     1      -4.178   2.536 136.237  0.00  0.00    +0.000 OA
ATOM     31  C   UNL     1      -4.137   3.383 135.341  0.00  0.00    +0.000 C 
ATOM     32  N   UNL     1      -3.040   3.383 134.473  0.00  0.00    +0.000 N 
ATOM     33  H   UNL     1      -2.370   2.658 134.701  0.00  0.00    +0.000 HD
BRANCH  31  34
ATOM     34  C   UNL     1      -5.287   4.412 135.152  0.00  0.00    +0.000 C 
BRANCH  34  35
ATOM     35  N   UNL     1      -6.546   3.819 134.641  0.00  0.00    +0.000 N 
ATOM     36  C   UNL     1      -6.509   2.688 133.831  0.00  0.00    +0.000 A 
ATOM     37  C   UNL     1      -7.568   2.315 133.086  0.00  0.00    +0.000 A 
ATOM     38  C   UNL     1      -8.833   3.000 133.275  0.00  0.00    +0.000 A 
ATOM     39  C   UNL     1      -8.944   3.985 134.174  0.00  0.00    +0.000 A 
ATOM     40  C   UNL     1      -7.722   4.553 134.811  0.00  0.00    +0.000 A 
ATOM     41  O   UNL     1      -7.797   5.629 135.397  0.00  0.00    +0.000 OA
BRANCH  37  42
ATOM     42  C   UNL     1      -7.519   1.213 132.067  0.00  0.00    +0.000 C 
ATOM     43  F   UNL     1      -8.086   0.066 132.518  0.00  0.00    +0.000 F 
ATOM     44  F   UNL     1      -8.185   1.560 130.933  0.00  0.00    +0.000 F 
ATOM     45  F   UNL     1      -6.250   0.909 131.693  0.00  0.00    +0.000 F 
ENDBRANCH  37  42
ENDBRANCH  34  35
ENDBRANCH  31  34
ENDBRANCH  29  32
ENDBRANCH   1  29
TORSDOF 7
ENDMDL
MODEL 7
REMARK VINA RESULT:      -9.9      5.560      8.794
REMARK  Name = CHEMBL281081
REMARK  7 active torsions:
REMARK  status: ('A' for Active; 'I' for Inactive)
REMARK    1  A    between atoms: C_2  and  C_3
REMARK    2  A    between atoms: C_3  and  N_4
REMARK    3  A    between atoms: C_6  and  C_7
REMARK    4  A    between atoms: N_15  and  C_16
REMARK    5  A    between atoms: C_16  and  C_17
REMARK    6  A    between atoms: C_22  and  C_23
REMARK    7  A    between atoms: C_28  and  N_29
REMARK                            x       y       z     vdW  Elec       q    Type
REMARK                         _______ _______ _______ _____ _____    ______ ____
ROOT
ATOM      1  C   UNL     1      -7.411   1.507 126.428  0.00  0.00    +0.000 A 
ATOM      2  N   UNL     1      -6.097   1.520 126.254  0.00  0.00    +0.000 NA
ATOM      3  C   UNL     1      -5.595   0.467 126.986  0.00  0.00    +0.000 A 
ATOM      4  C   UNL     1      -5.554  -0.922 126.716  0.00  0.00    +0.000 A 
ATOM      5  C   UNL     1      -5.233  -1.852 127.756  0.00  0.00    +0.000 A 
ATOM      6  C   UNL     1      -4.713  -1.445 129.000  0.00  0.00    +0.000 A 
ATOM      7  C   UNL     1      -4.837  -0.072 129.255  0.00  0.00    +0.000 A 
ATOM      8  C   UNL     1      -5.676   0.734 128.358  0.00  0.00    +0.000 A 
ATOM      9  S   UNL     1      -7.728   0.693 128.031  0.00  0.00    +0.000 S 
ENDROOT
BRANCH   6  10
ATOM     10  C   UNL     1      -3.964  -2.489 129.857  0.00  0.00    +0.000 C 
ATOM     11  O   UNL     1      -2.748  -2.592 129.658  0.00  0.00    +0.000 OA
ATOM     12  N   UNL     1      -4.565  -3.205 130.930  0.00  0.00    +0.000 N 
ATOM     13  C   UNL     1      -3.941  -3.128 132.259  0.00  0.00    +0.000 C 
ATOM     14  C   UNL     1      -3.733  -4.468 132.948  0.00  0.00    +0.000 C 
ATOM     15  C   UNL     1      -5.303  -5.101 133.385  0.00  0.00    +0.000 C 
ATOM     16  C   UNL     1      -5.645  -5.341 131.682  0.00  0.00    +0.000 C 
ATOM     17  C   UNL     1      -5.779  -4.032 130.877  0.00  0.00    +0.000 C 
BRANCH  15  18
ATOM     18  N   UNL     1      -6.054  -4.387 134.939  0.00  0.00    +0.000 N 
ATOM     19  C   UNL     1      -6.035  -5.798 135.300  0.00  0.00    +0.000 C 
ATOM     20  O   UNL     1      -5.079  -6.616 135.276  0.00  0.00    +0.000 OA
ATOM     21  O   UNL     1      -7.211  -6.354 135.528  0.00  0.00    +0.000 OA
ATOM     22  C   UNL     1      -7.168  -6.242 136.901  0.00  0.00    +0.000 C 
ATOM     23  C   UNL     1      -8.011  -5.062 136.819  0.00  0.00    +0.000 A 
ATOM     24  C   UNL     1      -9.383  -5.206 137.333  0.00  0.00    +0.000 A 
ATOM     25  C   UNL     1     -10.234  -4.185 137.679  0.00  0.00    +0.000 A 
ATOM     26  C   UNL     1      -9.530  -3.019 137.800  0.00  0.00    +0.000 A 
ATOM     27  C   UNL     1      -8.067  -2.902 137.124  0.00  0.00    +0.000 A 
ATOM     28  C   UNL     1      -7.396  -3.978 136.171  0.00  0.00    +0.000 A 
ENDBRANCH  15  18
ENDBRANCH   6  10
BRANCH   1  29
ATOM     29  C   UNL     1      -8.361   2.345 125.498  0.00  0.00    +0.000 C 
BRANCH  29  32
ATOM     30  O   UNL     1     -10.552   0.452 123.278  0.00  0.00    +0.000 OA
ATOM     31  C   UNL     1      -9.483   0.813 123.778  0.00  0.00    +0.000 C 
ATOM     32  N   UNL     1      -9.513   1.791 124.777  0.00  0.00    +0.000 N 
ATOM     33  H   UNL     1     -10.454   2.111 124.975  0.00  0.00    +0.000 HD
BRANCH  31  34
ATOM     34  C   UNL     1      -8.134   0.182 123.337  0.00  0.00    +0.000 C 
BRANCH  34  35
ATOM     35  N   UNL     1      -7.956  -1.224 123.774  0.00  0.00    +0.000 N 
ATOM     36  C   UNL     1      -8.678  -1.716 124.856  0.00  0.00    +0.000 A 
ATOM     37  C   UNL     1      -8.322  -2.852 125.488  0.00  0.00    +0.000 A 
ATOM     38  C   UNL     1      -7.274  -3.675 124.911  0.00  0.00    +0.000 A 
ATOM     39  C   UNL     1      -6.675  -3.310 123.771  0.00  0.00    +0.000 A 
ATOM     40  C   UNL     1      -6.898  -1.945 123.216  0.00  0.00    +0.000 A 
ATOM     41  O   UNL     1      -6.136  -1.517 122.355  0.00  0.00    +0.000 OA
BRANCH  37  42
ATOM     42  C   UNL     1      -8.957  -3.328 126.763  0.00  0.00    +0.000 C 
ATOM     43  F   UNL     1     -10.308  -3.409 126.668  0.00  0.00    +0.000 F 
ATOM     44  F   UNL     1      -8.513  -4.566 127.103  0.00  0.00    +0.000 F 
ATOM     45  F   UNL     1      -8.680  -2.514 127.814  0.00  0.00    +0.000 F 
ENDBRANCH  37  42
ENDBRANCH  34  35
ENDBRANCH  31  34
ENDBRANCH  29  32
ENDBRANCH   1  29
TORSDOF 7
ENDMDL
MODEL 8
REMARK VINA RESULT:      -9.8      5.615      7.734
REMARK  Name = CHEMBL281081
REMARK  7 active torsions:
REMARK  status: ('A' for Active; 'I' for Inactive)
REMARK    1  A    between atoms: C_2  and  C_3
REMARK    2  A    between atoms: C_3  and  N_4
REMARK    3  A    between atoms: C_6  and  C_7
REMARK    4  A    between atoms: N_15  and  C_16
REMARK    5  A    between atoms: C_16  and  C_17
REMARK    6  A    between atoms: C_22  and  C_23
REMARK    7  A    between atoms: C_28  and  N_29
REMARK                            x       y       z     vdW  Elec       q    Type
REMARK                         _______ _______ _______ _____ _____    ______ ____
ROOT
ATOM      1  C   UNL     1      -4.668   3.754 126.469  0.00  0.00    +0.000 A 
ATOM      2  N   UNL     1      -3.542   3.145 126.815  0.00  0.00    +0.000 NA
ATOM      3  C   UNL     1      -3.396   3.339 128.171  0.00  0.00    +0.000 A 
ATOM      4  C   UNL     1      -4.008   2.701 129.277  0.00  0.00    +0.000 A 
ATOM      5  C   UNL     1      -3.902   3.266 130.587  0.00  0.00    +0.000 A 
ATOM      6  C   UNL     1      -3.010   4.313 130.890  0.00  0.00    +0.000 A 
ATOM      7  C   UNL     1      -2.481   4.962 129.765  0.00  0.00    +0.000 A 
ATOM      8  C   UNL     1      -3.065   4.670 128.449  0.00  0.00    +0.000 A 
ATOM      9  S   UNL     1      -4.956   5.079 127.691  0.00  0.00    +0.000 S 
ENDROOT
BRANCH   6  10
ATOM     10  C   UNL     1      -2.615   4.534 132.367  0.00  0.00    +0.000 C 
ATOM     11  O   UNL     1      -2.272   3.529 133.000  0.00  0.00    +0.000 OA
ATOM     12  N   UNL     1      -2.490   5.820 132.964  0.00  0.00    +0.000 N 
ATOM     13  C   UNL     1      -1.214   6.174 133.604  0.00  0.00    +0.000 C 
ATOM     14  C   UNL     1      -1.338   6.760 135.001  0.00  0.00    +0.000 C 
ATOM     15  C   UNL     1      -2.059   8.347 134.860  0.00  0.00    +0.000 C 
ATOM     16  C   UNL     1      -3.565   7.586 134.385  0.00  0.00    +0.000 C 
ATOM     17  C   UNL     1      -3.508   6.879 133.015  0.00  0.00    +0.000 C 
BRANCH  15  18
ATOM     18  N   UNL     1      -0.893   9.717 134.359  0.00  0.00    +0.000 N 
ATOM     19  C   UNL     1      -2.097  10.497 134.610  0.00  0.00    +0.000 C 
ATOM     20  O   UNL     1      -2.835  10.521 135.629  0.00  0.00    +0.000 OA
ATOM     21  O   UNL     1      -2.589  11.152 133.575  0.00  0.00    +0.000 OA
ATOM     22  C   UNL     1      -2.019  12.369 133.878  0.00  0.00    +0.000 C 
ATOM     23  C   UNL     1      -0.971  12.107 132.907  0.00  0.00    +0.000 A 
ATOM     24  C   UNL     1      -0.989  12.936 131.692  0.00  0.00    +0.000 A 
ATOM     25  C   UNL     1       0.053  13.120 130.816  0.00  0.00    +0.000 A 
ATOM     26  C   UNL     1       1.220  12.698 131.393  0.00  0.00    +0.000 A 
ATOM     27  C   UNL     1       1.161  11.707 132.668  0.00  0.00    +0.000 A 
ATOM     28  C   UNL     1      -0.146  11.024 133.253  0.00  0.00    +0.000 A 
ENDBRANCH  15  18
ENDBRANCH   6  10
BRANCH   1  29
ATOM     29  C   UNL     1      -5.342   3.480 125.076  0.00  0.00    +0.000 C 
BRANCH  29  32
ATOM     30  O   UNL     1      -8.980   3.336 124.827  0.00  0.00    +0.000 OA
ATOM     31  C   UNL     1      -7.851   2.965 125.159  0.00  0.00    +0.000 C 
ATOM     32  N   UNL     1      -6.754   3.743 124.774  0.00  0.00    +0.000 N 
ATOM     33  H   UNL     1      -7.029   4.553 124.231  0.00  0.00    +0.000 HD
BRANCH  31  34
ATOM     34  C   UNL     1      -7.643   1.683 126.012  0.00  0.00    +0.000 C 
BRANCH  34  35
ATOM     35  N   UNL     1      -7.176   0.511 125.232  0.00  0.00    +0.000 N 
ATOM     36  C   UNL     1      -7.989  -0.043 124.249  0.00  0.00    +0.000 A 
ATOM     37  C   UNL     1      -7.762  -1.276 123.754  0.00  0.00    +0.000 A 
ATOM     38  C   UNL     1      -6.538  -1.964 124.122  0.00  0.00    +0.000 A 
ATOM     39  C   UNL     1      -5.651  -1.381 124.937  0.00  0.00    +0.000 A 
ATOM     40  C   UNL     1      -6.018  -0.136 125.669  0.00  0.00    +0.000 A 
ATOM     41  O   UNL     1      -5.331   0.224 126.620  0.00  0.00    +0.000 OA
BRANCH  37  42
ATOM     42  C   UNL     1      -8.707  -1.986 122.827  0.00  0.00    +0.000 C 
ATOM     43  F   UNL     1      -9.269  -3.079 123.401  0.00  0.00    +0.000 F 
ATOM     44  F   UNL     1      -9.728  -1.174 122.445  0.00  0.00    +0.000 F 
ATOM     45  F   UNL     1      -8.097  -2.404 121.688  0.00  0.00    +0.000 F 
ENDBRANCH  37  42
ENDBRANCH  34  35
ENDBRANCH  31  34
ENDBRANCH  29  32
ENDBRANCH   1  29
TORSDOF 7
ENDMDL
MODEL 9
REMARK VINA RESULT:      -9.7      4.149      6.438
REMARK  Name = CHEMBL281081
REMARK  7 active torsions:
REMARK  status: ('A' for Active; 'I' for Inactive)
REMARK    1  A    between atoms: C_2  and  C_3
REMARK    2  A    between atoms: C_3  and  N_4
REMARK    3  A    between atoms: C_6  and  C_7
REMARK    4  A    between atoms: N_15  and  C_16
REMARK    5  A    between atoms: C_16  and  C_17
REMARK    6  A    between atoms: C_22  and  C_23
REMARK    7  A    between atoms: C_28  and  N_29
REMARK                            x       y       z     vdW  Elec       q    Type
REMARK                         _______ _______ _______ _____ _____    ______ ____
ROOT
ATOM      1  C   UNL     1      -8.084   2.625 126.722  0.00  0.00    +0.000 A 
ATOM      2  N   UNL     1      -8.859   1.795 127.406  0.00  0.00    +0.000 NA
ATOM      3  C   UNL     1      -8.589   2.017 128.738  0.00  0.00    +0.000 A 
ATOM      4  C   UNL     1      -9.014   3.040 129.619  0.00  0.00    +0.000 A 
ATOM      5  C   UNL     1      -8.375   3.214 130.887  0.00  0.00    +0.000 A 
ATOM      6  C   UNL     1      -7.489   2.261 131.425  0.00  0.00    +0.000 A 
ATOM      7  C   UNL     1      -7.039   1.308 130.501  0.00  0.00    +0.000 A 
ATOM      8  C   UNL     1      -7.323   1.525 129.076  0.00  0.00    +0.000 A 
ATOM      9  S   UNL     1      -6.636   2.991 127.772  0.00  0.00    +0.000 S 
ENDROOT
BRANCH   6  10
ATOM     10  C   UNL     1      -7.227   2.281 132.947  0.00  0.00    +0.000 C 
ATOM     11  O   UNL     1      -7.301   1.194 133.531  0.00  0.00    +0.000 OA
ATOM     12  N   UNL     1      -6.772   3.430 133.653  0.00  0.00    +0.000 N 
ATOM     13  C   UNL     1      -5.538   3.323 134.445  0.00  0.00    +0.000 C 
ATOM     14  C   UNL     1      -5.637   3.860 135.864  0.00  0.00    +0.000 C 
ATOM     15  C   UNL     1      -5.793   5.599 135.775  0.00  0.00    +0.000 C 
ATOM     16  C   UNL     1      -7.394   5.389 135.091  0.00  0.00    +0.000 C 
ATOM     17  C   UNL     1      -7.399   4.760 133.683  0.00  0.00    +0.000 C 
BRANCH  15  18
ATOM     18  N   UNL     1      -4.200   6.535 135.504  0.00  0.00    +0.000 N 
ATOM     19  C   UNL     1      -4.631   7.140 136.757  0.00  0.00    +0.000 C 
ATOM     20  O   UNL     1      -4.962   6.587 137.838  0.00  0.00    +0.000 OA
ATOM     21  O   UNL     1      -4.871   8.437 136.722  0.00  0.00    +0.000 OA
ATOM     22  C   UNL     1      -3.649   8.832 137.222  0.00  0.00    +0.000 C 
ATOM     23  C   UNL     1      -3.204   9.123 135.871  0.00  0.00    +0.000 A 
ATOM     24  C   UNL     1      -3.013  10.544 135.541  0.00  0.00    +0.000 A 
ATOM     25  C   UNL     1      -2.291  11.046 134.485  0.00  0.00    +0.000 A 
ATOM     26  C   UNL     1      -1.493  10.064 133.965  0.00  0.00    +0.000 A 
ATOM     27  C   UNL     1      -1.824   8.516 134.293  0.00  0.00    +0.000 A 
ATOM     28  C   UNL     1      -3.109   7.984 135.055  0.00  0.00    +0.000 A 
ENDBRANCH  15  18
ENDBRANCH   6  10
BRANCH   1  29
ATOM     29  C   UNL     1      -8.339   2.901 125.196  0.00  0.00    +0.000 C 
BRANCH  29  32
ATOM     30  O   UNL     1     -10.506   0.776 123.171  0.00  0.00    +0.000 OA
ATOM     31  C   UNL     1      -9.477   1.105 123.767  0.00  0.00    +0.000 C 
ATOM     32  N   UNL     1      -9.455   2.337 124.428  0.00  0.00    +0.000 N 
ATOM     33  H   UNL     1     -10.326   2.844 124.325  0.00  0.00    +0.000 HD
BRANCH  31  34
ATOM     34  C   UNL     1      -8.240   0.166 123.814  0.00  0.00    +0.000 C 
BRANCH  34  35
ATOM     35  N   UNL     1      -8.498  -1.137 124.473  0.00  0.00    +0.000 N 
ATOM     36  C   UNL     1      -8.376  -1.259 125.853  0.00  0.00    +0.000 A 
ATOM     37  C   UNL     1      -8.275  -2.461 126.453  0.00  0.00    +0.000 A 
ATOM     38  C   UNL     1      -8.484  -3.659 125.659  0.00  0.00    +0.000 A 
ATOM     39  C   UNL     1      -8.772  -3.567 124.355  0.00  0.00    +0.000 A 
ATOM     40  C   UNL     1      -8.640  -2.259 123.653  0.00  0.00    +0.000 A 
ATOM     41  O   UNL     1      -8.616  -2.237 122.427  0.00  0.00    +0.000 OA
BRANCH  37  42
ATOM     42  C   UNL     1      -7.965  -2.640 127.911  0.00  0.00    +0.000 C 
ATOM     43  F   UNL     1      -8.261  -1.536 128.642  0.00  0.00    +0.000 F 
ATOM     44  F   UNL     1      -8.677  -3.667 128.445  0.00  0.00    +0.000 F 
ATOM     45  F   UNL     1      -6.655  -2.922 128.130  0.00  0.00    +0.000 F 
ENDBRANCH  37  42
ENDBRANCH  34  35
ENDBRANCH  31  34
ENDBRANCH  29  32
ENDBRANCH   1  29
TORSDOF 7
ENDMDL
