MODEL 1
REMARK VINA RESULT:     -11.0      0.000      0.000
REMARK  Name = CHEMBL102994
REMARK  8 active torsions:
REMARK  status: ('A' for Active; 'I' for Inactive)
REMARK    1  A    between atoms: C_1  and  O_2
REMARK    2  A    between atoms: O_2  and  C_3
REMARK    3  A    between atoms: C_5  and  O_6
REMARK    4  A    between atoms: O_6  and  C_7
REMARK    5  A    between atoms: C_7  and  C_8
REMARK    6  A    between atoms: C_7  and  C_9
REMARK    7  A    between atoms: C_17  and  C_18
REMARK    8  A    between atoms: C_23  and  N_24
REMARK                            x       y       z     vdW  Elec       q    Type
REMARK                         _______ _______ _______ _____ _____    ______ ____
ROOT
ATOM      1  C   UNL     1      -6.888   1.302 129.340  0.00  0.00    +0.000 C 
ATOM      2  O   UNL     1      -5.686   1.112 129.560  0.00  0.00    +0.000 OA
ATOM      3  N   UNL     1      -7.614   2.219 130.150  0.00  0.00    +0.000 N 
ATOM      4  C   UNL     1      -7.220   3.676 130.032  0.00  0.00    +0.000 C 
ATOM      5  C   UNL     1      -7.548   4.481 131.265  0.00  0.00    +0.000 C 
ATOM      6  C   UNL     1      -9.268   4.655 131.406  0.00  0.00    +0.000 C 
ATOM      7  C   UNL     1      -9.425   2.913 131.757  0.00  0.00    +0.000 C 
ATOM      8  C   UNL     1      -8.981   1.904 130.694  0.00  0.00    +0.000 C 
ENDROOT
BRANCH   6   9
ATOM      9  N   UNL     1      -9.920   6.192 130.582  0.00  0.00    +0.000 N 
ATOM     10  C   UNL     1     -10.715   6.277 131.810  0.00  0.00    +0.000 C 
ATOM     11  O   UNL     1     -10.358   6.338 132.914  0.00  0.00    +0.000 OA
ATOM     12  O   UNL     1     -12.037   6.031 131.591  0.00  0.00    +0.000 OA
ATOM     13  C   UNL     1     -12.409   7.339 131.402  0.00  0.00    +0.000 C 
ATOM     14  C   UNL     1     -12.346   7.189 129.949  0.00  0.00    +0.000 A 
ATOM     15  C   UNL     1     -13.480   7.022 129.114  0.00  0.00    +0.000 A 
ATOM     16  C   UNL     1     -13.605   7.602 127.867  0.00  0.00    +0.000 A 
ATOM     17  C   UNL     1     -12.624   8.520 127.658  0.00  0.00    +0.000 A 
ATOM     18  C   UNL     1     -11.315   8.289 128.475  0.00  0.00    +0.000 A 
ATOM     19  C   UNL     1     -11.079   7.054 129.440  0.00  0.00    +0.000 A 
ENDBRANCH   6   9
BRANCH   1  25
ATOM     20  C   UNL     1      -7.793   1.185 126.846  0.00  0.00    +0.000 A 
ATOM     21  C   UNL     1      -8.326   0.390 125.813  0.00  0.00    +0.000 A 
ATOM     22  C   UNL     1      -8.584  -0.959 125.982  0.00  0.00    +0.000 A 
ATOM     23  C   UNL     1      -8.130  -1.561 127.142  0.00  0.00    +0.000 A 
ATOM     24  C   UNL     1      -7.658  -0.782 128.210  0.00  0.00    +0.000 A 
ATOM     25  C   UNL     1      -7.486   0.628 128.105  0.00  0.00    +0.000 A 
BRANCH  20  27
ATOM     26  C   UNL     1      -8.392   2.714 125.180  0.00  0.00    +0.000 C 
ATOM     27  O   UNL     1      -7.772   2.487 126.420  0.00  0.00    +0.000 OA
ENDBRANCH  20  27
BRANCH  22  28
ATOM     28  O   UNL     1      -9.344  -1.556 125.015  0.00  0.00    +0.000 OA
BRANCH  28  29
ATOM     29  C   UNL     1      -8.943  -2.856 124.559  0.00  0.00    +0.000 C 
ATOM     30  C   UNL     1      -9.812  -3.460 123.431  0.00  0.00    +0.000 C 
BRANCH  29  31
ATOM     31  C   UNL     1      -7.505  -2.768 124.059  0.00  0.00    +0.000 A 
ATOM     32  C   UNL     1      -7.151  -1.936 122.982  0.00  0.00    +0.000 A 
ATOM     33  C   UNL     1      -5.896  -2.030 122.390  0.00  0.00    +0.000 A 
ATOM     34  C   UNL     1      -4.928  -2.851 122.956  0.00  0.00    +0.000 A 
ATOM     35  C   UNL     1      -5.238  -3.632 124.069  0.00  0.00    +0.000 A 
ATOM     36  C   UNL     1      -6.523  -3.599 124.612  0.00  0.00    +0.000 A 
ENDBRANCH  29  31
ENDBRANCH  28  29
ENDBRANCH  22  28
ENDBRANCH   1  25
TORSDOF 6
ENDMDL
MODEL 2
REMARK VINA RESULT:     -10.9      0.788      1.625
REMARK  Name = CHEMBL102994
REMARK  8 active torsions:
REMARK  status: ('A' for Active; 'I' for Inactive)
REMARK    1  A    between atoms: C_1  and  O_2
REMARK    2  A    between atoms: O_2  and  C_3
REMARK    3  A    between atoms: C_5  and  O_6
REMARK    4  A    between atoms: O_6  and  C_7
REMARK    5  A    between atoms: C_7  and  C_8
REMARK    6  A    between atoms: C_7  and  C_9
REMARK    7  A    between atoms: C_17  and  C_18
REMARK    8  A    between atoms: C_23  and  N_24
REMARK                            x       y       z     vdW  Elec       q    Type
REMARK                         _______ _______ _______ _____ _____    ______ ____
ROOT
ATOM      1  C   UNL     1      -6.933   1.222 129.293  0.00  0.00    +0.000 C 
ATOM      2  O   UNL     1      -5.719   1.043 129.449  0.00  0.00    +0.000 OA
ATOM      3  N   UNL     1      -7.611   2.179 130.099  0.00  0.00    +0.000 N 
ATOM      4  C   UNL     1      -7.229   3.628 129.882  0.00  0.00    +0.000 C 
ATOM      5  C   UNL     1      -7.484   4.496 131.090  0.00  0.00    +0.000 C 
ATOM      6  C   UNL     1      -9.193   4.677 131.326  0.00  0.00    +0.000 C 
ATOM      7  C   UNL     1      -9.323   2.956 131.775  0.00  0.00    +0.000 C 
ATOM      8  C   UNL     1      -8.941   1.893 130.740  0.00  0.00    +0.000 C 
ENDROOT
BRANCH   6   9
ATOM      9  N   UNL     1      -9.898   6.170 130.465  0.00  0.00    +0.000 N 
ATOM     10  C   UNL     1     -10.677   6.272 131.702  0.00  0.00    +0.000 C 
ATOM     11  O   UNL     1     -10.307   6.376 132.798  0.00  0.00    +0.000 OA
ATOM     12  O   UNL     1     -11.995   5.983 131.509  0.00  0.00    +0.000 OA
ATOM     13  C   UNL     1     -12.406   7.274 131.286  0.00  0.00    +0.000 C 
ATOM     14  C   UNL     1     -12.359   7.082 129.838  0.00  0.00    +0.000 A 
ATOM     15  C   UNL     1     -13.499   6.858 129.025  0.00  0.00    +0.000 A 
ATOM     16  C   UNL     1     -13.658   7.396 127.763  0.00  0.00    +0.000 A 
ATOM     17  C   UNL     1     -12.705   8.333 127.511  0.00  0.00    +0.000 A 
ATOM     18  C   UNL     1     -11.380   8.163 128.316  0.00  0.00    +0.000 A 
ATOM     19  C   UNL     1     -11.096   6.965 129.315  0.00  0.00    +0.000 A 
ENDBRANCH   6   9
BRANCH   1  25
ATOM     20  C   UNL     1      -7.864  -0.893 127.987  0.00  0.00    +0.000 A 
ATOM     21  C   UNL     1      -8.518  -1.389 126.842  0.00  0.00    +0.000 A 
ATOM     22  C   UNL     1      -8.921  -0.559 125.809  0.00  0.00    +0.000 A 
ATOM     23  C   UNL     1      -8.834   0.807 126.010  0.00  0.00    +0.000 A 
ATOM     24  C   UNL     1      -8.128   1.321 127.109  0.00  0.00    +0.000 A 
ATOM     25  C   UNL     1      -7.602   0.485 128.134  0.00  0.00    +0.000 A 
BRANCH  20  27
ATOM     26  C   UNL     1      -8.054  -3.190 128.393  0.00  0.00    +0.000 C 
ATOM     27  O   UNL     1      -7.481  -1.960 128.758  0.00  0.00    +0.000 OA
ENDBRANCH  20  27
BRANCH  22  28
ATOM     28  O   UNL     1      -9.292  -1.175 124.647  0.00  0.00    +0.000 OA
BRANCH  28  29
ATOM     29  C   UNL     1      -8.910  -2.547 124.469  0.00  0.00    +0.000 C 
ATOM     30  C   UNL     1      -9.763  -3.346 123.456  0.00  0.00    +0.000 C 
BRANCH  29  31
ATOM     31  C   UNL     1      -7.458  -2.587 124.007  0.00  0.00    +0.000 A 
ATOM     32  C   UNL     1      -7.024  -1.859 122.884  0.00  0.00    +0.000 A 
ATOM     33  C   UNL     1      -5.764  -2.074 122.337  0.00  0.00    +0.000 A 
ATOM     34  C   UNL     1      -4.866  -2.911 122.988  0.00  0.00    +0.000 A 
ATOM     35  C   UNL     1      -5.253  -3.588 124.144  0.00  0.00    +0.000 A 
ATOM     36  C   UNL     1      -6.546  -3.436 124.646  0.00  0.00    +0.000 A 
ENDBRANCH  29  31
ENDBRANCH  28  29
ENDBRANCH  22  28
ENDBRANCH   1  25
TORSDOF 6
ENDMDL
MODEL 3
REMARK VINA RESULT:     -10.3      1.764      2.389
REMARK  Name = CHEMBL102994
REMARK  8 active torsions:
REMARK  status: ('A' for Active; 'I' for Inactive)
REMARK    1  A    between atoms: C_1  and  O_2
REMARK    2  A    between atoms: O_2  and  C_3
REMARK    3  A    between atoms: C_5  and  O_6
REMARK    4  A    between atoms: O_6  and  C_7
REMARK    5  A    between atoms: C_7  and  C_8
REMARK    6  A    between atoms: C_7  and  C_9
REMARK    7  A    between atoms: C_17  and  C_18
REMARK    8  A    between atoms: C_23  and  N_24
REMARK                            x       y       z     vdW  Elec       q    Type
REMARK                         _______ _______ _______ _____ _____    ______ ____
ROOT
ATOM      1  C   UNL     1      -5.358   3.020 128.133  0.00  0.00    +0.000 C 
ATOM      2  O   UNL     1      -4.130   3.116 128.242  0.00  0.00    +0.000 OA
ATOM      3  N   UNL     1      -6.199   3.563 129.145  0.00  0.00    +0.000 N 
ATOM      4  C   UNL     1      -6.189   5.070 129.286  0.00  0.00    +0.000 C 
ATOM      5  C   UNL     1      -6.574   5.539 130.668  0.00  0.00    +0.000 C 
ATOM      6  C   UNL     1      -8.259   5.231 130.939  0.00  0.00    +0.000 C 
ATOM      7  C   UNL     1      -7.944   3.475 130.958  0.00  0.00    +0.000 C 
ATOM      8  C   UNL     1      -7.380   2.813 129.697  0.00  0.00    +0.000 C 
ENDROOT
BRANCH   6   9
ATOM      9  N   UNL     1      -9.352   6.661 130.465  0.00  0.00    +0.000 N 
ATOM     10  C   UNL     1     -10.052   6.281 131.695  0.00  0.00    +0.000 C 
ATOM     11  O   UNL     1      -9.647   6.218 132.782  0.00  0.00    +0.000 OA
ATOM     12  O   UNL     1     -11.274   5.729 131.447  0.00  0.00    +0.000 OA
ATOM     13  C   UNL     1     -11.992   6.895 131.542  0.00  0.00    +0.000 C 
ATOM     14  C   UNL     1     -11.995   7.059 130.089  0.00  0.00    +0.000 A 
ATOM     15  C   UNL     1     -13.100   6.755 129.254  0.00  0.00    +0.000 A 
ATOM     16  C   UNL     1     -13.462   7.514 128.158  0.00  0.00    +0.000 A 
ATOM     17  C   UNL     1     -12.778   8.688 128.132  0.00  0.00    +0.000 A 
ATOM     18  C   UNL     1     -11.400   8.669 128.864  0.00  0.00    +0.000 A 
ATOM     19  C   UNL     1     -10.777   7.380 129.546  0.00  0.00    +0.000 A 
ENDBRANCH   6   9
BRANCH   1  25
ATOM     20  C   UNL     1      -6.452   3.099 125.715  0.00  0.00    +0.000 A 
ATOM     21  C   UNL     1      -6.881   2.380 124.582  0.00  0.00    +0.000 A 
ATOM     22  C   UNL     1      -6.795   1.000 124.510  0.00  0.00    +0.000 A 
ATOM     23  C   UNL     1      -6.099   0.347 125.512  0.00  0.00    +0.000 A 
ATOM     24  C   UNL     1      -5.722   1.029 126.679  0.00  0.00    +0.000 A 
ATOM     25  C   UNL     1      -5.899   2.434 126.829  0.00  0.00    +0.000 A 
BRANCH  20  27
ATOM     26  C   UNL     1      -8.122   4.734 125.812  0.00  0.00    +0.000 C 
ATOM     27  O   UNL     1      -6.782   4.417 125.538  0.00  0.00    +0.000 OA
ENDBRANCH  20  27
BRANCH  22  28
ATOM     28  O   UNL     1      -7.484   0.403 123.492  0.00  0.00    +0.000 OA
BRANCH  28  29
ATOM     29  C   UNL     1      -8.833  -0.012 123.753  0.00  0.00    +0.000 C 
ATOM     30  C   UNL     1      -9.757  -0.077 122.516  0.00  0.00    +0.000 C 
BRANCH  29  31
ATOM     31  C   UNL     1      -8.795  -1.395 124.394  0.00  0.00    +0.000 A 
ATOM     32  C   UNL     1      -9.232  -1.604 125.715  0.00  0.00    +0.000 A 
ATOM     33  C   UNL     1      -8.987  -2.809 126.365  0.00  0.00    +0.000 A 
ATOM     34  C   UNL     1      -8.435  -3.871 125.661  0.00  0.00    +0.000 A 
ATOM     35  C   UNL     1      -8.060  -3.706 124.327  0.00  0.00    +0.000 A 
ATOM     36  C   UNL     1      -8.230  -2.471 123.700  0.00  0.00    +0.000 A 
ENDBRANCH  29  31
ENDBRANCH  28  29
ENDBRANCH  22  28
ENDBRANCH   1  25
TORSDOF 6
ENDMDL
MODEL 4
REMARK VINA RESULT:     -10.3      1.529      2.781
REMARK  Name = CHEMBL102994
REMARK  8 active torsions:
REMARK  status: ('A' for Active; 'I' for Inactive)
REMARK    1  A    between atoms: C_1  and  O_2
REMARK    2  A    between atoms: O_2  and  C_3
REMARK    3  A    between atoms: C_5  and  O_6
REMARK    4  A    between atoms: O_6  and  C_7
REMARK    5  A    between atoms: C_7  and  C_8
REMARK    6  A    between atoms: C_7  and  C_9
REMARK    7  A    between atoms: C_17  and  C_18
REMARK    8  A    between atoms: C_23  and  N_24
REMARK                            x       y       z     vdW  Elec       q    Type
REMARK                         _______ _______ _______ _____ _____    ______ ____
ROOT
ATOM      1  C   UNL     1      -6.949   1.143 129.736  0.00  0.00    +0.000 C 
ATOM      2  O   UNL     1      -5.750   0.942 129.964  0.00  0.00    +0.000 OA
ATOM      3  N   UNL     1      -7.653   2.123 130.491  0.00  0.00    +0.000 N 
ATOM      4  C   UNL     1      -7.229   3.561 130.283  0.00  0.00    +0.000 C 
ATOM      5  C   UNL     1      -7.535   4.447 131.466  0.00  0.00    +0.000 C 
ATOM      6  C   UNL     1      -9.251   4.665 131.601  0.00  0.00    +0.000 C 
ATOM      7  C   UNL     1      -9.442   2.951 132.058  0.00  0.00    +0.000 C 
ATOM      8  C   UNL     1      -9.023   1.870 131.058  0.00  0.00    +0.000 C 
ENDROOT
BRANCH   6   9
ATOM      9  N   UNL     1      -9.875   6.162 130.686  0.00  0.00    +0.000 N 
ATOM     10  C   UNL     1     -10.700   6.309 131.888  0.00  0.00    +0.000 C 
ATOM     11  O   UNL     1     -10.372   6.423 132.996  0.00  0.00    +0.000 OA
ATOM     12  O   UNL     1     -12.018   6.056 131.645  0.00  0.00    +0.000 OA
ATOM     13  C   UNL     1     -12.379   7.355 131.384  0.00  0.00    +0.000 C 
ATOM     14  C   UNL     1     -12.279   7.134 129.942  0.00  0.00    +0.000 A 
ATOM     15  C   UNL     1     -13.391   6.930 129.086  0.00  0.00    +0.000 A 
ATOM     16  C   UNL     1     -13.481   7.449 127.810  0.00  0.00    +0.000 A 
ATOM     17  C   UNL     1     -12.491   8.353 127.582  0.00  0.00    +0.000 A 
ATOM     18  C   UNL     1     -11.205   8.158 128.444  0.00  0.00    +0.000 A 
ATOM     19  C   UNL     1     -11.000   6.971 129.474  0.00  0.00    +0.000 A 
ENDBRANCH   6   9
BRANCH   1  25
ATOM     20  C   UNL     1      -7.564  -0.973 128.255  0.00  0.00    +0.000 A 
ATOM     21  C   UNL     1      -8.212  -1.472 127.108  0.00  0.00    +0.000 A 
ATOM     22  C   UNL     1      -8.865  -0.641 126.213  0.00  0.00    +0.000 A 
ATOM     23  C   UNL     1      -9.029   0.686 126.569  0.00  0.00    +0.000 A 
ATOM     24  C   UNL     1      -8.339   1.218 127.669  0.00  0.00    +0.000 A 
ATOM     25  C   UNL     1      -7.566   0.407 128.547  0.00  0.00    +0.000 A 
BRANCH  20  27
ATOM     26  C   UNL     1      -7.714  -2.819 129.684  0.00  0.00    +0.000 C 
ATOM     27  O   UNL     1      -6.909  -2.012 128.864  0.00  0.00    +0.000 OA
ENDBRANCH  20  27
BRANCH  22  28
ATOM     28  O   UNL     1      -9.214  -1.198 125.015  0.00  0.00    +0.000 OA
BRANCH  28  29
ATOM     29  C   UNL     1      -8.243  -1.171 123.958  0.00  0.00    +0.000 C 
ATOM     30  C   UNL     1      -8.504  -2.153 122.793  0.00  0.00    +0.000 C 
BRANCH  29  31
ATOM     31  C   UNL     1      -8.191   0.242 123.389  0.00  0.00    +0.000 A 
ATOM     32  C   UNL     1      -7.014   1.011 123.437  0.00  0.00    +0.000 A 
ATOM     33  C   UNL     1      -7.033   2.366 123.126  0.00  0.00    +0.000 A 
ATOM     34  C   UNL     1      -8.193   2.940 122.621  0.00  0.00    +0.000 A 
ATOM     35  C   UNL     1      -9.354   2.176 122.497  0.00  0.00    +0.000 A 
ATOM     36  C   UNL     1      -9.356   0.837 122.889  0.00  0.00    +0.000 A 
ENDBRANCH  29  31
ENDBRANCH  28  29
ENDBRANCH  22  28
ENDBRANCH   1  25
TORSDOF 6
ENDMDL
MODEL 5
REMARK VINA RESULT:      -9.9      4.024     10.564
REMARK  Name = CHEMBL102994
REMARK  8 active torsions:
REMARK  status: ('A' for Active; 'I' for Inactive)
REMARK    1  A    between atoms: C_1  and  O_2
REMARK    2  A    between atoms: O_2  and  C_3
REMARK    3  A    between atoms: C_5  and  O_6
REMARK    4  A    between atoms: O_6  and  C_7
REMARK    5  A    between atoms: C_7  and  C_8
REMARK    6  A    between atoms: C_7  and  C_9
REMARK    7  A    between atoms: C_17  and  C_18
REMARK    8  A    between atoms: C_23  and  N_24
REMARK                            x       y       z     vdW  Elec       q    Type
REMARK                         _______ _______ _______ _____ _____    ______ ____
ROOT
ATOM      1  C   UNL     1      -6.253   4.959 125.547  0.00  0.00    +0.000 C 
ATOM      2  O   UNL     1      -6.115   6.058 124.998  0.00  0.00    +0.000 OA
ATOM      3  N   UNL     1      -7.069   3.965 124.937  0.00  0.00    +0.000 N 
ATOM      4  C   UNL     1      -6.569   3.402 123.624  0.00  0.00    +0.000 C 
ATOM      5  C   UNL     1      -7.674   2.854 122.755  0.00  0.00    +0.000 C 
ATOM      6  C   UNL     1      -8.314   1.408 123.468  0.00  0.00    +0.000 C 
ATOM      7  C   UNL     1      -9.009   2.364 124.804  0.00  0.00    +0.000 C 
ATOM      8  C   UNL     1      -8.063   3.150 125.718  0.00  0.00    +0.000 C 
ENDROOT
BRANCH   6   9
ATOM      9  N   UNL     1      -7.470  -0.140 122.871  0.00  0.00    +0.000 N 
ATOM     10  C   UNL     1      -8.746  -0.750 123.257  0.00  0.00    +0.000 C 
ATOM     11  O   UNL     1      -9.818  -0.512 122.880  0.00  0.00    +0.000 OA
ATOM     12  O   UNL     1      -8.629  -1.540 124.361  0.00  0.00    +0.000 OA
ATOM     13  C   UNL     1      -8.409  -2.716 123.686  0.00  0.00    +0.000 C 
ATOM     14  C   UNL     1      -6.963  -2.596 123.866  0.00  0.00    +0.000 A 
ATOM     15  C   UNL     1      -6.217  -3.317 124.833  0.00  0.00    +0.000 A 
ATOM     16  C   UNL     1      -4.957  -3.833 124.598  0.00  0.00    +0.000 A 
ATOM     17  C   UNL     1      -4.641  -3.761 123.277  0.00  0.00    +0.000 A 
ATOM     18  C   UNL     1      -5.375  -2.639 122.481  0.00  0.00    +0.000 A 
ATOM     19  C   UNL     1      -6.375  -1.597 123.135  0.00  0.00    +0.000 A 
ENDBRANCH   6   9
BRANCH   1  25
ATOM     20  C   UNL     1      -5.829   4.582 128.141  0.00  0.00    +0.000 A 
ATOM     21  C   UNL     1      -4.901   4.311 129.165  0.00  0.00    +0.000 A 
ATOM     22  C   UNL     1      -3.549   4.157 128.910  0.00  0.00    +0.000 A 
ATOM     23  C   UNL     1      -3.148   4.089 127.588  0.00  0.00    +0.000 A 
ATOM     24  C   UNL     1      -4.039   4.420 126.556  0.00  0.00    +0.000 A 
ATOM     25  C   UNL     1      -5.415   4.695 126.797  0.00  0.00    +0.000 A 
BRANCH  20  27
ATOM     26  C   UNL     1      -7.403   3.901 129.733  0.00  0.00    +0.000 C 
ATOM     27  O   UNL     1      -7.052   4.806 128.718  0.00  0.00    +0.000 OA
ENDBRANCH  20  27
BRANCH  22  28
ATOM     28  O   UNL     1      -2.723   4.171 129.999  0.00  0.00    +0.000 OA
BRANCH  28  29
ATOM     29  C   UNL     1      -3.277   4.598 131.252  0.00  0.00    +0.000 C 
ATOM     30  C   UNL     1      -3.184   3.570 132.403  0.00  0.00    +0.000 C 
BRANCH  29  31
ATOM     31  C   UNL     1      -2.558   5.870 131.688  0.00  0.00    +0.000 A 
ATOM     32  C   UNL     1      -1.189   5.865 132.015  0.00  0.00    +0.000 A 
ATOM     33  C   UNL     1      -0.597   6.966 132.624  0.00  0.00    +0.000 A 
ATOM     34  C   UNL     1      -1.325   8.138 132.782  0.00  0.00    +0.000 A 
ATOM     35  C   UNL     1      -2.665   8.187 132.399  0.00  0.00    +0.000 A 
ATOM     36  C   UNL     1      -3.282   7.055 131.864  0.00  0.00    +0.000 A 
ENDBRANCH  29  31
ENDBRANCH  28  29
ENDBRANCH  22  28
ENDBRANCH   1  25
TORSDOF 6
ENDMDL
MODEL 6
REMARK VINA RESULT:      -9.7      3.065      9.679
REMARK  Name = CHEMBL102994
REMARK  8 active torsions:
REMARK  status: ('A' for Active; 'I' for Inactive)
REMARK    1  A    between atoms: C_1  and  O_2
REMARK    2  A    between atoms: O_2  and  C_3
REMARK    3  A    between atoms: C_5  and  O_6
REMARK    4  A    between atoms: O_6  and  C_7
REMARK    5  A    between atoms: C_7  and  C_8
REMARK    6  A    between atoms: C_7  and  C_9
REMARK    7  A    between atoms: C_17  and  C_18
REMARK    8  A    between atoms: C_23  and  N_24
REMARK                            x       y       z     vdW  Elec       q    Type
REMARK                         _______ _______ _______ _____ _____    ______ ____
ROOT
ATOM      1  C   UNL     1      -6.648   3.121 133.692  0.00  0.00    +0.000 C 
ATOM      2  O   UNL     1      -6.587   3.246 134.921  0.00  0.00    +0.000 OA
ATOM      3  N   UNL     1      -5.882   2.107 133.050  0.00  0.00    +0.000 N 
ATOM      4  C   UNL     1      -6.276   0.677 133.354  0.00  0.00    +0.000 C 
ATOM      5  C   UNL     1      -5.141  -0.301 133.173  0.00  0.00    +0.000 C 
ATOM      6  C   UNL     1      -4.768  -0.454 131.486  0.00  0.00    +0.000 C 
ATOM      7  C   UNL     1      -4.141   1.216 131.464  0.00  0.00    +0.000 C 
ATOM      8  C   UNL     1      -5.096   2.367 131.794  0.00  0.00    +0.000 C 
ENDROOT
BRANCH   6   9
ATOM      9  N   UNL     1      -5.704  -1.829 130.649  0.00  0.00    +0.000 N 
ATOM     10  C   UNL     1      -4.509  -1.863 129.802  0.00  0.00    +0.000 C 
ATOM     11  O   UNL     1      -3.400  -2.037 130.101  0.00  0.00    +0.000 OA
ATOM     12  O   UNL     1      -4.755  -1.410 128.540  0.00  0.00    +0.000 OA
ATOM     13  C   UNL     1      -5.034  -2.636 127.988  0.00  0.00    +0.000 C 
ATOM     14  C   UNL     1      -6.473  -2.417 128.130  0.00  0.00    +0.000 A 
ATOM     15  C   UNL     1      -7.332  -2.037 127.068  0.00  0.00    +0.000 A 
ATOM     16  C   UNL     1      -8.615  -2.523 126.909  0.00  0.00    +0.000 A 
ATOM     17  C   UNL     1      -8.848  -3.564 127.753  0.00  0.00    +0.000 A 
ATOM     18  C   UNL     1      -7.977  -3.576 129.047  0.00  0.00    +0.000 A 
ATOM     19  C   UNL     1      -6.932  -2.444 129.423  0.00  0.00    +0.000 A 
ENDBRANCH   6   9
BRANCH   1  25
ATOM     20  C   UNL     1      -8.605   3.623 131.970  0.00  0.00    +0.000 A 
ATOM     21  C   UNL     1      -9.480   4.575 131.412  0.00  0.00    +0.000 A 
ATOM     22  C   UNL     1      -9.451   5.908 131.784  0.00  0.00    +0.000 A 
ATOM     23  C   UNL     1      -8.660   6.257 132.865  0.00  0.00    +0.000 A 
ATOM     24  C   UNL     1      -7.733   5.344 133.392  0.00  0.00    +0.000 A 
ATOM     25  C   UNL     1      -7.662   3.992 132.952  0.00  0.00    +0.000 A 
BRANCH  20  27
ATOM     26  C   UNL     1      -9.721   1.567 131.906  0.00  0.00    +0.000 C 
ATOM     27  O   UNL     1      -8.788   2.434 131.313  0.00  0.00    +0.000 OA
ENDBRANCH  20  27
BRANCH  22  28
ATOM     28  O   UNL     1     -10.147   6.774 130.989  0.00  0.00    +0.000 OA
BRANCH  28  29
ATOM     29  C   UNL     1     -11.494   6.422 130.638  0.00  0.00    +0.000 C 
ATOM     30  C   UNL     1     -12.600   7.194 131.394  0.00  0.00    +0.000 C 
BRANCH  29  31
ATOM     31  C   UNL     1     -11.680   6.660 129.144  0.00  0.00    +0.000 A 
ATOM     32  C   UNL     1     -10.597   6.997 128.313  0.00  0.00    +0.000 A 
ATOM     33  C   UNL     1     -10.807   7.432 127.009  0.00  0.00    +0.000 A 
ATOM     34  C   UNL     1     -12.086   7.395 126.469  0.00  0.00    +0.000 A 
ATOM     35  C   UNL     1     -13.165   6.995 127.255  0.00  0.00    +0.000 A 
ATOM     36  C   UNL     1     -12.966   6.638 128.590  0.00  0.00    +0.000 A 
ENDBRANCH  29  31
ENDBRANCH  28  29
ENDBRANCH  22  28
ENDBRANCH   1  25
TORSDOF 6
ENDMDL
MODEL 7
REMARK VINA RESULT:      -9.4      4.093      4.929
REMARK  Name = CHEMBL102994
REMARK  8 active torsions:
REMARK  status: ('A' for Active; 'I' for Inactive)
REMARK    1  A    between atoms: C_1  and  O_2
REMARK    2  A    between atoms: O_2  and  C_3
REMARK    3  A    between atoms: C_5  and  O_6
REMARK    4  A    between atoms: O_6  and  C_7
REMARK    5  A    between atoms: C_7  and  C_8
REMARK    6  A    between atoms: C_7  and  C_9
REMARK    7  A    between atoms: C_17  and  C_18
REMARK    8  A    between atoms: C_23  and  N_24
REMARK                            x       y       z     vdW  Elec       q    Type
REMARK                         _______ _______ _______ _____ _____    ______ ____
ROOT
ATOM      1  C   UNL     1      -7.333  -2.063 130.881  0.00  0.00    +0.000 C 
ATOM      2  O   UNL     1      -7.070  -3.161 131.386  0.00  0.00    +0.000 OA
ATOM      3  N   UNL     1      -7.154  -0.876 131.647  0.00  0.00    +0.000 N 
ATOM      4  C   UNL     1      -5.728  -0.523 132.011  0.00  0.00    +0.000 C 
ATOM      5  C   UNL     1      -5.627   0.326 133.255  0.00  0.00    +0.000 C 
ATOM      6  C   UNL     1      -6.247   1.912 132.930  0.00  0.00    +0.000 C 
ATOM      7  C   UNL     1      -7.895   1.247 132.780  0.00  0.00    +0.000 C 
ATOM      8  C   UNL     1      -8.180   0.224 131.677  0.00  0.00    +0.000 C 
ENDROOT
BRANCH   6   9
ATOM      9  N   UNL     1      -4.940   3.108 132.358  0.00  0.00    +0.000 N 
ATOM     10  C   UNL     1      -5.928   4.096 132.800  0.00  0.00    +0.000 C 
ATOM     11  O   UNL     1      -6.404   4.242 133.849  0.00  0.00    +0.000 OA
ATOM     12  O   UNL     1      -6.492   4.768 131.756  0.00  0.00    +0.000 OA
ATOM     13  C   UNL     1      -5.613   5.823 131.759  0.00  0.00    +0.000 C 
ATOM     14  C   UNL     1      -4.825   5.222 130.685  0.00  0.00    +0.000 A 
ATOM     15  C   UNL     1      -4.891   5.623 129.326  0.00  0.00    +0.000 A 
ATOM     16  C   UNL     1      -3.790   5.696 128.495  0.00  0.00    +0.000 A 
ATOM     17  C   UNL     1      -2.637   5.563 129.203  0.00  0.00    +0.000 A 
ATOM     18  C   UNL     1      -2.769   4.775 130.543  0.00  0.00    +0.000 A 
ATOM     19  C   UNL     1      -4.114   4.107 131.049  0.00  0.00    +0.000 A 
ENDBRANCH   6   9
BRANCH   1  25
ATOM     20  C   UNL     1      -7.420  -1.081 128.416  0.00  0.00    +0.000 A 
ATOM     21  C   UNL     1      -7.839  -1.255 127.083  0.00  0.00    +0.000 A 
ATOM     22  C   UNL     1      -8.561  -2.365 126.679  0.00  0.00    +0.000 A 
ATOM     23  C   UNL     1      -8.705  -3.404 127.582  0.00  0.00    +0.000 A 
ATOM     24  C   UNL     1      -8.355  -3.228 128.930  0.00  0.00    +0.000 A 
ATOM     25  C   UNL     1      -7.711  -2.049 129.401  0.00  0.00    +0.000 A 
BRANCH  20  27
ATOM     26  C   UNL     1      -7.666   1.227 128.124  0.00  0.00    +0.000 C 
ATOM     27  O   UNL     1      -6.848   0.159 128.528  0.00  0.00    +0.000 OA
ENDBRANCH  20  27
BRANCH  22  28
ATOM     28  O   UNL     1      -9.140  -2.294 125.443  0.00  0.00    +0.000 OA
BRANCH  28  29
ATOM     29  C   UNL     1      -8.904  -3.377 124.532  0.00  0.00    +0.000 C 
ATOM     30  C   UNL     1      -9.881  -3.463 123.336  0.00  0.00    +0.000 C 
BRANCH  29  31
ATOM     31  C   UNL     1      -7.488  -3.247 123.984  0.00  0.00    +0.000 A 
ATOM     32  C   UNL     1      -6.459  -4.116 124.391  0.00  0.00    +0.000 A 
ATOM     33  C   UNL     1      -5.133  -3.854 124.065  0.00  0.00    +0.000 A 
ATOM     34  C   UNL     1      -4.830  -2.804 123.207  0.00  0.00    +0.000 A 
ATOM     35  C   UNL     1      -5.845  -1.973 122.734  0.00  0.00    +0.000 A 
ATOM     36  C   UNL     1      -7.166  -2.186 123.128  0.00  0.00    +0.000 A 
ENDBRANCH  29  31
ENDBRANCH  28  29
ENDBRANCH  22  28
ENDBRANCH   1  25
TORSDOF 6
ENDMDL
MODEL 8
REMARK VINA RESULT:      -9.3      5.692     10.394
REMARK  Name = CHEMBL102994
REMARK  8 active torsions:
REMARK  status: ('A' for Active; 'I' for Inactive)
REMARK    1  A    between atoms: C_1  and  O_2
REMARK    2  A    between atoms: O_2  and  C_3
REMARK    3  A    between atoms: C_5  and  O_6
REMARK    4  A    between atoms: O_6  and  C_7
REMARK    5  A    between atoms: C_7  and  C_8
REMARK    6  A    between atoms: C_7  and  C_9
REMARK    7  A    between atoms: C_17  and  C_18
REMARK    8  A    between atoms: C_23  and  N_24
REMARK                            x       y       z     vdW  Elec       q    Type
REMARK                         _______ _______ _______ _____ _____    ______ ____
ROOT
ATOM      1  C   UNL     1      -4.972   5.174 132.268  0.00  0.00    +0.000 C 
ATOM      2  O   UNL     1      -4.181   6.065 132.599  0.00  0.00    +0.000 OA
ATOM      3  N   UNL     1      -4.509   3.833 132.148  0.00  0.00    +0.000 N 
ATOM      4  C   UNL     1      -4.069   3.159 133.431  0.00  0.00    +0.000 C 
ATOM      5  C   UNL     1      -3.072   2.049 133.206  0.00  0.00    +0.000 C 
ATOM      6  C   UNL     1      -3.856   0.712 132.428  0.00  0.00    +0.000 C 
ATOM      7  C   UNL     1      -4.040   1.675 130.938  0.00  0.00    +0.000 C 
ATOM      8  C   UNL     1      -4.882   2.954 130.986  0.00  0.00    +0.000 C 
ENDROOT
BRANCH   6   9
ATOM      9  N   UNL     1      -4.540  -0.537 133.627  0.00  0.00    +0.000 N 
ATOM     10  C   UNL     1      -3.876  -1.480 132.722  0.00  0.00    +0.000 C 
ATOM     11  O   UNL     1      -2.757  -1.544 132.419  0.00  0.00    +0.000 OA
ATOM     12  O   UNL     1      -4.765  -2.218 132.000  0.00  0.00    +0.000 OA
ATOM     13  C   UNL     1      -4.825  -3.281 132.868  0.00  0.00    +0.000 C 
ATOM     14  C   UNL     1      -6.052  -2.767 133.475  0.00  0.00    +0.000 A 
ATOM     15  C   UNL     1      -7.350  -3.264 133.194  0.00  0.00    +0.000 A 
ATOM     16  C   UNL     1      -8.338  -3.409 134.149  0.00  0.00    +0.000 A 
ATOM     17  C   UNL     1      -7.833  -3.239 135.400  0.00  0.00    +0.000 A 
ATOM     18  C   UNL     1      -6.550  -2.355 135.482  0.00  0.00    +0.000 A 
ATOM     19  C   UNL     1      -5.887  -1.637 134.234  0.00  0.00    +0.000 A 
ENDBRANCH   6   9
BRANCH   1  25
ATOM     20  C   UNL     1      -7.536   5.194 132.955  0.00  0.00    +0.000 A 
ATOM     21  C   UNL     1      -8.833   5.673 132.687  0.00  0.00    +0.000 A 
ATOM     22  C   UNL     1      -9.102   6.506 131.615  0.00  0.00    +0.000 A 
ATOM     23  C   UNL     1      -8.026   7.016 130.910  0.00  0.00    +0.000 A 
ATOM     24  C   UNL     1      -6.735   6.505 131.115  0.00  0.00    +0.000 A 
ATOM     25  C   UNL     1      -6.445   5.560 132.140  0.00  0.00    +0.000 A 
BRANCH  20  27
ATOM     26  C   UNL     1      -7.910   2.981 133.614  0.00  0.00    +0.000 C 
ATOM     27  O   UNL     1      -7.614   4.300 133.991  0.00  0.00    +0.000 OA
ENDBRANCH  20  27
BRANCH  22  28
ATOM     28  O   UNL     1     -10.421   6.681 131.300  0.00  0.00    +0.000 OA
BRANCH  28  29
ATOM     29  C   UNL     1     -10.900   6.088 130.084  0.00  0.00    +0.000 C 
ATOM     30  C   UNL     1     -11.518   4.679 130.232  0.00  0.00    +0.000 C 
BRANCH  29  31
ATOM     31  C   UNL     1     -11.953   7.011 129.481  0.00  0.00    +0.000 A 
ATOM     32  C   UNL     1     -12.855   6.556 128.502  0.00  0.00    +0.000 A 
ATOM     33  C   UNL     1     -13.655   7.449 127.798  0.00  0.00    +0.000 A 
ATOM     34  C   UNL     1     -13.673   8.790 128.161  0.00  0.00    +0.000 A 
ATOM     35  C   UNL     1     -12.838   9.249 129.179  0.00  0.00    +0.000 A 
ATOM     36  C   UNL     1     -11.974   8.367 129.829  0.00  0.00    +0.000 A 
ENDBRANCH  29  31
ENDBRANCH  28  29
ENDBRANCH  22  28
ENDBRANCH   1  25
TORSDOF 6
ENDMDL
MODEL 9
REMARK VINA RESULT:      -9.2      4.013      9.461
REMARK  Name = CHEMBL102994
REMARK  8 active torsions:
REMARK  status: ('A' for Active; 'I' for Inactive)
REMARK    1  A    between atoms: C_1  and  O_2
REMARK    2  A    between atoms: O_2  and  C_3
REMARK    3  A    between atoms: C_5  and  O_6
REMARK    4  A    between atoms: O_6  and  C_7
REMARK    5  A    between atoms: C_7  and  C_8
REMARK    6  A    between atoms: C_7  and  C_9
REMARK    7  A    between atoms: C_17  and  C_18
REMARK    8  A    between atoms: C_23  and  N_24
REMARK                            x       y       z     vdW  Elec       q    Type
REMARK                         _______ _______ _______ _____ _____    ______ ____
ROOT
ATOM      1  C   UNL     1      -4.742   4.917 127.646  0.00  0.00    +0.000 C 
ATOM      2  O   UNL     1      -3.948   5.842 127.440  0.00  0.00    +0.000 OA
ATOM      3  N   UNL     1      -5.622   4.501 126.607  0.00  0.00    +0.000 N 
ATOM      4  C   UNL     1      -4.974   3.860 125.398  0.00  0.00    +0.000 C 
ATOM      5  C   UNL     1      -5.801   3.992 124.143  0.00  0.00    +0.000 C 
ATOM      6  C   UNL     1      -7.220   3.002 124.273  0.00  0.00    +0.000 C 
ATOM      7  C   UNL     1      -7.864   4.078 125.542  0.00  0.00    +0.000 C 
ATOM      8  C   UNL     1      -7.081   4.228 126.850  0.00  0.00    +0.000 C 
ENDROOT
BRANCH   6   9
ATOM      9  N   UNL     1      -6.983   1.287 123.591  0.00  0.00    +0.000 N 
ATOM     10  C   UNL     1      -8.399   1.440 123.246  0.00  0.00    +0.000 C 
ATOM     11  O   UNL     1      -8.911   2.244 122.583  0.00  0.00    +0.000 OA
ATOM     12  O   UNL     1      -9.206   0.641 124.000  0.00  0.00    +0.000 OA
ATOM     13  C   UNL     1      -9.232  -0.419 123.128  0.00  0.00    +0.000 C 
ATOM     14  C   UNL     1      -8.185  -1.113 123.877  0.00  0.00    +0.000 A 
ATOM     15  C   UNL     1      -8.421  -2.184 124.775  0.00  0.00    +0.000 A 
ATOM     16  C   UNL     1      -7.592  -3.283 124.891  0.00  0.00    +0.000 A 
ATOM     17  C   UNL     1      -6.674  -3.307 123.888  0.00  0.00    +0.000 A 
ATOM     18  C   UNL     1      -6.333  -1.917 123.268  0.00  0.00    +0.000 A 
ATOM     19  C   UNL     1      -6.940  -0.545 123.781  0.00  0.00    +0.000 A 
ENDBRANCH   6   9
BRANCH   1  25
ATOM     20  C   UNL     1      -4.481   2.804 129.233  0.00  0.00    +0.000 A 
ATOM     21  C   UNL     1      -4.370   2.314 130.548  0.00  0.00    +0.000 A 
ATOM     22  C   UNL     1      -4.414   3.150 131.651  0.00  0.00    +0.000 A 
ATOM     23  C   UNL     1      -4.381   4.515 131.424  0.00  0.00    +0.000 A 
ATOM     24  C   UNL     1      -4.557   5.026 130.129  0.00  0.00    +0.000 A 
ATOM     25  C   UNL     1      -4.629   4.185 128.983  0.00  0.00    +0.000 A 
BRANCH  20  27
ATOM     26  C   UNL     1      -5.359   0.680 128.799  0.00  0.00    +0.000 C 
ATOM     27  O   UNL     1      -4.532   1.734 128.378  0.00  0.00    +0.000 OA
ENDBRANCH  20  27
BRANCH  22  28
ATOM     28  O   UNL     1      -4.570   2.544 132.865  0.00  0.00    +0.000 OA
BRANCH  28  29
ATOM     29  C   UNL     1      -5.620   1.573 132.995  0.00  0.00    +0.000 C 
ATOM     30  C   UNL     1      -5.355   0.445 134.020  0.00  0.00    +0.000 C 
BRANCH  29  31
ATOM     31  C   UNL     1      -6.898   2.297 133.401  0.00  0.00    +0.000 A 
ATOM     32  C   UNL     1      -8.142   1.966 132.834  0.00  0.00    +0.000 A 
ATOM     33  C   UNL     1      -9.256   2.772 133.037  0.00  0.00    +0.000 A 
ATOM     34  C   UNL     1      -9.182   3.838 133.925  0.00  0.00    +0.000 A 
ATOM     35  C   UNL     1      -7.975   4.140 134.554  0.00  0.00    +0.000 A 
ATOM     36  C   UNL     1      -6.835   3.380 134.286  0.00  0.00    +0.000 A 
ENDBRANCH  29  31
ENDBRANCH  28  29
ENDBRANCH  22  28
ENDBRANCH   1  25
TORSDOF 6
ENDMDL
