MODEL 1
REMARK VINA RESULT:      -8.4      0.000      0.000
REMARK  Name = CHEMBL563771
REMARK  8 active torsions:
REMARK  status: ('A' for Active; 'I' for Inactive)
REMARK    1  A    between atoms: C_1  and  O_2
REMARK    2  A    between atoms: O_2  and  C_3
REMARK    3  A    between atoms: C_6  and  N_7
REMARK    4  A    between atoms: C_8  and  C_9
REMARK    5  A    between atoms: C_12  and  C_13
REMARK    6  A    between atoms: C_16  and  O_17
REMARK    7  A    between atoms: O_17  and  C_18
REMARK    8  A    between atoms: C_24  and  C_25
REMARK                            x       y       z     vdW  Elec       q    Type
REMARK                         _______ _______ _______ _____ _____    ______ ____
ROOT
ATOM      1  C   UNL     1      -8.123  -0.037 125.132  0.00  0.00    +0.000 A 
ATOM      2  C   UNL     1      -7.216  -0.103 124.077  0.00  0.00    +0.000 A 
ATOM      3  N   UNL     1      -6.614   0.986 123.547  0.00  0.00    +0.000 NA
ATOM      4  C   UNL     1      -7.008   2.179 124.043  0.00  0.00    +0.000 A 
ATOM      5  C   UNL     1      -7.920   2.256 125.092  0.00  0.00    +0.000 A 
ATOM      6  N   UNL     1      -8.480   1.156 125.671  0.00  0.00    +0.000 NA
ENDROOT
BRANCH   1  12
ATOM      7  N   UNL     1      -8.222  -1.930 126.829  0.00  0.00    +0.000 N 
ATOM      8  C   UNL     1      -8.991  -3.091 126.895  0.00  0.00    +0.000 A 
ATOM      9  C   UNL     1      -9.019  -4.148 127.941  0.00  0.00    +0.000 C 
ATOM     10  N   UNL     1      -9.857  -3.084 125.897  0.00  0.00    +0.000 NA
ATOM     11  N   UNL     1      -9.694  -1.939 125.180  0.00  0.00    +0.000 NA
ATOM     12  C   UNL     1      -8.708  -1.238 125.717  0.00  0.00    +0.000 A 
BRANCH   7  16
ATOM     13  C   UNL     1      -5.109  -0.834 129.398  0.00  0.00    +0.000 A 
ATOM     14  C   UNL     1      -4.855  -1.795 128.434  0.00  0.00    +0.000 A 
ATOM     15  C   UNL     1      -5.877  -2.136 127.540  0.00  0.00    +0.000 A 
ATOM     16  C   UNL     1      -7.125  -1.509 127.636  0.00  0.00    +0.000 A 
ATOM     17  C   UNL     1      -7.306  -0.603 128.669  0.00  0.00    +0.000 A 
ATOM     18  N   UNL     1      -6.325  -0.261 129.548  0.00  0.00    +0.000 NA
BRANCH  13  20
ATOM     19  C   UNL     1      -3.581  -1.574 131.011  0.00  0.00    +0.000 C 
ATOM     20  O   UNL     1      -4.170  -0.467 130.329  0.00  0.00    +0.000 OA
ENDBRANCH  13  20
ENDBRANCH   7  16
ENDBRANCH   1  12
BRANCH   4  21
ATOM     21  O   UNL     1      -6.553   3.364 123.480  0.00  0.00    +0.000 OA
BRANCH  21  22
ATOM     22  C   UNL     1      -6.973   3.662 122.197  0.00  0.00    +0.000 A 
ATOM     23  C   UNL     1      -8.332   3.446 121.920  0.00  0.00    +0.000 A 
ATOM     24  C   UNL     1      -8.837   3.689 120.640  0.00  0.00    +0.000 A 
ATOM     25  C   UNL     1      -7.975   4.105 119.637  0.00  0.00    +0.000 A 
ATOM     26  F   UNL     1      -8.454   4.332 118.406  0.00  0.00    +0.000 F 
ATOM     27  C   UNL     1      -6.620   4.286 119.887  0.00  0.00    +0.000 A 
ATOM     28  C   UNL     1      -6.094   4.067 121.172  0.00  0.00    +0.000 A 
ATOM     29  C   UNL     1      -4.625   4.289 121.391  0.00  0.00    +0.000 C 
ENDBRANCH  21  22
ENDBRANCH   4  21
TORSDOF 5
ENDMDL
MODEL 2
REMARK VINA RESULT:      -8.2      7.164      9.234
REMARK  Name = CHEMBL563771
REMARK  8 active torsions:
REMARK  status: ('A' for Active; 'I' for Inactive)
REMARK    1  A    between atoms: C_1  and  O_2
REMARK    2  A    between atoms: O_2  and  C_3
REMARK    3  A    between atoms: C_6  and  N_7
REMARK    4  A    between atoms: C_8  and  C_9
REMARK    5  A    between atoms: C_12  and  C_13
REMARK    6  A    between atoms: C_16  and  O_17
REMARK    7  A    between atoms: O_17  and  C_18
REMARK    8  A    between atoms: C_24  and  C_25
REMARK                            x       y       z     vdW  Elec       q    Type
REMARK                         _______ _______ _______ _____ _____    ______ ____
ROOT
ATOM      1  C   UNL     1      -6.802   5.588 131.505  0.00  0.00    +0.000 A 
ATOM      2  C   UNL     1      -7.244   6.769 130.912  0.00  0.00    +0.000 A 
ATOM      3  N   UNL     1      -8.419   6.870 130.249  0.00  0.00    +0.000 NA
ATOM      4  C   UNL     1      -9.119   5.724 130.110  0.00  0.00    +0.000 A 
ATOM      5  C   UNL     1      -8.682   4.537 130.691  0.00  0.00    +0.000 A 
ATOM      6  N   UNL     1      -7.529   4.447 131.415  0.00  0.00    +0.000 NA
ENDROOT
BRANCH   1  12
ATOM      7  N   UNL     1      -4.320   5.097 131.779  0.00  0.00    +0.000 N 
ATOM      8  C   UNL     1      -3.492   5.049 132.900  0.00  0.00    +0.000 A 
ATOM      9  C   UNL     1      -2.031   4.783 132.983  0.00  0.00    +0.000 C 
ATOM     10  N   UNL     1      -4.189   5.420 133.959  0.00  0.00    +0.000 NA
ATOM     11  N   UNL     1      -5.455   5.730 133.568  0.00  0.00    +0.000 NA
ATOM     12  C   UNL     1      -5.557   5.531 132.263  0.00  0.00    +0.000 A 
BRANCH   7  16
ATOM     13  C   UNL     1      -3.284   4.065 127.861  0.00  0.00    +0.000 A 
ATOM     14  C   UNL     1      -3.673   3.053 128.724  0.00  0.00    +0.000 A 
ATOM     15  C   UNL     1      -4.065   3.394 130.024  0.00  0.00    +0.000 A 
ATOM     16  C   UNL     1      -4.056   4.735 130.427  0.00  0.00    +0.000 A 
ATOM     17  C   UNL     1      -3.596   5.672 129.514  0.00  0.00    +0.000 A 
ATOM     18  N   UNL     1      -3.210   5.359 128.247  0.00  0.00    +0.000 NA
BRANCH  13  20
ATOM     19  C   UNL     1      -1.644   3.063 126.525  0.00  0.00    +0.000 C 
ATOM     20  O   UNL     1      -2.858   3.810 126.582  0.00  0.00    +0.000 OA
ENDBRANCH  13  20
ENDBRANCH   7  16
ENDBRANCH   1  12
BRANCH   4  21
ATOM     21  O   UNL     1     -10.271   5.689 129.334  0.00  0.00    +0.000 OA
BRANCH  21  22
ATOM     22  C   UNL     1     -11.056   6.826 129.309  0.00  0.00    +0.000 A 
ATOM     23  C   UNL     1     -11.730   7.144 130.499  0.00  0.00    +0.000 A 
ATOM     24  C   UNL     1     -12.572   8.257 130.555  0.00  0.00    +0.000 A 
ATOM     25  C   UNL     1     -12.768   9.020 129.414  0.00  0.00    +0.000 A 
ATOM     26  F   UNL     1     -13.581  10.085 129.460  0.00  0.00    +0.000 F 
ATOM     27  C   UNL     1     -12.138   8.695 128.218  0.00  0.00    +0.000 A 
ATOM     28  C   UNL     1     -11.270   7.590 128.145  0.00  0.00    +0.000 A 
ATOM     29  C   UNL     1     -10.605   7.290 126.832  0.00  0.00    +0.000 C 
ENDBRANCH  21  22
ENDBRANCH   4  21
TORSDOF 5
ENDMDL
MODEL 3
REMARK VINA RESULT:      -8.1      5.000      8.122
REMARK  Name = CHEMBL563771
REMARK  8 active torsions:
REMARK  status: ('A' for Active; 'I' for Inactive)
REMARK    1  A    between atoms: C_1  and  O_2
REMARK    2  A    between atoms: O_2  and  C_3
REMARK    3  A    between atoms: C_6  and  N_7
REMARK    4  A    between atoms: C_8  and  C_9
REMARK    5  A    between atoms: C_12  and  C_13
REMARK    6  A    between atoms: C_16  and  O_17
REMARK    7  A    between atoms: O_17  and  C_18
REMARK    8  A    between atoms: C_24  and  C_25
REMARK                            x       y       z     vdW  Elec       q    Type
REMARK                         _______ _______ _______ _____ _____    ______ ____
ROOT
ATOM      1  C   UNL     1      -6.768   4.056 125.772  0.00  0.00    +0.000 A 
ATOM      2  C   UNL     1      -7.920   4.678 126.245  0.00  0.00    +0.000 A 
ATOM      3  N   UNL     1      -8.295   4.654 127.544  0.00  0.00    +0.000 NA
ATOM      4  C   UNL     1      -7.528   3.907 128.367  0.00  0.00    +0.000 A 
ATOM      5  C   UNL     1      -6.379   3.274 127.902  0.00  0.00    +0.000 A 
ATOM      6  N   UNL     1      -5.963   3.350 126.605  0.00  0.00    +0.000 NA
ENDROOT
BRANCH   1  12
ATOM      7  N   UNL     1      -6.619   3.206 123.378  0.00  0.00    +0.000 N 
ATOM      8  C   UNL     1      -5.891   3.643 122.271  0.00  0.00    +0.000 A 
ATOM      9  C   UNL     1      -5.876   3.112 120.882  0.00  0.00    +0.000 C 
ATOM     10  N   UNL     1      -5.255   4.754 122.593  0.00  0.00    +0.000 NA
ATOM     11  N   UNL     1      -5.554   5.077 123.881  0.00  0.00    +0.000 NA
ATOM     12  C   UNL     1      -6.363   4.152 124.373  0.00  0.00    +0.000 A 
BRANCH   7  16
ATOM     13  C   UNL     1      -8.938  -0.265 123.621  0.00  0.00    +0.000 A 
ATOM     14  C   UNL     1      -7.602  -0.344 123.979  0.00  0.00    +0.000 A 
ATOM     15  C   UNL     1      -6.829   0.822 123.944  0.00  0.00    +0.000 A 
ATOM     16  C   UNL     1      -7.410   2.034 123.551  0.00  0.00    +0.000 A 
ATOM     17  C   UNL     1      -8.738   2.005 123.154  0.00  0.00    +0.000 A 
ATOM     18  N   UNL     1      -9.505   0.881 123.180  0.00  0.00    +0.000 NA
BRANCH  13  20
ATOM     19  C   UNL     1      -9.070  -2.578 123.280  0.00  0.00    +0.000 C 
ATOM     20  O   UNL     1      -9.755  -1.368 123.600  0.00  0.00    +0.000 OA
ENDBRANCH  13  20
ENDBRANCH   7  16
ENDBRANCH   1  12
BRANCH   4  21
ATOM     21  O   UNL     1      -7.898   3.707 129.690  0.00  0.00    +0.000 OA
BRANCH  21  22
ATOM     22  C   UNL     1      -8.824   4.578 130.232  0.00  0.00    +0.000 A 
ATOM     23  C   UNL     1     -10.173   4.207 130.113  0.00  0.00    +0.000 A 
ATOM     24  C   UNL     1     -11.179   5.044 130.602  0.00  0.00    +0.000 A 
ATOM     25  C   UNL     1     -10.835   6.262 131.169  0.00  0.00    +0.000 A 
ATOM     26  F   UNL     1     -11.797   7.071 131.633  0.00  0.00    +0.000 F 
ATOM     27  C   UNL     1      -9.506   6.659 131.259  0.00  0.00    +0.000 A 
ATOM     28  C   UNL     1      -8.476   5.824 130.792  0.00  0.00    +0.000 A 
ATOM     29  C   UNL     1      -7.057   6.297 130.924  0.00  0.00    +0.000 C 
ENDBRANCH  21  22
ENDBRANCH   4  21
TORSDOF 5
ENDMDL
MODEL 4
REMARK VINA RESULT:      -8.1      5.056      7.447
REMARK  Name = CHEMBL563771
REMARK  8 active torsions:
REMARK  status: ('A' for Active; 'I' for Inactive)
REMARK    1  A    between atoms: C_1  and  O_2
REMARK    2  A    between atoms: O_2  and  C_3
REMARK    3  A    between atoms: C_6  and  N_7
REMARK    4  A    between atoms: C_8  and  C_9
REMARK    5  A    between atoms: C_12  and  C_13
REMARK    6  A    between atoms: C_16  and  O_17
REMARK    7  A    between atoms: O_17  and  C_18
REMARK    8  A    between atoms: C_24  and  C_25
REMARK                            x       y       z     vdW  Elec       q    Type
REMARK                         _______ _______ _______ _____ _____    ______ ____
ROOT
ATOM      1  C   UNL     1      -8.191   2.234 128.843  0.00  0.00    +0.000 A 
ATOM      2  C   UNL     1      -9.333   2.589 129.557  0.00  0.00    +0.000 A 
ATOM      3  N   UNL     1      -9.696   3.872 129.784  0.00  0.00    +0.000 NA
ATOM      4  C   UNL     1      -8.833   4.816 129.352  0.00  0.00    +0.000 A 
ATOM      5  C   UNL     1      -7.684   4.472 128.645  0.00  0.00    +0.000 A 
ATOM      6  N   UNL     1      -7.349   3.181 128.358  0.00  0.00    +0.000 NA
ENDROOT
BRANCH   1  12
ATOM      7  N   UNL     1      -8.005   0.191 127.338  0.00  0.00    +0.000 N 
ATOM      8  C   UNL     1      -7.742  -1.151 127.608  0.00  0.00    +0.000 A 
ATOM      9  C   UNL     1      -7.617  -2.296 126.667  0.00  0.00    +0.000 C 
ATOM     10  N   UNL     1      -7.470  -1.281 128.894  0.00  0.00    +0.000 NA
ATOM     11  N   UNL     1      -7.530  -0.055 129.483  0.00  0.00    +0.000 NA
ATOM     12  C   UNL     1      -7.862   0.841 128.567  0.00  0.00    +0.000 A 
BRANCH   7  16
ATOM     13  C   UNL     1      -9.074   1.835 123.645  0.00  0.00    +0.000 A 
ATOM     14  C   UNL     1     -10.071   1.269 124.422  0.00  0.00    +0.000 A 
ATOM     15  C   UNL     1      -9.730   0.757 125.680  0.00  0.00    +0.000 A 
ATOM     16  C   UNL     1      -8.405   0.822 126.125  0.00  0.00    +0.000 A 
ATOM     17  C   UNL     1      -7.465   1.352 125.254  0.00  0.00    +0.000 A 
ATOM     18  N   UNL     1      -7.777   1.853 124.027  0.00  0.00    +0.000 NA
BRANCH  13  20
ATOM     19  C   UNL     1      -8.322   3.242 121.931  0.00  0.00    +0.000 C 
ATOM     20  O   UNL     1      -9.321   2.331 122.389  0.00  0.00    +0.000 OA
ENDBRANCH  13  20
ENDBRANCH   7  16
ENDBRANCH   1  12
BRANCH   4  21
ATOM     21  O   UNL     1      -9.043   6.156 129.650  0.00  0.00    +0.000 OA
BRANCH  21  22
ATOM     22  C   UNL     1     -10.276   6.694 129.332  0.00  0.00    +0.000 A 
ATOM     23  C   UNL     1     -10.452   7.104 128.001  0.00  0.00    +0.000 A 
ATOM     24  C   UNL     1     -11.656   7.689 127.599  0.00  0.00    +0.000 A 
ATOM     25  C   UNL     1     -12.658   7.897 128.535  0.00  0.00    +0.000 A 
ATOM     26  F   UNL     1     -13.811   8.465 128.155  0.00  0.00    +0.000 F 
ATOM     27  C   UNL     1     -12.482   7.531 129.864  0.00  0.00    +0.000 A 
ATOM     28  C   UNL     1     -11.287   6.922 130.287  0.00  0.00    +0.000 A 
ATOM     29  C   UNL     1     -11.155   6.535 131.732  0.00  0.00    +0.000 C 
ENDBRANCH  21  22
ENDBRANCH   4  21
TORSDOF 5
ENDMDL
MODEL 5
REMARK VINA RESULT:      -8.0      6.580      8.915
REMARK  Name = CHEMBL563771
REMARK  8 active torsions:
REMARK  status: ('A' for Active; 'I' for Inactive)
REMARK    1  A    between atoms: C_1  and  O_2
REMARK    2  A    between atoms: O_2  and  C_3
REMARK    3  A    between atoms: C_6  and  N_7
REMARK    4  A    between atoms: C_8  and  C_9
REMARK    5  A    between atoms: C_12  and  C_13
REMARK    6  A    between atoms: C_16  and  O_17
REMARK    7  A    between atoms: O_17  and  C_18
REMARK    8  A    between atoms: C_24  and  C_25
REMARK                            x       y       z     vdW  Elec       q    Type
REMARK                         _______ _______ _______ _____ _____    ______ ____
ROOT
ATOM      1  C   UNL     1      -8.671   4.871 129.754  0.00  0.00    +0.000 A 
ATOM      2  C   UNL     1      -9.655   4.032 130.273  0.00  0.00    +0.000 A 
ATOM      3  N   UNL     1     -10.976   4.324 130.229  0.00  0.00    +0.000 NA
ATOM      4  C   UNL     1     -11.297   5.535 129.726  0.00  0.00    +0.000 A 
ATOM      5  C   UNL     1     -10.320   6.384 129.213  0.00  0.00    +0.000 A 
ATOM      6  N   UNL     1      -8.994   6.064 129.197  0.00  0.00    +0.000 NA
ENDROOT
BRANCH   1  12
ATOM      7  N   UNL     1      -6.585   3.814 128.751  0.00  0.00    +0.000 N 
ATOM      8  C   UNL     1      -5.330   3.528 129.287  0.00  0.00    +0.000 A 
ATOM      9  C   UNL     1      -4.136   2.932 128.628  0.00  0.00    +0.000 C 
ATOM     10  N   UNL     1      -5.275   3.999 130.519  0.00  0.00    +0.000 NA
ATOM     11  N   UNL     1      -6.457   4.607 130.811  0.00  0.00    +0.000 NA
ATOM     12  C   UNL     1      -7.262   4.496 129.766  0.00  0.00    +0.000 A 
BRANCH   7  16
ATOM     13  C   UNL     1      -8.473   2.857 125.145  0.00  0.00    +0.000 A 
ATOM     14  C   UNL     1      -7.723   4.020 125.203  0.00  0.00    +0.000 A 
ATOM     15  C   UNL     1      -7.050   4.326 126.392  0.00  0.00    +0.000 A 
ATOM     16  C   UNL     1      -7.147   3.463 127.490  0.00  0.00    +0.000 A 
ATOM     17  C   UNL     1      -7.968   2.353 127.359  0.00  0.00    +0.000 A 
ATOM     18  N   UNL     1      -8.630   2.041 126.212  0.00  0.00    +0.000 NA
BRANCH  13  20
ATOM     19  C   UNL     1      -8.558   2.891 122.805  0.00  0.00    +0.000 C 
ATOM     20  O   UNL     1      -9.185   2.503 124.027  0.00  0.00    +0.000 OA
ENDBRANCH  13  20
ENDBRANCH   7  16
ENDBRANCH   1  12
BRANCH   4  21
ATOM     21  O   UNL     1     -12.609   5.989 129.758  0.00  0.00    +0.000 OA
BRANCH  21  22
ATOM     22  C   UNL     1     -12.817   7.348 129.615  0.00  0.00    +0.000 A 
ATOM     23  C   UNL     1     -12.783   8.110 130.794  0.00  0.00    +0.000 A 
ATOM     24  C   UNL     1     -13.016   9.487 130.749  0.00  0.00    +0.000 A 
ATOM     25  C   UNL     1     -13.320  10.086 129.536  0.00  0.00    +0.000 A 
ATOM     26  F   UNL     1     -13.551  11.405 129.488  0.00  0.00    +0.000 F 
ATOM     27  C   UNL     1     -13.393   9.337 128.366  0.00  0.00    +0.000 A 
ATOM     28  C   UNL     1     -13.143   7.954 128.386  0.00  0.00    +0.000 A 
ATOM     29  C   UNL     1     -13.224   7.195 127.092  0.00  0.00    +0.000 C 
ENDBRANCH  21  22
ENDBRANCH   4  21
TORSDOF 5
ENDMDL
MODEL 6
REMARK VINA RESULT:      -7.9      5.735      7.081
REMARK  Name = CHEMBL563771
REMARK  8 active torsions:
REMARK  status: ('A' for Active; 'I' for Inactive)
REMARK    1  A    between atoms: C_1  and  O_2
REMARK    2  A    between atoms: O_2  and  C_3
REMARK    3  A    between atoms: C_6  and  N_7
REMARK    4  A    between atoms: C_8  and  C_9
REMARK    5  A    between atoms: C_12  and  C_13
REMARK    6  A    between atoms: C_16  and  O_17
REMARK    7  A    between atoms: O_17  and  C_18
REMARK    8  A    between atoms: C_24  and  C_25
REMARK                            x       y       z     vdW  Elec       q    Type
REMARK                         _______ _______ _______ _____ _____    ______ ____
ROOT
ATOM      1  C   UNL     1      -8.620   2.882 128.896  0.00  0.00    +0.000 A 
ATOM      2  C   UNL     1      -7.717   3.923 128.697  0.00  0.00    +0.000 A 
ATOM      3  N   UNL     1      -7.857   5.143 129.264  0.00  0.00    +0.000 NA
ATOM      4  C   UNL     1      -8.986   5.337 129.979  0.00  0.00    +0.000 A 
ATOM      5  C   UNL     1      -9.899   4.305 130.176  0.00  0.00    +0.000 A 
ATOM      6  N   UNL     1      -9.728   3.054 129.659  0.00  0.00    +0.000 NA
ENDROOT
BRANCH   1  12
ATOM      7  N   UNL     1      -7.854   0.456 128.970  0.00  0.00    +0.000 N 
ATOM      8  C   UNL     1      -7.684  -0.504 127.973  0.00  0.00    +0.000 A 
ATOM      9  C   UNL     1      -7.259  -1.925 128.094  0.00  0.00    +0.000 C 
ATOM     10  N   UNL     1      -8.098  -0.002 126.824  0.00  0.00    +0.000 NA
ATOM     11  N   UNL     1      -8.554   1.263 127.035  0.00  0.00    +0.000 NA
ATOM     12  C   UNL     1      -8.406   1.561 128.316  0.00  0.00    +0.000 A 
BRANCH   7  16
ATOM     13  C   UNL     1      -6.828   0.076 133.006  0.00  0.00    +0.000 A 
ATOM     14  C   UNL     1      -5.842   0.462 132.114  0.00  0.00    +0.000 A 
ATOM     15  C   UNL     1      -6.187   0.636 130.768  0.00  0.00    +0.000 A 
ATOM     16  C   UNL     1      -7.505   0.417 130.351  0.00  0.00    +0.000 A 
ATOM     17  C   UNL     1      -8.410  -0.024 131.304  0.00  0.00    +0.000 A 
ATOM     18  N   UNL     1      -8.094  -0.199 132.616  0.00  0.00    +0.000 NA
BRANCH  13  20
ATOM     19  C   UNL     1      -5.606   0.760 134.883  0.00  0.00    +0.000 C 
ATOM     20  O   UNL     1      -6.565  -0.144 134.335  0.00  0.00    +0.000 OA
ENDBRANCH  13  20
ENDBRANCH   7  16
ENDBRANCH   1  12
BRANCH   4  21
ATOM     21  O   UNL     1      -9.293   6.591 130.491  0.00  0.00    +0.000 OA
BRANCH  21  22
ATOM     22  C   UNL     1     -10.384   7.249 129.955  0.00  0.00    +0.000 A 
ATOM     23  C   UNL     1     -10.172   7.914 128.737  0.00  0.00    +0.000 A 
ATOM     24  C   UNL     1     -11.210   8.633 128.138  0.00  0.00    +0.000 A 
ATOM     25  C   UNL     1     -12.437   8.717 128.778  0.00  0.00    +0.000 A 
ATOM     26  F   UNL     1     -13.434   9.411 128.212  0.00  0.00    +0.000 F 
ATOM     27  C   UNL     1     -12.649   8.095 130.003  0.00  0.00    +0.000 A 
ATOM     28  C   UNL     1     -11.625   7.349 130.614  0.00  0.00    +0.000 A 
ATOM     29  C   UNL     1     -11.911   6.688 131.932  0.00  0.00    +0.000 C 
ENDBRANCH  21  22
ENDBRANCH   4  21
TORSDOF 5
ENDMDL
MODEL 7
REMARK VINA RESULT:      -7.9      7.376      9.137
REMARK  Name = CHEMBL563771
REMARK  8 active torsions:
REMARK  status: ('A' for Active; 'I' for Inactive)
REMARK    1  A    between atoms: C_1  and  O_2
REMARK    2  A    between atoms: O_2  and  C_3
REMARK    3  A    between atoms: C_6  and  N_7
REMARK    4  A    between atoms: C_8  and  C_9
REMARK    5  A    between atoms: C_12  and  C_13
REMARK    6  A    between atoms: C_16  and  O_17
REMARK    7  A    between atoms: O_17  and  C_18
REMARK    8  A    between atoms: C_24  and  C_25
REMARK                            x       y       z     vdW  Elec       q    Type
REMARK                         _______ _______ _______ _____ _____    ______ ____
ROOT
ATOM      1  C   UNL     1      -8.894   3.605 131.829  0.00  0.00    +0.000 A 
ATOM      2  C   UNL     1      -9.179   3.068 130.576  0.00  0.00    +0.000 A 
ATOM      3  N   UNL     1     -10.095   3.599 129.734  0.00  0.00    +0.000 NA
ATOM      4  C   UNL     1     -10.799   4.648 130.211  0.00  0.00    +0.000 A 
ATOM      5  C   UNL     1     -10.527   5.186 131.465  0.00  0.00    +0.000 A 
ATOM      6  N   UNL     1      -9.559   4.693 132.290  0.00  0.00    +0.000 NA
ENDROOT
BRANCH   1  12
ATOM      7  N   UNL     1      -6.508   3.404 132.693  0.00  0.00    +0.000 N 
ATOM      8  C   UNL     1      -5.891   2.478 133.533  0.00  0.00    +0.000 A 
ATOM      9  C   UNL     1      -4.487   2.439 134.025  0.00  0.00    +0.000 C 
ATOM     10  N   UNL     1      -6.803   1.635 133.980  0.00  0.00    +0.000 NA
ATOM     11  N   UNL     1      -8.016   1.986 133.472  0.00  0.00    +0.000 NA
ATOM     12  C   UNL     1      -7.858   3.041 132.687  0.00  0.00    +0.000 A 
BRANCH   7  16
ATOM     13  C   UNL     1      -5.048   6.472 130.256  0.00  0.00    +0.000 A 
ATOM     14  C   UNL     1      -5.772   6.821 131.384  0.00  0.00    +0.000 A 
ATOM     15  C   UNL     1      -6.226   5.802 132.230  0.00  0.00    +0.000 A 
ATOM     16  C   UNL     1      -5.947   4.465 131.925  0.00  0.00    +0.000 A 
ATOM     17  C   UNL     1      -5.267   4.208 130.745  0.00  0.00    +0.000 A 
ATOM     18  N   UNL     1      -4.819   5.185 129.909  0.00  0.00    +0.000 NA
BRANCH  13  20
ATOM     19  C   UNL     1      -3.805   8.435 129.963  0.00  0.00    +0.000 C 
ATOM     20  O   UNL     1      -4.594   7.409 129.361  0.00  0.00    +0.000 OA
ENDBRANCH  13  20
ENDBRANCH   7  16
ENDBRANCH   1  12
BRANCH   4  21
ATOM     21  O   UNL     1     -11.852   5.183 129.481  0.00  0.00    +0.000 OA
BRANCH  21  22
ATOM     22  C   UNL     1     -12.075   6.543 129.588  0.00  0.00    +0.000 A 
ATOM     23  C   UNL     1     -12.905   6.957 130.642  0.00  0.00    +0.000 A 
ATOM     24  C   UNL     1     -13.212   8.310 130.807  0.00  0.00    +0.000 A 
ATOM     25  C   UNL     1     -12.721   9.234 129.896  0.00  0.00    +0.000 A 
ATOM     26  F   UNL     1     -13.019  10.533 130.045  0.00  0.00    +0.000 F 
ATOM     27  C   UNL     1     -11.929   8.834 128.826  0.00  0.00    +0.000 A 
ATOM     28  C   UNL     1     -11.592   7.480 128.653  0.00  0.00    +0.000 A 
ATOM     29  C   UNL     1     -10.723   7.103 127.487  0.00  0.00    +0.000 C 
ENDBRANCH  21  22
ENDBRANCH   4  21
TORSDOF 5
ENDMDL
MODEL 8
REMARK VINA RESULT:      -7.9      3.676      8.271
REMARK  Name = CHEMBL563771
REMARK  8 active torsions:
REMARK  status: ('A' for Active; 'I' for Inactive)
REMARK    1  A    between atoms: C_1  and  O_2
REMARK    2  A    between atoms: O_2  and  C_3
REMARK    3  A    between atoms: C_6  and  N_7
REMARK    4  A    between atoms: C_8  and  C_9
REMARK    5  A    between atoms: C_12  and  C_13
REMARK    6  A    between atoms: C_16  and  O_17
REMARK    7  A    between atoms: O_17  and  C_18
REMARK    8  A    between atoms: C_24  and  C_25
REMARK                            x       y       z     vdW  Elec       q    Type
REMARK                         _______ _______ _______ _____ _____    ______ ____
ROOT
ATOM      1  C   UNL     1      -6.300   2.468 125.890  0.00  0.00    +0.000 A 
ATOM      2  C   UNL     1      -5.363   1.525 126.304  0.00  0.00    +0.000 A 
ATOM      3  N   UNL     1      -5.478   0.822 127.454  0.00  0.00    +0.000 NA
ATOM      4  C   UNL     1      -6.522   1.149 128.245  0.00  0.00    +0.000 A 
ATOM      5  C   UNL     1      -7.460   2.097 127.843  0.00  0.00    +0.000 A 
ATOM      6  N   UNL     1      -7.382   2.760 126.655  0.00  0.00    +0.000 NA
ENDROOT
BRANCH   1  12
ATOM      7  N   UNL     1      -6.710   2.745 123.393  0.00  0.00    +0.000 N 
ATOM      8  C   UNL     1      -6.179   3.622 122.448  0.00  0.00    +0.000 A 
ATOM      9  C   UNL     1      -6.490   3.748 120.999  0.00  0.00    +0.000 C 
ATOM     10  N   UNL     1      -5.392   4.485 123.064  0.00  0.00    +0.000 NA
ATOM     11  N   UNL     1      -5.398   4.214 124.398  0.00  0.00    +0.000 NA
ATOM     12  C   UNL     1      -6.175   3.165 124.614  0.00  0.00    +0.000 A 
BRANCH   7  16
ATOM     13  C   UNL     1      -9.150  -0.642 123.145  0.00  0.00    +0.000 A 
ATOM     14  C   UNL     1      -9.759   0.602 123.197  0.00  0.00    +0.000 A 
ATOM     15  C   UNL     1      -8.949   1.743 123.235  0.00  0.00    +0.000 A 
ATOM     16  C   UNL     1      -7.556   1.612 123.221  0.00  0.00    +0.000 A 
ATOM     17  C   UNL     1      -7.036   0.326 123.227  0.00  0.00    +0.000 A 
ATOM     18  N   UNL     1      -7.807  -0.795 123.192  0.00  0.00    +0.000 NA
BRANCH  13  20
ATOM     19  C   UNL     1      -9.144  -2.933 123.628  0.00  0.00    +0.000 C 
ATOM     20  O   UNL     1      -9.872  -1.809 123.136  0.00  0.00    +0.000 OA
ENDBRANCH  13  20
ENDBRANCH   7  16
ENDBRANCH   1  12
BRANCH   4  21
ATOM     21  O   UNL     1      -6.658   0.584 129.506  0.00  0.00    +0.000 OA
BRANCH  21  22
ATOM     22  C   UNL     1      -6.500  -0.785 129.611  0.00  0.00    +0.000 A 
ATOM     23  C   UNL     1      -7.611  -1.569 129.261  0.00  0.00    +0.000 A 
ATOM     24  C   UNL     1      -7.553  -2.961 129.368  0.00  0.00    +0.000 A 
ATOM     25  C   UNL     1      -6.402  -3.557 129.862  0.00  0.00    +0.000 A 
ATOM     26  F   UNL     1      -6.344  -4.891 129.974  0.00  0.00    +0.000 F 
ATOM     27  C   UNL     1      -5.308  -2.791 130.248  0.00  0.00    +0.000 A 
ATOM     28  C   UNL     1      -5.338  -1.390 130.130  0.00  0.00    +0.000 A 
ATOM     29  C   UNL     1      -4.124  -0.612 130.550  0.00  0.00    +0.000 C 
ENDBRANCH  21  22
ENDBRANCH   4  21
TORSDOF 5
ENDMDL
MODEL 9
REMARK VINA RESULT:      -7.8      4.760      8.443
REMARK  Name = CHEMBL563771
REMARK  8 active torsions:
REMARK  status: ('A' for Active; 'I' for Inactive)
REMARK    1  A    between atoms: C_1  and  O_2
REMARK    2  A    between atoms: O_2  and  C_3
REMARK    3  A    between atoms: C_6  and  N_7
REMARK    4  A    between atoms: C_8  and  C_9
REMARK    5  A    between atoms: C_12  and  C_13
REMARK    6  A    between atoms: C_16  and  O_17
REMARK    7  A    between atoms: O_17  and  C_18
REMARK    8  A    between atoms: C_24  and  C_25
REMARK                            x       y       z     vdW  Elec       q    Type
REMARK                         _______ _______ _______ _____ _____    ______ ____
ROOT
ATOM      1  C   UNL     1      -6.925   3.604 125.588  0.00  0.00    +0.000 A 
ATOM      2  C   UNL     1      -8.012   4.263 126.156  0.00  0.00    +0.000 A 
ATOM      3  N   UNL     1      -8.442   4.031 127.417  0.00  0.00    +0.000 NA
ATOM      4  C   UNL     1      -7.809   3.045 128.086  0.00  0.00    +0.000 A 
ATOM      5  C   UNL     1      -6.726   2.374 127.524  0.00  0.00    +0.000 A 
ATOM      6  N   UNL     1      -6.249   2.650 126.277  0.00  0.00    +0.000 NA
ENDROOT
BRANCH   1  12
ATOM      7  N   UNL     1      -6.693   3.172 123.091  0.00  0.00    +0.000 N 
ATOM      8  C   UNL     1      -5.899   3.761 122.108  0.00  0.00    +0.000 A 
ATOM      9  C   UNL     1      -5.838   3.477 120.649  0.00  0.00    +0.000 C 
ATOM     10  N   UNL     1      -5.240   4.772 122.643  0.00  0.00    +0.000 NA
ATOM     11  N   UNL     1      -5.588   4.881 123.954  0.00  0.00    +0.000 NA
ATOM     12  C   UNL     1      -6.452   3.921 124.245  0.00  0.00    +0.000 A 
BRANCH   7  16
ATOM     13  C   UNL     1      -9.138  -0.220 123.166  0.00  0.00    +0.000 A 
ATOM     14  C   UNL     1      -9.736   1.015 122.976  0.00  0.00    +0.000 A 
ATOM     15  C   UNL     1      -8.922   2.151 122.904  0.00  0.00    +0.000 A 
ATOM     16  C   UNL     1      -7.533   2.023 123.026  0.00  0.00    +0.000 A 
ATOM     17  C   UNL     1      -7.029   0.756 123.273  0.00  0.00    +0.000 A 
ATOM     18  N   UNL     1      -7.805  -0.360 123.347  0.00  0.00    +0.000 NA
BRANCH  13  20
ATOM     19  C   UNL     1      -9.109  -2.485 123.760  0.00  0.00    +0.000 C 
ATOM     20  O   UNL     1      -9.868  -1.377 123.277  0.00  0.00    +0.000 OA
ENDBRANCH  13  20
ENDBRANCH   7  16
ENDBRANCH   1  12
BRANCH   4  21
ATOM     21  O   UNL     1      -8.257   2.636 129.335  0.00  0.00    +0.000 OA
BRANCH  21  22
ATOM     22  C   UNL     1      -8.335   3.594 130.329  0.00  0.00    +0.000 A 
ATOM     23  C   UNL     1      -7.114   4.062 130.840  0.00  0.00    +0.000 A 
ATOM     24  C   UNL     1      -7.098   5.007 131.869  0.00  0.00    +0.000 A 
ATOM     25  C   UNL     1      -8.298   5.446 132.408  0.00  0.00    +0.000 A 
ATOM     26  F   UNL     1      -8.287   6.347 133.401  0.00  0.00    +0.000 F 
ATOM     27  C   UNL     1      -9.513   4.963 131.938  0.00  0.00    +0.000 A 
ATOM     28  C   UNL     1      -9.553   4.027 130.889  0.00  0.00    +0.000 A 
ATOM     29  C   UNL     1     -10.894   3.547 130.411  0.00  0.00    +0.000 C 
ENDBRANCH  21  22
ENDBRANCH   4  21
TORSDOF 5
ENDMDL
