MODEL 1
REMARK VINA RESULT:      -8.8      0.000      0.000
REMARK  Name = CHEMBL3765356
REMARK  13 active torsions:
REMARK  status: ('A' for Active; 'I' for Inactive)
REMARK    1  A    between atoms: C_1  and  O_2
REMARK    2  A    between atoms: O_2  and  C_3
REMARK    3  A    between atoms: C_5  and  C_6
REMARK    4  A    between atoms: C_6  and  N_7
REMARK    5  A    between atoms: N_10  and  C_11
REMARK    6  A    between atoms: C_11  and  C_12
REMARK    7  A    between atoms: C_12  and  C_13
REMARK    8  A    between atoms: C_13  and  C_14
REMARK    9  A    between atoms: C_14  and  C_15
REMARK   10  A    between atoms: C_15  and  C_16
REMARK   11  A    between atoms: N_23  and  C_24
REMARK   12  A    between atoms: C_36  and  O_37
REMARK   13  A    between atoms: O_37  and  C_38
REMARK                            x       y       z     vdW  Elec       q    Type
REMARK                         _______ _______ _______ _____ _____    ______ ____
ROOT
ATOM      1  C   UNL     1      -8.508  -4.083 127.744  0.00  0.00    +0.000 C 
ENDROOT
BRANCH   1   2
ATOM      2  C   UNL     1      -8.669  -3.300 128.975  0.00  0.00    +0.000 C 
BRANCH   2   3
ATOM      3  C   UNL     1      -7.344  -3.350 129.658  0.00  0.00    +0.000 C 
BRANCH   3   7
ATOM      4  N   UNL     1      -5.175  -0.413 130.583  0.00  0.00    +0.000 NA
ATOM      5  C   UNL     1      -6.660  -0.368 130.441  0.00  0.00    +0.000 C 
ATOM      6  C   UNL     1      -7.228  -1.041 129.187  0.00  0.00    +0.000 C 
ATOM      7  N   UNL     1      -6.551  -2.408 128.963  0.00  0.00    +0.000 NA
ATOM      8  C   UNL     1      -5.035  -2.582 129.377  0.00  0.00    +0.000 C 
ATOM      9  C   UNL     1      -4.710  -1.822 130.642  0.00  0.00    +0.000 C 
BRANCH   4  10
ATOM     10  C   UNL     1      -4.378   0.526 129.657  0.00  0.00    +0.000 C 
BRANCH  10  13
ATOM     11  C   UNL     1      -3.879   4.214 130.875  0.00  0.00    +0.000 A 
ATOM     12  C   UNL     1      -4.427   2.878 130.943  0.00  0.00    +0.000 A 
ATOM     13  C   UNL     1      -4.206   2.053 129.897  0.00  0.00    +0.000 A 
ATOM     14  C   UNL     1      -3.629   2.805 128.911  0.00  0.00    +0.000 A 
ATOM     15  C   UNL     1      -3.042   4.031 128.686  0.00  0.00    +0.000 A 
ATOM     16  C   UNL     1      -3.150   4.773 129.776  0.00  0.00    +0.000 A 
BRANCH  11  18
ATOM     17  C   UNL     1      -4.741   4.201 132.969  0.00  0.00    +0.000 C 
ATOM     18  O   UNL     1      -4.038   4.964 132.001  0.00  0.00    +0.000 OA
ENDBRANCH  11  18
BRANCH  15  19
ATOM     19  O   UNL     1      -2.391   4.238 127.516  0.00  0.00    +0.000 OA
ATOM     20  C   UNL     1      -1.852   3.135 126.809  0.00  0.00    +0.000 C 
ENDBRANCH  15  19
ENDBRANCH  10  13
ENDBRANCH   4  10
ENDBRANCH   3   7
ENDBRANCH   2   3
ENDBRANCH   1   2
BRANCH   1  21
ATOM     21  C   UNL     1      -9.094  -3.213 126.635  0.00  0.00    +0.000 C 
BRANCH  21  22
ATOM     22  C   UNL     1      -8.463  -3.608 125.331  0.00  0.00    +0.000 C 
BRANCH  22  23
ATOM     23  C   UNL     1      -8.978  -2.790 124.123  0.00  0.00    +0.000 C 
ATOM     24  O   UNL     1      -9.907  -3.267 123.427  0.00  0.00    +0.000 OA
ATOM     25  N   UNL     1      -8.435  -1.523 123.846  0.00  0.00    +0.000 N 
ATOM     26  C   UNL     1      -9.189  -0.513 123.080  0.00  0.00    +0.000 C 
ATOM     27  C   UNL     1      -8.693   0.916 123.249  0.00  0.00    +0.000 A 
ATOM     28  C   UNL     1      -9.314   2.108 122.788  0.00  0.00    +0.000 A 
ATOM     29  N   UNL     1      -8.615   3.222 123.047  0.00  0.00    +0.000 NA
ATOM     30  N   UNL     1      -7.525   2.761 123.685  0.00  0.00    +0.000 N 
ATOM     31  C   UNL     1      -6.468   3.643 124.131  0.00  0.00    +0.000 C 
ATOM     32  C   UNL     1      -7.541   1.403 123.842  0.00  0.00    +0.000 A 
ATOM     33  N   UNL     1      -6.557   0.788 124.510  0.00  0.00    +0.000 N 
ATOM     34  C   UNL     1      -6.406  -0.586 124.507  0.00  0.00    +0.000 A 
ATOM     35  C   UNL     1      -6.057  -1.220 125.666  0.00  0.00    +0.000 A 
ATOM     36  C   UNL     1      -5.629  -2.530 125.547  0.00  0.00    +0.000 A 
ATOM     37  C   UNL     1      -5.682  -3.184 124.277  0.00  0.00    +0.000 A 
ATOM     38  C   UNL     1      -6.378  -2.591 123.236  0.00  0.00    +0.000 A 
ATOM     39  C   UNL     1      -7.017  -1.424 123.587  0.00  0.00    +0.000 A 
ATOM     40  H   UNL     1      -5.785   1.266 124.963  0.00  0.00    +0.000 HD
ENDBRANCH  22  23
ENDBRANCH  21  22
ENDBRANCH   1  21
TORSDOF 10
ENDMDL
MODEL 2
REMARK VINA RESULT:      -8.8      1.868      2.021
REMARK  Name = CHEMBL3765356
REMARK  13 active torsions:
REMARK  status: ('A' for Active; 'I' for Inactive)
REMARK    1  A    between atoms: C_1  and  O_2
REMARK    2  A    between atoms: O_2  and  C_3
REMARK    3  A    between atoms: C_5  and  C_6
REMARK    4  A    between atoms: C_6  and  N_7
REMARK    5  A    between atoms: N_10  and  C_11
REMARK    6  A    between atoms: C_11  and  C_12
REMARK    7  A    between atoms: C_12  and  C_13
REMARK    8  A    between atoms: C_13  and  C_14
REMARK    9  A    between atoms: C_14  and  C_15
REMARK   10  A    between atoms: C_15  and  C_16
REMARK   11  A    between atoms: N_23  and  C_24
REMARK   12  A    between atoms: C_36  and  O_37
REMARK   13  A    between atoms: O_37  and  C_38
REMARK                            x       y       z     vdW  Elec       q    Type
REMARK                         _______ _______ _______ _____ _____    ______ ____
ROOT
ATOM      1  C   UNL     1      -8.641  -4.154 127.820  0.00  0.00    +0.000 C 
ENDROOT
BRANCH   1   2
ATOM      2  C   UNL     1      -8.562  -3.347 129.044  0.00  0.00    +0.000 C 
BRANCH   2   3
ATOM      3  C   UNL     1      -7.110  -3.255 129.371  0.00  0.00    +0.000 C 
BRANCH   3   7
ATOM      4  N   UNL     1      -5.915  -0.383 131.494  0.00  0.00    +0.000 NA
ATOM      5  C   UNL     1      -7.335  -0.824 131.374  0.00  0.00    +0.000 C 
ATOM      6  C   UNL     1      -7.831  -1.084 129.947  0.00  0.00    +0.000 C 
ATOM      7  N   UNL     1      -6.783  -1.896 129.159  0.00  0.00    +0.000 NA
ATOM      8  C   UNL     1      -5.251  -1.664 129.470  0.00  0.00    +0.000 C 
ATOM      9  C   UNL     1      -5.008  -1.423 130.942  0.00  0.00    +0.000 C 
BRANCH   4  10
ATOM     10  C   UNL     1      -5.617   1.068 131.073  0.00  0.00    +0.000 C 
BRANCH  10  13
ATOM     11  C   UNL     1      -7.743   3.383 128.737  0.00  0.00    +0.000 A 
ATOM     12  C   UNL     1      -7.485   2.622 129.938  0.00  0.00    +0.000 A 
ATOM     13  C   UNL     1      -6.390   1.832 129.959  0.00  0.00    +0.000 A 
ATOM     14  C   UNL     1      -5.875   1.830 128.692  0.00  0.00    +0.000 A 
ATOM     15  C   UNL     1      -5.971   2.482 127.482  0.00  0.00    +0.000 A 
ATOM     16  C   UNL     1      -6.966   3.352 127.534  0.00  0.00    +0.000 A 
BRANCH  11  18
ATOM     17  C   UNL     1      -8.626   5.085 129.941  0.00  0.00    +0.000 C 
ATOM     18  O   UNL     1      -8.796   4.245 128.811  0.00  0.00    +0.000 OA
ENDBRANCH  11  18
BRANCH  15  19
ATOM     19  O   UNL     1      -5.035   2.238 126.533  0.00  0.00    +0.000 OA
ATOM     20  C   UNL     1      -3.706   2.689 126.727  0.00  0.00    +0.000 C 
ENDBRANCH  15  19
ENDBRANCH  10  13
ENDBRANCH   4  10
ENDBRANCH   3   7
ENDBRANCH   2   3
ENDBRANCH   1   2
BRANCH   1  21
ATOM     21  C   UNL     1      -9.073  -3.181 126.726  0.00  0.00    +0.000 C 
BRANCH  21  22
ATOM     22  C   UNL     1      -8.388  -3.563 125.446  0.00  0.00    +0.000 C 
BRANCH  22  23
ATOM     23  C   UNL     1      -8.930  -2.812 124.207  0.00  0.00    +0.000 C 
ATOM     24  O   UNL     1      -9.849  -3.345 123.537  0.00  0.00    +0.000 OA
ATOM     25  N   UNL     1      -8.424  -1.545 123.872  0.00  0.00    +0.000 N 
ATOM     26  C   UNL     1      -9.210  -0.590 123.067  0.00  0.00    +0.000 C 
ATOM     27  C   UNL     1      -8.753   0.858 123.171  0.00  0.00    +0.000 A 
ATOM     28  C   UNL     1      -9.408   2.011 122.663  0.00  0.00    +0.000 A 
ATOM     29  N   UNL     1      -8.738   3.155 122.868  0.00  0.00    +0.000 NA
ATOM     30  N   UNL     1      -7.634   2.752 123.519  0.00  0.00    +0.000 N 
ATOM     31  C   UNL     1      -6.600   3.681 123.920  0.00  0.00    +0.000 C 
ATOM     32  C   UNL     1      -7.612   1.402 123.735  0.00  0.00    +0.000 A 
ATOM     33  N   UNL     1      -6.607   0.843 124.423  0.00  0.00    +0.000 N 
ATOM     34  C   UNL     1      -6.418  -0.524 124.479  0.00  0.00    +0.000 A 
ATOM     35  C   UNL     1      -6.046  -1.097 125.663  0.00  0.00    +0.000 A 
ATOM     36  C   UNL     1      -5.583  -2.400 125.598  0.00  0.00    +0.000 A 
ATOM     37  C   UNL     1      -5.624  -3.110 124.358  0.00  0.00    +0.000 A 
ATOM     38  C   UNL     1      -6.341  -2.582 123.296  0.00  0.00    +0.000 A 
ATOM     39  C   UNL     1      -7.010  -1.418 123.600  0.00  0.00    +0.000 A 
ATOM     40  H   UNL     1      -5.847   1.362 124.850  0.00  0.00    +0.000 HD
ENDBRANCH  22  23
ENDBRANCH  21  22
ENDBRANCH   1  21
TORSDOF 10
ENDMDL
MODEL 3
REMARK VINA RESULT:      -8.7      1.415      2.336
REMARK  Name = CHEMBL3765356
REMARK  13 active torsions:
REMARK  status: ('A' for Active; 'I' for Inactive)
REMARK    1  A    between atoms: C_1  and  O_2
REMARK    2  A    between atoms: O_2  and  C_3
REMARK    3  A    between atoms: C_5  and  C_6
REMARK    4  A    between atoms: C_6  and  N_7
REMARK    5  A    between atoms: N_10  and  C_11
REMARK    6  A    between atoms: C_11  and  C_12
REMARK    7  A    between atoms: C_12  and  C_13
REMARK    8  A    between atoms: C_13  and  C_14
REMARK    9  A    between atoms: C_14  and  C_15
REMARK   10  A    between atoms: C_15  and  C_16
REMARK   11  A    between atoms: N_23  and  C_24
REMARK   12  A    between atoms: C_36  and  O_37
REMARK   13  A    between atoms: O_37  and  C_38
REMARK                            x       y       z     vdW  Elec       q    Type
REMARK                         _______ _______ _______ _____ _____    ______ ____
ROOT
ATOM      1  C   UNL     1      -8.639  -4.117 127.766  0.00  0.00    +0.000 C 
ENDROOT
BRANCH   1   2
ATOM      2  C   UNL     1      -8.573  -3.248 128.947  0.00  0.00    +0.000 C 
BRANCH   2   3
ATOM      3  C   UNL     1      -7.122  -3.100 129.257  0.00  0.00    +0.000 C 
BRANCH   3   7
ATOM      4  N   UNL     1      -5.796  -0.612 131.754  0.00  0.00    +0.000 NA
ATOM      5  C   UNL     1      -7.192  -1.138 131.731  0.00  0.00    +0.000 C 
ATOM      6  C   UNL     1      -7.873  -1.154 130.358  0.00  0.00    +0.000 C 
ATOM      7  N   UNL     1      -6.907  -1.703 129.289  0.00  0.00    +0.000 NA
ATOM      8  C   UNL     1      -5.360  -1.408 129.439  0.00  0.00    +0.000 C 
ATOM      9  C   UNL     1      -4.922  -1.442 130.885  0.00  0.00    +0.000 C 
BRANCH   4  10
ATOM     10  C   UNL     1      -5.645   0.914 131.606  0.00  0.00    +0.000 C 
BRANCH  10  13
ATOM     11  C   UNL     1      -4.001   2.488 128.420  0.00  0.00    +0.000 A 
ATOM     12  C   UNL     1      -4.067   2.146 129.822  0.00  0.00    +0.000 A 
ATOM     13  C   UNL     1      -5.223   1.628 130.291  0.00  0.00    +0.000 A 
ATOM     14  C   UNL     1      -6.143   1.731 129.283  0.00  0.00    +0.000 A 
ATOM     15  C   UNL     1      -6.250   2.000 127.936  0.00  0.00    +0.000 A 
ATOM     16  C   UNL     1      -5.069   2.371 127.471  0.00  0.00    +0.000 A 
BRANCH  11  18
ATOM     17  C   UNL     1      -2.831   3.075 126.573  0.00  0.00    +0.000 C 
ATOM     18  O   UNL     1      -2.780   2.901 127.980  0.00  0.00    +0.000 OA
ENDBRANCH  11  18
BRANCH  15  19
ATOM     19  O   UNL     1      -7.427   1.751 127.312  0.00  0.00    +0.000 OA
ATOM     20  C   UNL     1      -8.640   1.862 128.034  0.00  0.00    +0.000 C 
ENDBRANCH  15  19
ENDBRANCH  10  13
ENDBRANCH   4  10
ENDBRANCH   3   7
ENDBRANCH   2   3
ENDBRANCH   1   2
BRANCH   1  21
ATOM     21  C   UNL     1      -9.164  -3.228 126.643  0.00  0.00    +0.000 C 
BRANCH  21  22
ATOM     22  C   UNL     1      -8.485  -3.620 125.363  0.00  0.00    +0.000 C 
BRANCH  22  23
ATOM     23  C   UNL     1      -8.973  -2.820 124.133  0.00  0.00    +0.000 C 
ATOM     24  O   UNL     1      -9.871  -3.318 123.410  0.00  0.00    +0.000 OA
ATOM     25  N   UNL     1      -8.444  -1.546 123.864  0.00  0.00    +0.000 N 
ATOM     26  C   UNL     1      -9.190  -0.554 123.066  0.00  0.00    +0.000 C 
ATOM     27  C   UNL     1      -8.724   0.885 123.241  0.00  0.00    +0.000 A 
ATOM     28  C   UNL     1      -9.349   2.062 122.751  0.00  0.00    +0.000 A 
ATOM     29  N   UNL     1      -8.678   3.190 123.024  0.00  0.00    +0.000 NA
ATOM     30  N   UNL     1      -7.602   2.752 123.700  0.00  0.00    +0.000 N 
ATOM     31  C   UNL     1      -6.575   3.655 124.173  0.00  0.00    +0.000 C 
ATOM     32  C   UNL     1      -7.600   1.395 123.866  0.00  0.00    +0.000 A 
ATOM     33  N   UNL     1      -6.627   0.801 124.571  0.00  0.00    +0.000 N 
ATOM     34  C   UNL     1      -6.453  -0.570 124.582  0.00  0.00    +0.000 A 
ATOM     35  C   UNL     1      -6.131  -1.189 125.757  0.00  0.00    +0.000 A 
ATOM     36  C   UNL     1      -5.678  -2.493 125.662  0.00  0.00    +0.000 A 
ATOM     37  C   UNL     1      -5.678  -3.157 124.395  0.00  0.00    +0.000 A 
ATOM     38  C   UNL     1      -6.350  -2.583 123.328  0.00  0.00    +0.000 A 
ATOM     39  C   UNL     1      -7.019  -1.424 123.649  0.00  0.00    +0.000 A 
ATOM     40  H   UNL     1      -5.879   1.296 125.044  0.00  0.00    +0.000 HD
ENDBRANCH  22  23
ENDBRANCH  21  22
ENDBRANCH   1  21
TORSDOF 10
ENDMDL
MODEL 4
REMARK VINA RESULT:      -8.6      2.614      3.539
REMARK  Name = CHEMBL3765356
REMARK  13 active torsions:
REMARK  status: ('A' for Active; 'I' for Inactive)
REMARK    1  A    between atoms: C_1  and  O_2
REMARK    2  A    between atoms: O_2  and  C_3
REMARK    3  A    between atoms: C_5  and  C_6
REMARK    4  A    between atoms: C_6  and  N_7
REMARK    5  A    between atoms: N_10  and  C_11
REMARK    6  A    between atoms: C_11  and  C_12
REMARK    7  A    between atoms: C_12  and  C_13
REMARK    8  A    between atoms: C_13  and  C_14
REMARK    9  A    between atoms: C_14  and  C_15
REMARK   10  A    between atoms: C_15  and  C_16
REMARK   11  A    between atoms: N_23  and  C_24
REMARK   12  A    between atoms: C_36  and  O_37
REMARK   13  A    between atoms: O_37  and  C_38
REMARK                            x       y       z     vdW  Elec       q    Type
REMARK                         _______ _______ _______ _____ _____    ______ ____
ROOT
ATOM      1  C   UNL     1      -8.396  -4.019 127.850  0.00  0.00    +0.000 C 
ENDROOT
BRANCH   1   2
ATOM      2  C   UNL     1      -8.322  -3.125 129.012  0.00  0.00    +0.000 C 
BRANCH   2   3
ATOM      3  C   UNL     1      -6.906  -2.660 129.071  0.00  0.00    +0.000 C 
BRANCH   3   7
ATOM      4  N   UNL     1      -6.141   1.025 128.932  0.00  0.00    +0.000 NA
ATOM      5  C   UNL     1      -5.123  -0.054 129.096  0.00  0.00    +0.000 C 
ATOM      6  C   UNL     1      -5.458  -1.131 130.134  0.00  0.00    +0.000 C 
ATOM      7  N   UNL     1      -6.926  -1.579 129.982  0.00  0.00    +0.000 NA
ATOM      8  C   UNL     1      -8.001  -0.516 129.520  0.00  0.00    +0.000 C 
ATOM      9  C   UNL     1      -7.437   0.443 128.498  0.00  0.00    +0.000 C 
BRANCH   4  10
ATOM     10  C   UNL     1      -6.212   2.067 130.064  0.00  0.00    +0.000 C 
BRANCH  10  13
ATOM     11  C   UNL     1      -8.838   4.925 129.547  0.00  0.00    +0.000 A 
ATOM     12  C   UNL     1      -7.674   4.143 129.201  0.00  0.00    +0.000 A 
ATOM     13  C   UNL     1      -7.226   3.246 130.106  0.00  0.00    +0.000 A 
ATOM     14  C   UNL     1      -7.938   3.450 131.256  0.00  0.00    +0.000 A 
ATOM     15  C   UNL     1      -9.048   4.107 131.740  0.00  0.00    +0.000 A 
ATOM     16  C   UNL     1      -9.552   4.874 130.789  0.00  0.00    +0.000 A 
BRANCH  11  18
ATOM     17  C   UNL     1     -10.178   6.701 129.124  0.00  0.00    +0.000 C 
ATOM     18  O   UNL     1      -9.310   5.732 128.556  0.00  0.00    +0.000 OA
ENDBRANCH  11  18
BRANCH  15  19
ATOM     19  O   UNL     1      -9.494   3.805 132.984  0.00  0.00    +0.000 OA
ATOM     20  C   UNL     1      -8.609   3.892 134.087  0.00  0.00    +0.000 C 
ENDBRANCH  15  19
ENDBRANCH  10  13
ENDBRANCH   4  10
ENDBRANCH   3   7
ENDBRANCH   2   3
ENDBRANCH   1   2
BRANCH   1  21
ATOM     21  C   UNL     1      -9.030  -3.183 126.741  0.00  0.00    +0.000 C 
BRANCH  21  22
ATOM     22  C   UNL     1      -8.417  -3.583 125.430  0.00  0.00    +0.000 C 
BRANCH  22  23
ATOM     23  C   UNL     1      -8.946  -2.767 124.226  0.00  0.00    +0.000 C 
ATOM     24  O   UNL     1      -9.890  -3.243 123.548  0.00  0.00    +0.000 OA
ATOM     25  N   UNL     1      -8.401  -1.506 123.933  0.00  0.00    +0.000 N 
ATOM     26  C   UNL     1      -9.161  -0.495 123.174  0.00  0.00    +0.000 C 
ATOM     27  C   UNL     1      -8.654   0.932 123.328  0.00  0.00    +0.000 A 
ATOM     28  C   UNL     1      -9.275   2.125 122.871  0.00  0.00    +0.000 A 
ATOM     29  N   UNL     1      -8.564   3.236 123.112  0.00  0.00    +0.000 NA
ATOM     30  N   UNL     1      -7.468   2.772 123.734  0.00  0.00    +0.000 N 
ATOM     31  C   UNL     1      -6.398   3.650 124.158  0.00  0.00    +0.000 C 
ATOM     32  C   UNL     1      -7.489   1.415 123.899  0.00  0.00    +0.000 A 
ATOM     33  N   UNL     1      -6.497   0.797 124.553  0.00  0.00    +0.000 N 
ATOM     34  C   UNL     1      -6.355  -0.578 124.555  0.00  0.00    +0.000 A 
ATOM     35  C   UNL     1      -5.990  -1.208 125.711  0.00  0.00    +0.000 A 
ATOM     36  C   UNL     1      -5.573  -2.521 125.592  0.00  0.00    +0.000 A 
ATOM     37  C   UNL     1      -5.650  -3.182 124.326  0.00  0.00    +0.000 A 
ATOM     38  C   UNL     1      -6.361  -2.590 123.294  0.00  0.00    +0.000 A 
ATOM     39  C   UNL     1      -6.986  -1.416 123.650  0.00  0.00    +0.000 A 
ATOM     40  H   UNL     1      -5.715   1.273 124.990  0.00  0.00    +0.000 HD
ENDBRANCH  22  23
ENDBRANCH  21  22
ENDBRANCH   1  21
TORSDOF 10
ENDMDL
MODEL 5
REMARK VINA RESULT:      -8.4      0.965      2.086
REMARK  Name = CHEMBL3765356
REMARK  13 active torsions:
REMARK  status: ('A' for Active; 'I' for Inactive)
REMARK    1  A    between atoms: C_1  and  O_2
REMARK    2  A    between atoms: O_2  and  C_3
REMARK    3  A    between atoms: C_5  and  C_6
REMARK    4  A    between atoms: C_6  and  N_7
REMARK    5  A    between atoms: N_10  and  C_11
REMARK    6  A    between atoms: C_11  and  C_12
REMARK    7  A    between atoms: C_12  and  C_13
REMARK    8  A    between atoms: C_13  and  C_14
REMARK    9  A    between atoms: C_14  and  C_15
REMARK   10  A    between atoms: C_15  and  C_16
REMARK   11  A    between atoms: N_23  and  C_24
REMARK   12  A    between atoms: C_36  and  O_37
REMARK   13  A    between atoms: O_37  and  C_38
REMARK                            x       y       z     vdW  Elec       q    Type
REMARK                         _______ _______ _______ _____ _____    ______ ____
ROOT
ATOM      1  C   UNL     1      -8.171  -2.754 127.619  0.00  0.00    +0.000 C 
ENDROOT
BRANCH   1   2
ATOM      2  C   UNL     1      -8.472  -3.333 128.934  0.00  0.00    +0.000 C 
BRANCH   2   3
ATOM      3  C   UNL     1      -7.471  -2.746 129.870  0.00  0.00    +0.000 C 
BRANCH   3   7
ATOM      4  N   UNL     1      -5.880   0.377 131.248  0.00  0.00    +0.000 NA
ATOM      5  C   UNL     1      -7.211  -0.157 131.660  0.00  0.00    +0.000 C 
ATOM      6  C   UNL     1      -8.141  -0.578 130.517  0.00  0.00    +0.000 C 
ATOM      7  N   UNL     1      -7.359  -1.395 129.468  0.00  0.00    +0.000 NA
ATOM      8  C   UNL     1      -5.840  -1.043 129.208  0.00  0.00    +0.000 C 
ATOM      9  C   UNL     1      -5.130  -0.652 130.484  0.00  0.00    +0.000 C 
BRANCH   4  10
ATOM     10  C   UNL     1      -5.876   1.799 130.655  0.00  0.00    +0.000 C 
BRANCH  10  13
ATOM     11  C   UNL     1      -3.362   3.067 127.933  0.00  0.00    +0.000 A 
ATOM     12  C   UNL     1      -4.287   2.124 128.519  0.00  0.00    +0.000 A 
ATOM     13  C   UNL     1      -4.733   2.373 129.769  0.00  0.00    +0.000 A 
ATOM     14  C   UNL     1      -4.011   3.433 130.246  0.00  0.00    +0.000 A 
ATOM     15  C   UNL     1      -3.143   4.423 129.841  0.00  0.00    +0.000 A 
ATOM     16  C   UNL     1      -2.829   4.235 128.570  0.00  0.00    +0.000 A 
BRANCH  11  18
ATOM     17  C   UNL     1      -1.646   3.073 126.456  0.00  0.00    +0.000 C 
ATOM     18  O   UNL     1      -3.032   2.825 126.634  0.00  0.00    +0.000 OA
ENDBRANCH  11  18
BRANCH  15  19
ATOM     19  O   UNL     1      -2.853   5.429 130.702  0.00  0.00    +0.000 OA
ATOM     20  C   UNL     1      -3.025   6.774 130.291  0.00  0.00    +0.000 C 
ENDBRANCH  15  19
ENDBRANCH  10  13
ENDBRANCH   4  10
ENDBRANCH   3   7
ENDBRANCH   2   3
ENDBRANCH   1   2
BRANCH   1  21
ATOM     21  C   UNL     1      -9.020  -3.546 126.628  0.00  0.00    +0.000 C 
BRANCH  21  22
ATOM     22  C   UNL     1      -8.270  -3.653 125.332  0.00  0.00    +0.000 C 
BRANCH  22  23
ATOM     23  C   UNL     1      -8.876  -2.798 124.195  0.00  0.00    +0.000 C 
ATOM     24  O   UNL     1      -9.859  -3.253 123.560  0.00  0.00    +0.000 OA
ATOM     25  N   UNL     1      -8.353  -1.524 123.914  0.00  0.00    +0.000 N 
ATOM     26  C   UNL     1      -9.162  -0.490 123.241  0.00  0.00    +0.000 C 
ATOM     27  C   UNL     1      -8.649   0.933 123.414  0.00  0.00    +0.000 A 
ATOM     28  C   UNL     1      -9.300   2.139 123.041  0.00  0.00    +0.000 A 
ATOM     29  N   UNL     1      -8.579   3.244 123.276  0.00  0.00    +0.000 NA
ATOM     30  N   UNL     1      -7.444   2.763 123.811  0.00  0.00    +0.000 N 
ATOM     31  C   UNL     1      -6.352   3.629 124.199  0.00  0.00    +0.000 C 
ATOM     32  C   UNL     1      -7.452   1.401 123.928  0.00  0.00    +0.000 A 
ATOM     33  N   UNL     1      -6.419   0.764 124.496  0.00  0.00    +0.000 N 
ATOM     34  C   UNL     1      -6.274  -0.609 124.439  0.00  0.00    +0.000 A 
ATOM     35  C   UNL     1      -5.836  -1.279 125.547  0.00  0.00    +0.000 A 
ATOM     36  C   UNL     1      -5.424  -2.586 125.354  0.00  0.00    +0.000 A 
ATOM     37  C   UNL     1      -5.579  -3.200 124.073  0.00  0.00    +0.000 A 
ATOM     38  C   UNL     1      -6.354  -2.575 123.109  0.00  0.00    +0.000 A 
ATOM     39  C   UNL     1      -6.959  -1.418 123.545  0.00  0.00    +0.000 A 
ATOM     40  H   UNL     1      -5.612   1.227 124.900  0.00  0.00    +0.000 HD
ENDBRANCH  22  23
ENDBRANCH  21  22
ENDBRANCH   1  21
TORSDOF 10
ENDMDL
MODEL 6
REMARK VINA RESULT:      -8.3      2.591      3.221
REMARK  Name = CHEMBL3765356
REMARK  13 active torsions:
REMARK  status: ('A' for Active; 'I' for Inactive)
REMARK    1  A    between atoms: C_1  and  O_2
REMARK    2  A    between atoms: O_2  and  C_3
REMARK    3  A    between atoms: C_5  and  C_6
REMARK    4  A    between atoms: C_6  and  N_7
REMARK    5  A    between atoms: N_10  and  C_11
REMARK    6  A    between atoms: C_11  and  C_12
REMARK    7  A    between atoms: C_12  and  C_13
REMARK    8  A    between atoms: C_13  and  C_14
REMARK    9  A    between atoms: C_14  and  C_15
REMARK   10  A    between atoms: C_15  and  C_16
REMARK   11  A    between atoms: N_23  and  C_24
REMARK   12  A    between atoms: C_36  and  O_37
REMARK   13  A    between atoms: O_37  and  C_38
REMARK                            x       y       z     vdW  Elec       q    Type
REMARK                         _______ _______ _______ _____ _____    ______ ____
ROOT
ATOM      1  C   UNL     1      -8.169  -3.711 127.981  0.00  0.00    +0.000 C 
ENDROOT
BRANCH   1   2
ATOM      2  C   UNL     1      -8.238  -2.707 129.049  0.00  0.00    +0.000 C 
BRANCH   2   3
ATOM      3  C   UNL     1      -6.849  -2.184 129.200  0.00  0.00    +0.000 C 
BRANCH   3   7
ATOM      4  N   UNL     1      -6.596   1.572 129.304  0.00  0.00    +0.000 NA
ATOM      5  C   UNL     1      -5.434   0.636 129.327  0.00  0.00    +0.000 C 
ATOM      6  C   UNL     1      -5.552  -0.546 130.295  0.00  0.00    +0.000 C 
ATOM      7  N   UNL     1      -6.954  -1.182 130.191  0.00  0.00    +0.000 NA
ATOM      8  C   UNL     1      -8.190  -0.248 129.874  0.00  0.00    +0.000 C 
ATOM      9  C   UNL     1      -7.828   0.848 128.899  0.00  0.00    +0.000 C 
BRANCH   4  10
ATOM     10  C   UNL     1      -6.731   2.513 130.515  0.00  0.00    +0.000 C 
BRANCH  10  13
ATOM     11  C   UNL     1      -9.540   5.211 130.928  0.00  0.00    +0.000 A 
ATOM     12  C   UNL     1      -9.024   3.900 130.604  0.00  0.00    +0.000 A 
ATOM     13  C   UNL     1      -7.684   3.742 130.566  0.00  0.00    +0.000 A 
ATOM     14  C   UNL     1      -7.132   4.988 130.685  0.00  0.00    +0.000 A 
ATOM     15  C   UNL     1      -7.452   6.289 131.006  0.00  0.00    +0.000 A 
ATOM     16  C   UNL     1      -8.760   6.388 131.176  0.00  0.00    +0.000 A 
BRANCH  11  18
ATOM     17  C   UNL     1     -11.295   6.641 130.934  0.00  0.00    +0.000 C 
ATOM     18  O   UNL     1     -10.893   5.286 131.061  0.00  0.00    +0.000 OA
ENDBRANCH  11  18
BRANCH  15  19
ATOM     19  O   UNL     1      -6.449   7.179 131.201  0.00  0.00    +0.000 OA
ATOM     20  C   UNL     1      -5.145   6.879 130.735  0.00  0.00    +0.000 C 
ENDBRANCH  15  19
ENDBRANCH  10  13
ENDBRANCH   4  10
ENDBRANCH   3   7
ENDBRANCH   2   3
ENDBRANCH   1   2
BRANCH   1  21
ATOM     21  C   UNL     1      -8.981  -3.127 126.828  0.00  0.00    +0.000 C 
BRANCH  21  22
ATOM     22  C   UNL     1      -8.356  -3.559 125.533  0.00  0.00    +0.000 C 
BRANCH  22  23
ATOM     23  C   UNL     1      -8.894  -2.793 124.302  0.00  0.00    +0.000 C 
ATOM     24  O   UNL     1      -9.816  -3.313 123.627  0.00  0.00    +0.000 OA
ATOM     25  N   UNL     1      -8.380  -1.525 123.979  0.00  0.00    +0.000 N 
ATOM     26  C   UNL     1      -9.159  -0.557 123.184  0.00  0.00    +0.000 C 
ATOM     27  C   UNL     1      -8.693   0.887 123.302  0.00  0.00    +0.000 A 
ATOM     28  C   UNL     1      -9.341   2.049 122.805  0.00  0.00    +0.000 A 
ATOM     29  N   UNL     1      -8.664   3.186 123.022  0.00  0.00    +0.000 NA
ATOM     30  N   UNL     1      -7.562   2.770 123.669  0.00  0.00    +0.000 N 
ATOM     31  C   UNL     1      -6.522   3.688 124.079  0.00  0.00    +0.000 C 
ATOM     32  C   UNL     1      -7.549   1.418 123.871  0.00  0.00    +0.000 A 
ATOM     33  N   UNL     1      -6.548   0.846 124.554  0.00  0.00    +0.000 N 
ATOM     34  C   UNL     1      -6.368  -0.524 124.595  0.00  0.00    +0.000 A 
ATOM     35  C   UNL     1      -5.999  -1.111 125.773  0.00  0.00    +0.000 A 
ATOM     36  C   UNL     1      -5.544  -2.415 125.696  0.00  0.00    +0.000 A 
ATOM     37  C   UNL     1      -5.589  -3.113 124.448  0.00  0.00    +0.000 A 
ATOM     38  C   UNL     1      -6.304  -2.570 123.392  0.00  0.00    +0.000 A 
ATOM     39  C   UNL     1      -6.965  -1.405 123.708  0.00  0.00    +0.000 A 
ATOM     40  H   UNL     1      -5.784   1.356 124.985  0.00  0.00    +0.000 HD
ENDBRANCH  22  23
ENDBRANCH  21  22
ENDBRANCH   1  21
TORSDOF 10
ENDMDL
MODEL 7
REMARK VINA RESULT:      -8.2      2.315      3.055
REMARK  Name = CHEMBL3765356
REMARK  13 active torsions:
REMARK  status: ('A' for Active; 'I' for Inactive)
REMARK    1  A    between atoms: C_1  and  O_2
REMARK    2  A    between atoms: O_2  and  C_3
REMARK    3  A    between atoms: C_5  and  C_6
REMARK    4  A    between atoms: C_6  and  N_7
REMARK    5  A    between atoms: N_10  and  C_11
REMARK    6  A    between atoms: C_11  and  C_12
REMARK    7  A    between atoms: C_12  and  C_13
REMARK    8  A    between atoms: C_13  and  C_14
REMARK    9  A    between atoms: C_14  and  C_15
REMARK   10  A    between atoms: C_15  and  C_16
REMARK   11  A    between atoms: N_23  and  C_24
REMARK   12  A    between atoms: C_36  and  O_37
REMARK   13  A    between atoms: O_37  and  C_38
REMARK                            x       y       z     vdW  Elec       q    Type
REMARK                         _______ _______ _______ _____ _____    ______ ____
ROOT
ATOM      1  C   UNL     1      -8.770  -3.703 129.008  0.00  0.00    +0.000 C 
ENDROOT
BRANCH   1   2
ATOM      2  C   UNL     1      -7.463  -3.056 129.184  0.00  0.00    +0.000 C 
BRANCH   2   3
ATOM      3  C   UNL     1      -7.283  -2.911 130.657  0.00  0.00    +0.000 C 
BRANCH   3   7
ATOM      4  N   UNL     1      -5.841   0.338 131.903  0.00  0.00    +0.000 NA
ATOM      5  C   UNL     1      -6.232  -0.812 132.770  0.00  0.00    +0.000 C 
ATOM      6  C   UNL     1      -7.600  -1.435 132.470  0.00  0.00    +0.000 C 
ATOM      7  N   UNL     1      -7.780  -1.620 130.950  0.00  0.00    +0.000 NA
ATOM      8  C   UNL     1      -7.122  -0.564 129.973  0.00  0.00    +0.000 C 
ATOM      9  C   UNL     1      -5.780  -0.091 130.482  0.00  0.00    +0.000 C 
BRANCH   4  10
ATOM     10  C   UNL     1      -6.563   1.670 132.178  0.00  0.00    +0.000 C 
BRANCH  10  13
ATOM     11  C   UNL     1      -6.467   4.351 129.325  0.00  0.00    +0.000 A 
ATOM     12  C   UNL     1      -5.926   3.614 130.444  0.00  0.00    +0.000 A 
ATOM     13  C   UNL     1      -6.759   2.794 131.120  0.00  0.00    +0.000 A 
ATOM     14  C   UNL     1      -8.020   3.023 130.641  0.00  0.00    +0.000 A 
ATOM     15  C   UNL     1      -8.691   3.645 129.611  0.00  0.00    +0.000 A 
ATOM     16  C   UNL     1      -7.829   4.331 128.880  0.00  0.00    +0.000 A 
BRANCH  11  18
ATOM     17  C   UNL     1      -4.424   5.321 129.430  0.00  0.00    +0.000 C 
ATOM     18  O   UNL     1      -5.559   5.076 128.614  0.00  0.00    +0.000 OA
ENDBRANCH  11  18
BRANCH  15  19
ATOM     19  O   UNL     1     -10.011   3.389 129.444  0.00  0.00    +0.000 OA
ATOM     20  C   UNL     1     -10.916   3.652 130.501  0.00  0.00    +0.000 C 
ENDBRANCH  15  19
ENDBRANCH  10  13
ENDBRANCH   4  10
ENDBRANCH   3   7
ENDBRANCH   2   3
ENDBRANCH   1   2
BRANCH   1  21
ATOM     21  C   UNL     1      -9.016  -3.705 127.501  0.00  0.00    +0.000 C 
BRANCH  21  22
ATOM     22  C   UNL     1      -8.293  -2.536 126.896  0.00  0.00    +0.000 C 
BRANCH  22  23
ATOM     23  C   UNL     1      -8.849  -2.114 125.515  0.00  0.00    +0.000 C 
ATOM     24  O   UNL     1      -9.813  -2.759 125.034  0.00  0.00    +0.000 OA
ATOM     25  N   UNL     1      -8.305  -1.006 124.844  0.00  0.00    +0.000 N 
ATOM     26  C   UNL     1      -9.080  -0.260 123.834  0.00  0.00    +0.000 C 
ATOM     27  C   UNL     1      -8.561   1.140 123.539  0.00  0.00    +0.000 A 
ATOM     28  C   UNL     1      -9.187   2.149 122.759  0.00  0.00    +0.000 A 
ATOM     29  N   UNL     1      -8.464   3.272 122.637  0.00  0.00    +0.000 NA
ATOM     30  N   UNL     1      -7.354   3.002 123.345  0.00  0.00    +0.000 N 
ATOM     31  C   UNL     1      -6.269   3.952 123.460  0.00  0.00    +0.000 C 
ATOM     32  C   UNL     1      -7.379   1.758 123.911  0.00  0.00    +0.000 A 
ATOM     33  N   UNL     1      -6.374   1.352 124.698  0.00  0.00    +0.000 N 
ATOM     34  C   UNL     1      -6.239   0.040 125.110  0.00  0.00    +0.000 A 
ATOM     35  C   UNL     1      -5.848  -0.218 126.394  0.00  0.00    +0.000 A 
ATOM     36  C   UNL     1      -5.441  -1.512 126.666  0.00  0.00    +0.000 A 
ATOM     37  C   UNL     1      -5.555  -2.521 125.660  0.00  0.00    +0.000 A 
ATOM     38  C   UNL     1      -6.288  -2.258 124.514  0.00  0.00    +0.000 A 
ATOM     39  C   UNL     1      -6.898  -1.024 124.514  0.00  0.00    +0.000 A 
ATOM     40  H   UNL     1      -5.578   1.927 124.953  0.00  0.00    +0.000 HD
ENDBRANCH  22  23
ENDBRANCH  21  22
ENDBRANCH   1  21
TORSDOF 10
ENDMDL
MODEL 8
REMARK VINA RESULT:      -8.1      1.464      2.181
REMARK  Name = CHEMBL3765356
REMARK  13 active torsions:
REMARK  status: ('A' for Active; 'I' for Inactive)
REMARK    1  A    between atoms: C_1  and  O_2
REMARK    2  A    between atoms: O_2  and  C_3
REMARK    3  A    between atoms: C_5  and  C_6
REMARK    4  A    between atoms: C_6  and  N_7
REMARK    5  A    between atoms: N_10  and  C_11
REMARK    6  A    between atoms: C_11  and  C_12
REMARK    7  A    between atoms: C_12  and  C_13
REMARK    8  A    between atoms: C_13  and  C_14
REMARK    9  A    between atoms: C_14  and  C_15
REMARK   10  A    between atoms: C_15  and  C_16
REMARK   11  A    between atoms: N_23  and  C_24
REMARK   12  A    between atoms: C_36  and  O_37
REMARK   13  A    between atoms: O_37  and  C_38
REMARK                            x       y       z     vdW  Elec       q    Type
REMARK                         _______ _______ _______ _____ _____    ______ ____
ROOT
ATOM      1  C   UNL     1      -8.649  -4.026 127.870  0.00  0.00    +0.000 C 
ENDROOT
BRANCH   1   2
ATOM      2  C   UNL     1      -7.871  -3.268 128.857  0.00  0.00    +0.000 C 
BRANCH   2   3
ATOM      3  C   UNL     1      -7.974  -1.840 128.439  0.00  0.00    +0.000 C 
BRANCH   3   7
ATOM      4  N   UNL     1      -5.418   0.809 129.233  0.00  0.00    +0.000 NA
ATOM      5  C   UNL     1      -5.140  -0.655 129.173  0.00  0.00    +0.000 C 
ATOM      6  C   UNL     1      -6.145  -1.553 129.902  0.00  0.00    +0.000 C 
ATOM      7  N   UNL     1      -7.587  -1.107 129.584  0.00  0.00    +0.000 NA
ATOM      8  C   UNL     1      -7.872   0.431 129.350  0.00  0.00    +0.000 C 
ATOM      9  C   UNL     1      -6.736   1.106 128.616  0.00  0.00    +0.000 C 
BRANCH   4  10
ATOM     10  C   UNL     1      -5.131   1.498 130.581  0.00  0.00    +0.000 C 
BRANCH  10  13
ATOM     11  C   UNL     1      -3.668   5.127 130.743  0.00  0.00    +0.000 A 
ATOM     12  C   UNL     1      -3.631   3.694 130.926  0.00  0.00    +0.000 A 
ATOM     13  C   UNL     1      -4.777   3.005 130.736  0.00  0.00    +0.000 A 
ATOM     14  C   UNL     1      -5.775   3.927 130.577  0.00  0.00    +0.000 A 
ATOM     15  C   UNL     1      -5.984   5.272 130.363  0.00  0.00    +0.000 A 
ATOM     16  C   UNL     1      -4.825   5.907 130.416  0.00  0.00    +0.000 A 
BRANCH  11  18
ATOM     17  C   UNL     1      -2.667   7.067 131.341  0.00  0.00    +0.000 C 
ATOM     18  O   UNL     1      -2.464   5.756 130.840  0.00  0.00    +0.000 OA
ENDBRANCH  11  18
BRANCH  15  19
ATOM     19  O   UNL     1      -7.230   5.696 130.040  0.00  0.00    +0.000 OA
ATOM     20  C   UNL     1      -8.165   4.777 129.501  0.00  0.00    +0.000 C 
ENDBRANCH  15  19
ENDBRANCH  10  13
ENDBRANCH   4  10
ENDBRANCH   3   7
ENDBRANCH   2   3
ENDBRANCH   1   2
BRANCH   1  21
ATOM     21  C   UNL     1      -8.993  -3.021 126.774  0.00  0.00    +0.000 C 
BRANCH  21  22
ATOM     22  C   UNL     1      -8.448  -3.528 125.470  0.00  0.00    +0.000 C 
BRANCH  22  23
ATOM     23  C   UNL     1      -8.971  -2.753 124.238  0.00  0.00    +0.000 C 
ATOM     24  O   UNL     1      -9.909  -3.252 123.568  0.00  0.00    +0.000 OA
ATOM     25  N   UNL     1      -8.428  -1.499 123.909  0.00  0.00    +0.000 N 
ATOM     26  C   UNL     1      -9.187  -0.515 123.114  0.00  0.00    +0.000 C 
ATOM     27  C   UNL     1      -8.685   0.918 123.226  0.00  0.00    +0.000 A 
ATOM     28  C   UNL     1      -9.306   2.094 122.728  0.00  0.00    +0.000 A 
ATOM     29  N   UNL     1      -8.601   3.214 122.939  0.00  0.00    +0.000 NA
ATOM     30  N   UNL     1      -7.507   2.774 123.583  0.00  0.00    +0.000 N 
ATOM     31  C   UNL     1      -6.443   3.667 123.987  0.00  0.00    +0.000 C 
ATOM     32  C   UNL     1      -7.525   1.422 123.790  0.00  0.00    +0.000 A 
ATOM     33  N   UNL     1      -6.536   0.828 124.470  0.00  0.00    +0.000 N 
ATOM     34  C   UNL     1      -6.389  -0.545 124.515  0.00  0.00    +0.000 A 
ATOM     35  C   UNL     1      -6.031  -1.138 125.694  0.00  0.00    +0.000 A 
ATOM     36  C   UNL     1      -5.608  -2.453 125.619  0.00  0.00    +0.000 A 
ATOM     37  C   UNL     1      -5.675  -3.153 124.374  0.00  0.00    +0.000 A 
ATOM     38  C   UNL     1      -6.380  -2.596 123.318  0.00  0.00    +0.000 A 
ATOM     39  C   UNL     1      -7.012  -1.414 123.633  0.00  0.00    +0.000 A 
ATOM     40  H   UNL     1      -5.758   1.320 124.898  0.00  0.00    +0.000 HD
ENDBRANCH  22  23
ENDBRANCH  21  22
ENDBRANCH   1  21
TORSDOF 10
ENDMDL
MODEL 9
REMARK VINA RESULT:      -8.0      1.731      2.988
REMARK  Name = CHEMBL3765356
REMARK  13 active torsions:
REMARK  status: ('A' for Active; 'I' for Inactive)
REMARK    1  A    between atoms: C_1  and  O_2
REMARK    2  A    between atoms: O_2  and  C_3
REMARK    3  A    between atoms: C_5  and  C_6
REMARK    4  A    between atoms: C_6  and  N_7
REMARK    5  A    between atoms: N_10  and  C_11
REMARK    6  A    between atoms: C_11  and  C_12
REMARK    7  A    between atoms: C_12  and  C_13
REMARK    8  A    between atoms: C_13  and  C_14
REMARK    9  A    between atoms: C_14  and  C_15
REMARK   10  A    between atoms: C_15  and  C_16
REMARK   11  A    between atoms: N_23  and  C_24
REMARK   12  A    between atoms: C_36  and  O_37
REMARK   13  A    between atoms: O_37  and  C_38
REMARK                            x       y       z     vdW  Elec       q    Type
REMARK                         _______ _______ _______ _____ _____    ______ ____
ROOT
ATOM      1  C   UNL     1      -8.641  -3.951 127.807  0.00  0.00    +0.000 C 
ENDROOT
BRANCH   1   2
ATOM      2  C   UNL     1      -7.833  -2.925 128.479  0.00  0.00    +0.000 C 
BRANCH   2   3
ATOM      3  C   UNL     1      -7.898  -3.251 129.933  0.00  0.00    +0.000 C 
BRANCH   3   7
ATOM      4  N   UNL     1      -7.850  -0.625 132.631  0.00  0.00    +0.000 NA
ATOM      5  C   UNL     1      -8.252  -0.387 131.214  0.00  0.00    +0.000 C 
ATOM      6  C   UNL     1      -7.319  -0.975 130.151  0.00  0.00    +0.000 C 
ATOM      7  N   UNL     1      -6.923  -2.417 130.527  0.00  0.00    +0.000 NA
ATOM      8  C   UNL     1      -6.769  -2.788 132.056  0.00  0.00    +0.000 C 
ATOM      9  C   UNL     1      -7.797  -2.083 132.910  0.00  0.00    +0.000 C 
BRANCH   4  10
ATOM     10  C   UNL     1      -6.659   0.207 133.145  0.00  0.00    +0.000 C 
BRANCH  10  13
ATOM     11  C   UNL     1      -5.501   3.383 131.169  0.00  0.00    +0.000 A 
ATOM     12  C   UNL     1      -5.409   2.007 131.600  0.00  0.00    +0.000 A 
ATOM     13  C   UNL     1      -6.249   1.594 132.574  0.00  0.00    +0.000 A 
ATOM     14  C   UNL     1      -6.890   2.707 133.045  0.00  0.00    +0.000 A 
ATOM     15  C   UNL     1      -7.109   4.036 132.755  0.00  0.00    +0.000 A 
ATOM     16  C   UNL     1      -6.379   4.380 131.708  0.00  0.00    +0.000 A 
BRANCH  11  18
ATOM     17  C   UNL     1      -4.099   2.537 129.606  0.00  0.00    +0.000 C 
ATOM     18  O   UNL     1      -4.710   3.714 130.111  0.00  0.00    +0.000 OA
ENDBRANCH  11  18
BRANCH  15  19
ATOM     19  O   UNL     1      -8.054   4.710 133.455  0.00  0.00    +0.000 OA
ATOM     20  C   UNL     1      -9.120   3.999 134.058  0.00  0.00    +0.000 C 
ENDBRANCH  15  19
ENDBRANCH  10  13
ENDBRANCH   4  10
ENDBRANCH   3   7
ENDBRANCH   2   3
ENDBRANCH   1   2
BRANCH   1  21
ATOM     21  C   UNL     1      -9.302  -3.235 126.633  0.00  0.00    +0.000 C 
BRANCH  21  22
ATOM     22  C   UNL     1      -8.524  -3.539 125.386  0.00  0.00    +0.000 C 
BRANCH  22  23
ATOM     23  C   UNL     1      -8.994  -2.733 124.152  0.00  0.00    +0.000 C 
ATOM     24  O   UNL     1      -9.902  -3.214 123.431  0.00  0.00    +0.000 OA
ATOM     25  N   UNL     1      -8.436  -1.472 123.878  0.00  0.00    +0.000 N 
ATOM     26  C   UNL     1      -9.159  -0.468 123.076  0.00  0.00    +0.000 C 
ATOM     27  C   UNL     1      -8.662   0.961 123.245  0.00  0.00    +0.000 A 
ATOM     28  C   UNL     1      -9.260   2.150 122.750  0.00  0.00    +0.000 A 
ATOM     29  N   UNL     1      -8.564   3.264 123.019  0.00  0.00    +0.000 NA
ATOM     30  N   UNL     1      -7.499   2.806 123.698  0.00  0.00    +0.000 N 
ATOM     31  C   UNL     1      -6.453   3.687 124.169  0.00  0.00    +0.000 C 
ATOM     32  C   UNL     1      -7.528   1.450 123.870  0.00  0.00    +0.000 A 
ATOM     33  N   UNL     1      -6.569   0.837 124.577  0.00  0.00    +0.000 N 
ATOM     34  C   UNL     1      -6.425  -0.537 124.595  0.00  0.00    +0.000 A 
ATOM     35  C   UNL     1      -6.118  -1.159 125.772  0.00  0.00    +0.000 A 
ATOM     36  C   UNL     1      -5.693  -2.473 125.683  0.00  0.00    +0.000 A 
ATOM     37  C   UNL     1      -5.707  -3.142 124.419  0.00  0.00    +0.000 A 
ATOM     38  C   UNL     1      -6.365  -2.557 123.349  0.00  0.00    +0.000 A 
ATOM     39  C   UNL     1      -7.009  -1.383 123.665  0.00  0.00    +0.000 A 
ATOM     40  H   UNL     1      -5.810   1.317 125.050  0.00  0.00    +0.000 HD
ENDBRANCH  22  23
ENDBRANCH  21  22
ENDBRANCH   1  21
TORSDOF 10
ENDMDL
