MODEL 1
REMARK VINA RESULT:     -10.1      0.000      0.000
REMARK  Name = CHEMBL2017979
REMARK  9 active torsions:
REMARK  status: ('A' for Active; 'I' for Inactive)
REMARK    1  A    between atoms: C_1  and  O_2
REMARK    2  A    between atoms: O_2  and  C_3
REMARK    3  A    between atoms: C_5  and  O_6
REMARK    4  A    between atoms: O_6  and  C_7
REMARK    5  A    between atoms: N_10  and  S_11
REMARK    6  A    between atoms: S_11  and  C_12
REMARK    7  A    between atoms: C_19  and  C_20
REMARK    8  A    between atoms: C_20  and  C_21
REMARK    9  A    between atoms: C_26  and  N_27
REMARK                            x       y       z     vdW  Elec       q    Type
REMARK                         _______ _______ _______ _____ _____    ______ ____
ROOT
ATOM      1  C   UNL     1      -5.527   0.080 131.554  0.00  0.00    +0.000 C 
ENDROOT
BRANCH   1   2
ATOM      2  C   UNL     1      -5.320   1.492 131.212  0.00  0.00    +0.000 C 
ATOM      3  O   UNL     1      -4.233   1.731 130.666  0.00  0.00    +0.000 OA
ATOM      4  N   UNL     1      -6.195   2.519 131.562  0.00  0.00    +0.000 N 
ATOM      5  C   UNL     1      -5.764   3.802 131.032  0.00  0.00    +0.000 C 
ATOM      6  C   UNL     1      -6.170   4.990 131.844  0.00  0.00    +0.000 C 
ATOM      7  C   UNL     1      -7.965   5.127 131.731  0.00  0.00    +0.000 C 
ATOM      8  C   UNL     1      -8.064   3.678 132.762  0.00  0.00    +0.000 C 
ATOM      9  C   UNL     1      -7.593   2.440 132.004  0.00  0.00    +0.000 C 
BRANCH   7  10
ATOM     10  N   UNL     1      -8.930   5.784 130.171  0.00  0.00    +0.000 N 
ATOM     11  C   UNL     1      -9.783   5.917 131.736  0.00  0.00    +0.000 C 
ATOM     12  O   UNL     1      -9.753   6.376 132.853  0.00  0.00    +0.000 OA
ATOM     13  C   UNL     1     -10.574   6.463 130.868  0.00  0.00    +0.000 C 
ATOM     14  C   UNL     1     -11.693   7.226 131.018  0.00  0.00    +0.000 C 
ATOM     15  C   UNL     1     -11.751   6.934 129.556  0.00  0.00    +0.000 A 
ATOM     16  C   UNL     1     -13.259   7.333 129.211  0.00  0.00    +0.000 A 
ATOM     17  C   UNL     1     -13.752   7.499 127.964  0.00  0.00    +0.000 A 
ATOM     18  C   UNL     1     -12.643   7.578 127.144  0.00  0.00    +0.000 A 
ATOM     19  C   UNL     1     -11.002   7.114 127.562  0.00  0.00    +0.000 A 
ATOM     20  C   UNL     1     -10.286   6.472 128.935  0.00  0.00    +0.000 A 
ENDBRANCH   7  10
ENDBRANCH   1   2
BRANCH   1  26
ATOM     21  C   UNL     1      -5.175  -1.863 129.716  0.00  0.00    +0.000 A 
ATOM     22  C   UNL     1      -5.732  -2.549 128.530  0.00  0.00    +0.000 A 
ATOM     23  C   UNL     1      -6.945  -2.239 128.031  0.00  0.00    +0.000 A 
ATOM     24  C   UNL     1      -7.463  -1.415 128.906  0.00  0.00    +0.000 A 
ATOM     25  C   UNL     1      -6.792  -0.401 129.519  0.00  0.00    +0.000 A 
ATOM     26  C   UNL     1      -5.796  -0.777 130.316  0.00  0.00    +0.000 A 
BRANCH  21  28
ATOM     27  C   UNL     1      -3.326  -3.323 129.319  0.00  0.00    +0.000 C 
ATOM     28  O   UNL     1      -3.889  -2.207 129.942  0.00  0.00    +0.000 OA
ENDBRANCH  21  28
BRANCH  23  29
ATOM     29  O   UNL     1      -7.632  -2.584 126.909  0.00  0.00    +0.000 OA
BRANCH  29  30
ATOM     30  C   UNL     1      -7.003  -2.563 125.530  0.00  0.00    +0.000 C 
ATOM     31  C   UNL     1      -6.244  -1.259 125.143  0.00  0.00    +0.000 C 
ATOM     32  C   UNL     1      -7.162  -0.100 124.760  0.00  0.00    +0.000 C 
ATOM     33  N   UNL     1      -8.456  -0.569 123.760  0.00  0.00    +0.000 NA
ATOM     34  C   UNL     1      -9.027  -2.081 123.928  0.00  0.00    +0.000 C 
ATOM     35  C   UNL     1      -7.920  -3.049 124.367  0.00  0.00    +0.000 C 
BRANCH  33  36
ATOM     36  S   UNL     1      -9.730   0.623 123.386  0.00  0.00    +0.000 S 
ATOM     37  C   UNL     1      -9.107   2.233 122.781  0.00  0.00    +0.000 C 
ATOM     38  O   UNL     1     -10.482   0.056 122.283  0.00  0.00    +0.000 OA
ATOM     39  O   UNL     1     -10.359   0.968 124.641  0.00  0.00    +0.000 OA
ENDBRANCH  33  36
ENDBRANCH  29  30
ENDBRANCH  23  29
ENDBRANCH   1  26
TORSDOF 7
ENDMDL
MODEL 2
REMARK VINA RESULT:     -10.0      1.429      1.736
REMARK  Name = CHEMBL2017979
REMARK  9 active torsions:
REMARK  status: ('A' for Active; 'I' for Inactive)
REMARK    1  A    between atoms: C_1  and  O_2
REMARK    2  A    between atoms: O_2  and  C_3
REMARK    3  A    between atoms: C_5  and  O_6
REMARK    4  A    between atoms: O_6  and  C_7
REMARK    5  A    between atoms: N_10  and  S_11
REMARK    6  A    between atoms: S_11  and  C_12
REMARK    7  A    between atoms: C_19  and  C_20
REMARK    8  A    between atoms: C_20  and  C_21
REMARK    9  A    between atoms: C_26  and  N_27
REMARK                            x       y       z     vdW  Elec       q    Type
REMARK                         _______ _______ _______ _____ _____    ______ ____
ROOT
ATOM      1  C   UNL     1      -3.818   1.912 131.920  0.00  0.00    +0.000 C 
ENDROOT
BRANCH   1   2
ATOM      2  C   UNL     1      -4.143   3.340 131.828  0.00  0.00    +0.000 C 
ATOM      3  O   UNL     1      -3.167   4.072 131.612  0.00  0.00    +0.000 OA
ATOM      4  N   UNL     1      -5.408   3.872 132.073  0.00  0.00    +0.000 N 
ATOM      5  C   UNL     1      -5.446   5.307 131.841  0.00  0.00    +0.000 C 
ATOM      6  C   UNL     1      -6.440   6.055 132.670  0.00  0.00    +0.000 C 
ATOM      7  C   UNL     1      -8.082   5.548 132.123  0.00  0.00    +0.000 C 
ATOM      8  C   UNL     1      -7.771   3.976 132.897  0.00  0.00    +0.000 C 
ATOM      9  C   UNL     1      -6.708   3.194 132.131  0.00  0.00    +0.000 C 
BRANCH   7  10
ATOM     10  N   UNL     1      -8.927   6.133 130.467  0.00  0.00    +0.000 N 
ATOM     11  C   UNL     1      -9.987   6.050 131.904  0.00  0.00    +0.000 C 
ATOM     12  O   UNL     1     -10.176   6.448 133.029  0.00  0.00    +0.000 OA
ATOM     13  C   UNL     1     -10.735   6.514 130.954  0.00  0.00    +0.000 C 
ATOM     14  C   UNL     1     -11.971   7.088 130.973  0.00  0.00    +0.000 C 
ATOM     15  C   UNL     1     -11.791   6.869 129.508  0.00  0.00    +0.000 A 
ATOM     16  C   UNL     1     -13.285   7.050 128.973  0.00  0.00    +0.000 A 
ATOM     17  C   UNL     1     -13.631   7.205 127.676  0.00  0.00    +0.000 A 
ATOM     18  C   UNL     1     -12.452   7.496 127.019  0.00  0.00    +0.000 A 
ATOM     19  C   UNL     1     -10.827   7.267 127.643  0.00  0.00    +0.000 A 
ATOM     20  C   UNL     1     -10.202   6.670 129.080  0.00  0.00    +0.000 A 
ENDBRANCH   7  10
ENDBRANCH   1   2
BRANCH   1  26
ATOM     21  C   UNL     1      -4.614  -0.181 130.416  0.00  0.00    +0.000 A 
ATOM     22  C   UNL     1      -5.107  -0.629 129.096  0.00  0.00    +0.000 A 
ATOM     23  C   UNL     1      -5.375   0.241 128.102  0.00  0.00    +0.000 A 
ATOM     24  C   UNL     1      -5.266   1.422 128.655  0.00  0.00    +0.000 A 
ATOM     25  C   UNL     1      -4.284   1.790 129.524  0.00  0.00    +0.000 A 
ATOM     26  C   UNL     1      -4.274   1.137 130.682  0.00  0.00    +0.000 A 
BRANCH  21  28
ATOM     27  C   UNL     1      -5.100  -2.317 131.370  0.00  0.00    +0.000 C 
ATOM     28  O   UNL     1      -4.254  -1.219 131.200  0.00  0.00    +0.000 OA
ENDBRANCH  21  28
BRANCH  23  29
ATOM     29  O   UNL     1      -5.689   0.117 126.784  0.00  0.00    +0.000 OA
BRANCH  29  30
ATOM     30  C   UNL     1      -6.278  -1.154 126.203  0.00  0.00    +0.000 C 
ATOM     31  C   UNL     1      -6.054  -1.378 124.678  0.00  0.00    +0.000 C 
ATOM     32  C   UNL     1      -6.964  -0.533 123.790  0.00  0.00    +0.000 C 
ATOM     33  N   UNL     1      -8.574  -0.474 124.337  0.00  0.00    +0.000 NA
ATOM     34  C   UNL     1      -8.829  -0.597 125.937  0.00  0.00    +0.000 C 
ATOM     35  C   UNL     1      -7.752  -1.458 126.609  0.00  0.00    +0.000 C 
BRANCH  33  36
ATOM     36  S   UNL     1      -9.718   0.630 123.527  0.00  0.00    +0.000 S 
ATOM     37  C   UNL     1      -8.956   2.149 122.851  0.00  0.00    +0.000 C 
ATOM     38  O   UNL     1     -10.217  -0.101 122.378  0.00  0.00    +0.000 OA
ATOM     39  O   UNL     1     -10.603   1.137 124.551  0.00  0.00    +0.000 OA
ENDBRANCH  33  36
ENDBRANCH  29  30
ENDBRANCH  23  29
ENDBRANCH   1  26
TORSDOF 7
ENDMDL
MODEL 3
REMARK VINA RESULT:      -9.9      1.345      1.927
REMARK  Name = CHEMBL2017979
REMARK  9 active torsions:
REMARK  status: ('A' for Active; 'I' for Inactive)
REMARK    1  A    between atoms: C_1  and  O_2
REMARK    2  A    between atoms: O_2  and  C_3
REMARK    3  A    between atoms: C_5  and  O_6
REMARK    4  A    between atoms: O_6  and  C_7
REMARK    5  A    between atoms: N_10  and  S_11
REMARK    6  A    between atoms: S_11  and  C_12
REMARK    7  A    between atoms: C_19  and  C_20
REMARK    8  A    between atoms: C_20  and  C_21
REMARK    9  A    between atoms: C_26  and  N_27
REMARK                            x       y       z     vdW  Elec       q    Type
REMARK                         _______ _______ _______ _____ _____    ______ ____
ROOT
ATOM      1  C   UNL     1      -4.818   0.177 130.469  0.00  0.00    +0.000 C 
ENDROOT
BRANCH   1   2
ATOM      2  C   UNL     1      -4.872   1.624 130.706  0.00  0.00    +0.000 C 
ATOM      3  O   UNL     1      -3.780   2.200 130.596  0.00  0.00    +0.000 OA
ATOM      4  N   UNL     1      -6.010   2.306 131.133  0.00  0.00    +0.000 N 
ATOM      5  C   UNL     1      -5.783   3.739 131.218  0.00  0.00    +0.000 C 
ATOM      6  C   UNL     1      -6.605   4.449 132.245  0.00  0.00    +0.000 C 
ATOM      7  C   UNL     1      -8.322   4.378 131.699  0.00  0.00    +0.000 C 
ATOM      8  C   UNL     1      -8.297   2.644 132.097  0.00  0.00    +0.000 C 
ATOM      9  C   UNL     1      -7.413   1.874 131.120  0.00  0.00    +0.000 C 
BRANCH   7  10
ATOM     10  N   UNL     1      -9.072   5.458 130.260  0.00  0.00    +0.000 N 
ATOM     11  C   UNL     1     -10.061   5.327 131.742  0.00  0.00    +0.000 C 
ATOM     12  O   UNL     1     -10.106   5.523 132.933  0.00  0.00    +0.000 OA
ATOM     13  C   UNL     1     -10.716   6.128 130.963  0.00  0.00    +0.000 C 
ATOM     14  C   UNL     1     -11.780   6.949 131.196  0.00  0.00    +0.000 C 
ATOM     15  C   UNL     1     -11.717   6.994 129.706  0.00  0.00    +0.000 A 
ATOM     16  C   UNL     1     -13.146   7.609 129.344  0.00  0.00    +0.000 A 
ATOM     17  C   UNL     1     -13.498   8.094 128.134  0.00  0.00    +0.000 A 
ATOM     18  C   UNL     1     -12.311   8.240 127.443  0.00  0.00    +0.000 A 
ATOM     19  C   UNL     1     -10.762   7.533 127.871  0.00  0.00    +0.000 A 
ATOM     20  C   UNL     1     -10.239   6.534 129.112  0.00  0.00    +0.000 A 
ENDBRANCH   7  10
ENDBRANCH   1   2
BRANCH   1  26
ATOM     21  C   UNL     1      -5.286   0.511 127.834  0.00  0.00    +0.000 A 
ATOM     22  C   UNL     1      -5.605  -0.148 126.549  0.00  0.00    +0.000 A 
ATOM     23  C   UNL     1      -5.700  -1.488 126.438  0.00  0.00    +0.000 A 
ATOM     24  C   UNL     1      -5.293  -1.946 127.595  0.00  0.00    +0.000 A 
ATOM     25  C   UNL     1      -5.627  -1.420 128.806  0.00  0.00    +0.000 A 
ATOM     26  C   UNL     1      -5.190  -0.185 129.030  0.00  0.00    +0.000 A 
BRANCH  21  28
ATOM     27  C   UNL     1      -4.467   2.618 127.061  0.00  0.00    +0.000 C 
ATOM     28  O   UNL     1      -5.406   1.853 127.757  0.00  0.00    +0.000 OA
ENDBRANCH  21  28
BRANCH  23  29
ATOM     29  O   UNL     1      -6.107  -2.338 125.458  0.00  0.00    +0.000 OA
BRANCH  29  30
ATOM     30  C   UNL     1      -7.497  -2.943 125.429  0.00  0.00    +0.000 C 
ATOM     31  C   UNL     1      -8.062  -3.295 124.021  0.00  0.00    +0.000 C 
ATOM     32  C   UNL     1      -8.557  -2.084 123.233  0.00  0.00    +0.000 C 
ATOM     33  N   UNL     1      -9.453  -0.988 124.176  0.00  0.00    +0.000 NA
ATOM     34  C   UNL     1      -9.085  -0.878 125.755  0.00  0.00    +0.000 C 
ATOM     35  C   UNL     1      -8.564  -2.214 126.301  0.00  0.00    +0.000 C 
BRANCH  33  36
ATOM     36  S   UNL     1      -9.932   0.573 123.458  0.00  0.00    +0.000 S 
ATOM     37  C   UNL     1      -8.532   1.653 122.990  0.00  0.00    +0.000 C 
ATOM     38  O   UNL     1     -10.601   0.241 122.215  0.00  0.00    +0.000 OA
ATOM     39  O   UNL     1     -10.591   1.327 124.501  0.00  0.00    +0.000 OA
ENDBRANCH  33  36
ENDBRANCH  29  30
ENDBRANCH  23  29
ENDBRANCH   1  26
TORSDOF 7
ENDMDL
MODEL 4
REMARK VINA RESULT:      -9.9      2.258      2.702
REMARK  Name = CHEMBL2017979
REMARK  9 active torsions:
REMARK  status: ('A' for Active; 'I' for Inactive)
REMARK    1  A    between atoms: C_1  and  O_2
REMARK    2  A    between atoms: O_2  and  C_3
REMARK    3  A    between atoms: C_5  and  O_6
REMARK    4  A    between atoms: O_6  and  C_7
REMARK    5  A    between atoms: N_10  and  S_11
REMARK    6  A    between atoms: S_11  and  C_12
REMARK    7  A    between atoms: C_19  and  C_20
REMARK    8  A    between atoms: C_20  and  C_21
REMARK    9  A    between atoms: C_26  and  N_27
REMARK                            x       y       z     vdW  Elec       q    Type
REMARK                         _______ _______ _______ _____ _____    ______ ____
ROOT
ATOM      1  C   UNL     1      -4.007   1.769 131.913  0.00  0.00    +0.000 C 
ENDROOT
BRANCH   1   2
ATOM      2  C   UNL     1      -4.262   3.207 131.770  0.00  0.00    +0.000 C 
ATOM      3  O   UNL     1      -3.257   3.879 131.497  0.00  0.00    +0.000 OA
ATOM      4  N   UNL     1      -5.490   3.814 132.026  0.00  0.00    +0.000 N 
ATOM      5  C   UNL     1      -5.462   5.238 131.736  0.00  0.00    +0.000 C 
ATOM      6  C   UNL     1      -6.392   6.070 132.559  0.00  0.00    +0.000 C 
ATOM      7  C   UNL     1      -8.073   5.628 132.078  0.00  0.00    +0.000 C 
ATOM      8  C   UNL     1      -7.820   4.074 132.909  0.00  0.00    +0.000 C 
ATOM      9  C   UNL     1      -6.822   3.207 132.148  0.00  0.00    +0.000 C 
BRANCH   7  10
ATOM     10  N   UNL     1      -8.935   6.188 130.423  0.00  0.00    +0.000 N 
ATOM     11  C   UNL     1      -9.987   6.095 131.865  0.00  0.00    +0.000 C 
ATOM     12  O   UNL     1     -10.179   6.497 132.988  0.00  0.00    +0.000 OA
ATOM     13  C   UNL     1     -10.747   6.541 130.915  0.00  0.00    +0.000 C 
ATOM     14  C   UNL     1     -11.993   7.094 130.937  0.00  0.00    +0.000 C 
ATOM     15  C   UNL     1     -11.815   6.869 129.472  0.00  0.00    +0.000 A 
ATOM     16  C   UNL     1     -13.314   7.022 128.942  0.00  0.00    +0.000 A 
ATOM     17  C   UNL     1     -13.669   7.163 127.646  0.00  0.00    +0.000 A 
ATOM     18  C   UNL     1     -12.498   7.470 126.982  0.00  0.00    +0.000 A 
ATOM     19  C   UNL     1     -10.866   7.273 127.601  0.00  0.00    +0.000 A 
ATOM     20  C   UNL     1     -10.225   6.695 129.038  0.00  0.00    +0.000 A 
ENDBRANCH   7  10
ENDBRANCH   1   2
BRANCH   1  26
ATOM     21  C   UNL     1      -5.424  -0.116 130.603  0.00  0.00    +0.000 A 
ATOM     22  C   UNL     1      -5.853  -0.638 129.288  0.00  0.00    +0.000 A 
ATOM     23  C   UNL     1      -5.535  -0.016 128.135  0.00  0.00    +0.000 A 
ATOM     24  C   UNL     1      -4.988   1.113 128.507  0.00  0.00    +0.000 A 
ATOM     25  C   UNL     1      -4.096   1.250 129.526  0.00  0.00    +0.000 A 
ATOM     26  C   UNL     1      -4.566   0.966 130.737  0.00  0.00    +0.000 A 
BRANCH  21  28
ATOM     27  C   UNL     1      -5.605  -2.356 131.414  0.00  0.00    +0.000 C 
ATOM     28  O   UNL     1      -5.705  -0.976 131.604  0.00  0.00    +0.000 OA
ENDBRANCH  21  28
BRANCH  23  29
ATOM     29  O   UNL     1      -5.661  -0.328 126.817  0.00  0.00    +0.000 OA
BRANCH  29  30
ATOM     30  C   UNL     1      -6.984  -0.242 126.082  0.00  0.00    +0.000 C 
ATOM     31  C   UNL     1      -6.939   0.394 124.661  0.00  0.00    +0.000 C 
ATOM     32  C   UNL     1      -6.829   1.917 124.669  0.00  0.00    +0.000 C 
ATOM     33  N   UNL     1      -7.839   2.659 125.820  0.00  0.00    +0.000 NA
ATOM     34  C   UNL     1      -8.174   1.827 127.174  0.00  0.00    +0.000 C 
ATOM     35  C   UNL     1      -8.179   0.315 126.914  0.00  0.00    +0.000 C 
BRANCH  33  36
ATOM     36  S   UNL     1      -7.684   4.415 126.096  0.00  0.00    +0.000 S 
ATOM     37  C   UNL     1      -6.338   5.215 125.149  0.00  0.00    +0.000 C 
ATOM     38  O   UNL     1      -8.913   4.998 125.595  0.00  0.00    +0.000 OA
ATOM     39  O   UNL     1      -7.262   4.585 127.468  0.00  0.00    +0.000 OA
ENDBRANCH  33  36
ENDBRANCH  29  30
ENDBRANCH  23  29
ENDBRANCH   1  26
TORSDOF 7
ENDMDL
MODEL 5
REMARK VINA RESULT:      -9.9      2.222      3.442
REMARK  Name = CHEMBL2017979
REMARK  9 active torsions:
REMARK  status: ('A' for Active; 'I' for Inactive)
REMARK    1  A    between atoms: C_1  and  O_2
REMARK    2  A    between atoms: O_2  and  C_3
REMARK    3  A    between atoms: C_5  and  O_6
REMARK    4  A    between atoms: O_6  and  C_7
REMARK    5  A    between atoms: N_10  and  S_11
REMARK    6  A    between atoms: S_11  and  C_12
REMARK    7  A    between atoms: C_19  and  C_20
REMARK    8  A    between atoms: C_20  and  C_21
REMARK    9  A    between atoms: C_26  and  N_27
REMARK                            x       y       z     vdW  Elec       q    Type
REMARK                         _______ _______ _______ _____ _____    ______ ____
ROOT
ATOM      1  C   UNL     1      -5.688  -1.020 128.911  0.00  0.00    +0.000 C 
ENDROOT
BRANCH   1   2
ATOM      2  C   UNL     1      -5.527   0.313 129.502  0.00  0.00    +0.000 C 
ATOM      3  O   UNL     1      -4.362   0.737 129.495  0.00  0.00    +0.000 OA
ATOM      4  N   UNL     1      -6.550   1.020 130.133  0.00  0.00    +0.000 N 
ATOM      5  C   UNL     1      -6.113   2.337 130.562  0.00  0.00    +0.000 C 
ATOM      6  C   UNL     1      -6.816   2.875 131.767  0.00  0.00    +0.000 C 
ATOM      7  C   UNL     1      -8.528   3.190 131.291  0.00  0.00    +0.000 C 
ATOM      8  C   UNL     1      -8.758   1.425 131.244  0.00  0.00    +0.000 C 
ATOM      9  C   UNL     1      -8.002   0.810 130.070  0.00  0.00    +0.000 C 
BRANCH   7  10
ATOM     10  N   UNL     1      -9.115   4.692 130.199  0.00  0.00    +0.000 N 
ATOM     11  C   UNL     1      -9.917   4.513 131.786  0.00  0.00    +0.000 C 
ATOM     12  O   UNL     1      -9.761   4.467 132.983  0.00  0.00    +0.000 OA
ATOM     13  C   UNL     1     -10.412   5.594 131.272  0.00  0.00    +0.000 C 
ATOM     14  C   UNL     1     -11.170   6.589 131.815  0.00  0.00    +0.000 C 
ATOM     15  C   UNL     1     -11.276   6.920 130.364  0.00  0.00    +0.000 A 
ATOM     16  C   UNL     1     -12.511   7.933 130.357  0.00  0.00    +0.000 A 
ATOM     17  C   UNL     1     -12.858   8.728 129.321  0.00  0.00    +0.000 A 
ATOM     18  C   UNL     1     -11.769   8.711 128.471  0.00  0.00    +0.000 A 
ATOM     19  C   UNL     1     -10.438   7.566 128.507  0.00  0.00    +0.000 A 
ATOM     20  C   UNL     1     -10.067   6.237 129.459  0.00  0.00    +0.000 A 
ENDBRANCH   7  10
ENDBRANCH   1   2
BRANCH   1  26
ATOM     21  C   UNL     1      -7.433  -1.351 126.880  0.00  0.00    +0.000 A 
ATOM     22  C   UNL     1      -7.731  -1.073 125.458  0.00  0.00    +0.000 A 
ATOM     23  C   UNL     1      -6.925  -0.307 124.697  0.00  0.00    +0.000 A 
ATOM     24  C   UNL     1      -6.050   0.188 125.534  0.00  0.00    +0.000 A 
ATOM     25  C   UNL     1      -5.443  -0.509 126.534  0.00  0.00    +0.000 A 
ATOM     26  C   UNL     1      -6.252  -0.954 127.490  0.00  0.00    +0.000 A 
BRANCH  21  28
ATOM     27  C   UNL     1      -8.767  -3.316 126.623  0.00  0.00    +0.000 C 
ATOM     28  O   UNL     1      -8.273  -2.268 127.403  0.00  0.00    +0.000 OA
ENDBRANCH  21  28
BRANCH  23  29
ATOM     29  O   UNL     1      -6.867  -0.007 123.371  0.00  0.00    +0.000 OA
BRANCH  29  30
ATOM     30  C   UNL     1      -7.592   1.182 122.772  0.00  0.00    +0.000 C 
ATOM     31  C   UNL     1      -6.762   2.491 122.630  0.00  0.00    +0.000 C 
ATOM     32  C   UNL     1      -6.573   3.248 123.943  0.00  0.00    +0.000 C 
ATOM     33  N   UNL     1      -7.988   3.326 124.884  0.00  0.00    +0.000 NA
ATOM     34  C   UNL     1      -9.042   2.096 124.760  0.00  0.00    +0.000 C 
ATOM     35  C   UNL     1      -9.007   1.470 123.360  0.00  0.00    +0.000 C 
BRANCH  33  36
ATOM     36  S   UNL     1      -7.888   4.000 126.533  0.00  0.00    +0.000 S 
ATOM     37  C   UNL     1      -6.184   4.212 127.163  0.00  0.00    +0.000 C 
ATOM     38  O   UNL     1      -8.439   5.338 126.440  0.00  0.00    +0.000 OA
ATOM     39  O   UNL     1      -8.444   3.006 127.424  0.00  0.00    +0.000 OA
ENDBRANCH  33  36
ENDBRANCH  29  30
ENDBRANCH  23  29
ENDBRANCH   1  26
TORSDOF 7
ENDMDL
MODEL 6
REMARK VINA RESULT:      -9.9      4.934      8.276
REMARK  Name = CHEMBL2017979
REMARK  9 active torsions:
REMARK  status: ('A' for Active; 'I' for Inactive)
REMARK    1  A    between atoms: C_1  and  O_2
REMARK    2  A    between atoms: O_2  and  C_3
REMARK    3  A    between atoms: C_5  and  O_6
REMARK    4  A    between atoms: O_6  and  C_7
REMARK    5  A    between atoms: N_10  and  S_11
REMARK    6  A    between atoms: S_11  and  C_12
REMARK    7  A    between atoms: C_19  and  C_20
REMARK    8  A    between atoms: C_20  and  C_21
REMARK    9  A    between atoms: C_26  and  N_27
REMARK                            x       y       z     vdW  Elec       q    Type
REMARK                         _______ _______ _______ _____ _____    ______ ____
ROOT
ATOM      1  C   UNL     1      -4.889  -2.219 127.856  0.00  0.00    +0.000 C 
ENDROOT
BRANCH   1   2
ATOM      2  C   UNL     1      -5.398  -0.849 127.735  0.00  0.00    +0.000 C 
ATOM      3  O   UNL     1      -5.128  -0.117 128.699  0.00  0.00    +0.000 OA
ATOM      4  N   UNL     1      -6.217  -0.406 126.698  0.00  0.00    +0.000 N 
ATOM      5  C   UNL     1      -6.509   1.014 126.806  0.00  0.00    +0.000 C 
ATOM      6  C   UNL     1      -7.823   1.435 126.232  0.00  0.00    +0.000 C 
ATOM      7  C   UNL     1      -7.722   1.214 124.445  0.00  0.00    +0.000 C 
ATOM      8  C   UNL     1      -7.769  -0.542 124.737  0.00  0.00    +0.000 C 
ATOM      9  C   UNL     1      -6.476  -1.019 125.389  0.00  0.00    +0.000 C 
BRANCH   7  10
ATOM     10  N   UNL     1      -6.745   2.391 123.237  0.00  0.00    +0.000 N 
ATOM     11  C   UNL     1      -8.464   2.108 122.840  0.00  0.00    +0.000 C 
ATOM     12  O   UNL     1      -9.606   2.200 123.223  0.00  0.00    +0.000 OA
ATOM     13  C   UNL     1      -8.043   2.954 121.954  0.00  0.00    +0.000 C 
ATOM     14  C   UNL     1      -8.710   3.722 121.047  0.00  0.00    +0.000 C 
ATOM     15  C   UNL     1      -7.305   3.895 120.576  0.00  0.00    +0.000 A 
ATOM     16  C   UNL     1      -7.531   4.499 119.114  0.00  0.00    +0.000 A 
ATOM     17  C   UNL     1      -6.573   5.076 118.356  0.00  0.00    +0.000 A 
ATOM     18  C   UNL     1      -5.521   5.313 119.220  0.00  0.00    +0.000 A 
ATOM     19  C   UNL     1      -5.307   4.614 120.817  0.00  0.00    +0.000 A 
ATOM     20  C   UNL     1      -6.187   3.528 121.743  0.00  0.00    +0.000 A 
ENDBRANCH   7  10
ENDBRANCH   1   2
BRANCH   1  26
ATOM     21  C   UNL     1      -6.573  -3.208 129.718  0.00  0.00    +0.000 A 
ATOM     22  C   UNL     1      -6.699  -3.950 130.990  0.00  0.00    +0.000 A 
ATOM     23  C   UNL     1      -5.629  -4.473 131.621  0.00  0.00    +0.000 A 
ATOM     24  C   UNL     1      -4.637  -4.310 130.782  0.00  0.00    +0.000 A 
ATOM     25  C   UNL     1      -4.410  -3.185 130.049  0.00  0.00    +0.000 A 
ATOM     26  C   UNL     1      -5.346  -2.890 129.153  0.00  0.00    +0.000 A 
BRANCH  21  28
ATOM     27  C   UNL     1      -8.643  -3.306 128.529  0.00  0.00    +0.000 C 
ATOM     28  O   UNL     1      -7.736  -2.631 129.350  0.00  0.00    +0.000 OA
ENDBRANCH  21  28
BRANCH  23  29
ATOM     29  O   UNL     1      -5.426  -5.057 132.832  0.00  0.00    +0.000 OA
BRANCH  29  30
ATOM     30  C   UNL     1      -5.331  -4.258 134.117  0.00  0.00    +0.000 C 
ATOM     31  C   UNL     1      -6.683  -3.884 134.793  0.00  0.00    +0.000 C 
ATOM     32  C   UNL     1      -7.417  -2.731 134.112  0.00  0.00    +0.000 C 
ATOM     33  N   UNL     1      -6.390  -1.448 133.669  0.00  0.00    +0.000 NA
ATOM     34  C   UNL     1      -4.851  -1.811 133.296  0.00  0.00    +0.000 C 
ATOM     35  C   UNL     1      -4.362  -3.037 134.077  0.00  0.00    +0.000 C 
BRANCH  33  36
ATOM     36  S   UNL     1      -7.055  -0.115 132.687  0.00  0.00    +0.000 S 
ATOM     37  C   UNL     1      -8.650  -0.493 131.876  0.00  0.00    +0.000 C 
ATOM     38  O   UNL     1      -7.337   0.956 133.624  0.00  0.00    +0.000 OA
ATOM     39  O   UNL     1      -6.156   0.067 131.569  0.00  0.00    +0.000 OA
ENDBRANCH  33  36
ENDBRANCH  29  30
ENDBRANCH  23  29
ENDBRANCH   1  26
TORSDOF 7
ENDMDL
MODEL 7
REMARK VINA RESULT:      -9.8      2.845      3.970
REMARK  Name = CHEMBL2017979
REMARK  9 active torsions:
REMARK  status: ('A' for Active; 'I' for Inactive)
REMARK    1  A    between atoms: C_1  and  O_2
REMARK    2  A    between atoms: O_2  and  C_3
REMARK    3  A    between atoms: C_5  and  O_6
REMARK    4  A    between atoms: O_6  and  C_7
REMARK    5  A    between atoms: N_10  and  S_11
REMARK    6  A    between atoms: S_11  and  C_12
REMARK    7  A    between atoms: C_19  and  C_20
REMARK    8  A    between atoms: C_20  and  C_21
REMARK    9  A    between atoms: C_26  and  N_27
REMARK                            x       y       z     vdW  Elec       q    Type
REMARK                         _______ _______ _______ _____ _____    ______ ____
ROOT
ATOM      1  C   UNL     1      -2.319   4.315 128.056  0.00  0.00    +0.000 C 
ENDROOT
BRANCH   1   2
ATOM      2  C   UNL     1      -2.826   5.603 128.542  0.00  0.00    +0.000 C 
ATOM      3  O   UNL     1      -2.158   6.583 128.182  0.00  0.00    +0.000 OA
ATOM      4  N   UNL     1      -3.894   5.742 129.428  0.00  0.00    +0.000 N 
ATOM      5  C   UNL     1      -4.213   7.137 129.678  0.00  0.00    +0.000 C 
ATOM      6  C   UNL     1      -4.801   7.420 131.022  0.00  0.00    +0.000 C 
ATOM      7  C   UNL     1      -6.434   6.654 131.064  0.00  0.00    +0.000 C 
ATOM      8  C   UNL     1      -5.608   5.078 131.128  0.00  0.00    +0.000 C 
ATOM      9  C   UNL     1      -4.927   4.767 129.800  0.00  0.00    +0.000 C 
BRANCH   7  10
ATOM     10  N   UNL     1      -8.009   7.355 130.156  0.00  0.00    +0.000 N 
ATOM     11  C   UNL     1      -8.318   6.264 131.537  0.00  0.00    +0.000 C 
ATOM     12  O   UNL     1      -8.150   6.077 132.718  0.00  0.00    +0.000 OA
ATOM     13  C   UNL     1      -9.489   6.650 131.137  0.00  0.00    +0.000 C 
ATOM     14  C   UNL     1     -10.722   6.536 131.705  0.00  0.00    +0.000 C 
ATOM     15  C   UNL     1     -11.091   6.990 130.333  0.00  0.00    +0.000 A 
ATOM     16  C   UNL     1     -12.651   6.650 130.293  0.00  0.00    +0.000 A 
ATOM     17  C   UNL     1     -13.520   7.100 129.361  0.00  0.00    +0.000 A 
ATOM     18  C   UNL     1     -12.857   8.123 128.712  0.00  0.00    +0.000 A 
ATOM     19  C   UNL     1     -11.133   8.452 128.775  0.00  0.00    +0.000 A 
ATOM     20  C   UNL     1      -9.833   7.721 129.539  0.00  0.00    +0.000 A 
ENDBRANCH   7  10
ENDBRANCH   1   2
BRANCH   1  26
ATOM     21  C   UNL     1      -4.183   2.394 127.723  0.00  0.00    +0.000 A 
ATOM     22  C   UNL     1      -5.244   1.849 126.849  0.00  0.00    +0.000 A 
ATOM     23  C   UNL     1      -5.610   2.461 125.705  0.00  0.00    +0.000 A 
ATOM     24  C   UNL     1      -4.969   3.602 125.719  0.00  0.00    +0.000 A 
ATOM     25  C   UNL     1      -3.671   3.765 126.096  0.00  0.00    +0.000 A 
ATOM     26  C   UNL     1      -3.409   3.490 127.370  0.00  0.00    +0.000 A 
BRANCH  21  28
ATOM     27  C   UNL     1      -4.854   0.969 129.520  0.00  0.00    +0.000 C 
ATOM     28  O   UNL     1      -3.863   1.543 128.720  0.00  0.00    +0.000 OA
ENDBRANCH  21  28
BRANCH  23  29
ATOM     29  O   UNL     1      -6.421   2.131 124.664  0.00  0.00    +0.000 OA
BRANCH  29  30
ATOM     30  C   UNL     1      -7.933   2.197 124.756  0.00  0.00    +0.000 C 
ATOM     31  C   UNL     1      -8.557   1.753 126.112  0.00  0.00    +0.000 C 
ATOM     32  C   UNL     1      -8.596   0.240 126.309  0.00  0.00    +0.000 C 
ATOM     33  N   UNL     1      -9.084  -0.608 124.917  0.00  0.00    +0.000 NA
ATOM     34  C   UNL     1      -8.731   0.050 123.474  0.00  0.00    +0.000 C 
ATOM     35  C   UNL     1      -8.706   1.582 123.550  0.00  0.00    +0.000 C 
BRANCH  33  36
ATOM     36  S   UNL     1      -8.991  -2.389 124.917  0.00  0.00    +0.000 S 
ATOM     37  C   UNL     1      -9.430  -3.171 123.323  0.00  0.00    +0.000 C 
ATOM     38  O   UNL     1      -7.592  -2.705 125.135  0.00  0.00    +0.000 OA
ATOM     39  O   UNL     1     -10.027  -2.861 125.808  0.00  0.00    +0.000 OA
ENDBRANCH  33  36
ENDBRANCH  29  30
ENDBRANCH  23  29
ENDBRANCH   1  26
TORSDOF 7
ENDMDL
MODEL 8
REMARK VINA RESULT:      -9.6      1.694      2.674
REMARK  Name = CHEMBL2017979
REMARK  9 active torsions:
REMARK  status: ('A' for Active; 'I' for Inactive)
REMARK    1  A    between atoms: C_1  and  O_2
REMARK    2  A    between atoms: O_2  and  C_3
REMARK    3  A    between atoms: C_5  and  O_6
REMARK    4  A    between atoms: O_6  and  C_7
REMARK    5  A    between atoms: N_10  and  S_11
REMARK    6  A    between atoms: S_11  and  C_12
REMARK    7  A    between atoms: C_19  and  C_20
REMARK    8  A    between atoms: C_20  and  C_21
REMARK    9  A    between atoms: C_26  and  N_27
REMARK                            x       y       z     vdW  Elec       q    Type
REMARK                         _______ _______ _______ _____ _____    ______ ____
ROOT
ATOM      1  C   UNL     1      -3.737   2.073 132.030  0.00  0.00    +0.000 C 
ENDROOT
BRANCH   1   2
ATOM      2  C   UNL     1      -4.102   3.490 131.920  0.00  0.00    +0.000 C 
ATOM      3  O   UNL     1      -3.144   4.248 131.708  0.00  0.00    +0.000 OA
ATOM      4  N   UNL     1      -5.384   3.989 132.145  0.00  0.00    +0.000 N 
ATOM      5  C   UNL     1      -5.459   5.420 131.898  0.00  0.00    +0.000 C 
ATOM      6  C   UNL     1      -6.484   6.147 132.708  0.00  0.00    +0.000 C 
ATOM      7  C   UNL     1      -8.105   5.589 132.147  0.00  0.00    +0.000 C 
ATOM      8  C   UNL     1      -7.758   4.034 132.941  0.00  0.00    +0.000 C 
ATOM      9  C   UNL     1      -6.665   3.275 132.195  0.00  0.00    +0.000 C 
BRANCH   7  10
ATOM     10  N   UNL     1      -8.946   6.133 130.475  0.00  0.00    +0.000 N 
ATOM     11  C   UNL     1     -10.006   6.096 131.914  0.00  0.00    +0.000 C 
ATOM     12  O   UNL     1     -10.193   6.526 133.027  0.00  0.00    +0.000 OA
ATOM     13  C   UNL     1     -10.751   6.539 130.951  0.00  0.00    +0.000 C 
ATOM     14  C   UNL     1     -11.984   7.121 130.954  0.00  0.00    +0.000 C 
ATOM     15  C   UNL     1     -11.805   6.861 129.496  0.00  0.00    +0.000 A 
ATOM     16  C   UNL     1     -13.298   7.037 128.955  0.00  0.00    +0.000 A 
ATOM     17  C   UNL     1     -13.643   7.158 127.655  0.00  0.00    +0.000 A 
ATOM     18  C   UNL     1     -12.462   7.424 126.990  0.00  0.00    +0.000 A 
ATOM     19  C   UNL     1     -10.838   7.202 127.621  0.00  0.00    +0.000 A 
ATOM     20  C   UNL     1     -10.217   6.640 129.073  0.00  0.00    +0.000 A 
ENDBRANCH   7  10
ENDBRANCH   1   2
BRANCH   1  26
ATOM     21  C   UNL     1      -4.203   1.296 129.489  0.00  0.00    +0.000 A 
ATOM     22  C   UNL     1      -4.811   0.277 128.608  0.00  0.00    +0.000 A 
ATOM     23  C   UNL     1      -5.390  -0.837 129.098  0.00  0.00    +0.000 A 
ATOM     24  C   UNL     1      -5.110  -0.821 130.377  0.00  0.00    +0.000 A 
ATOM     25  C   UNL     1      -5.162   0.281 131.175  0.00  0.00    +0.000 A 
ATOM     26  C   UNL     1      -4.296   1.244 130.872  0.00  0.00    +0.000 A 
BRANCH  21  28
ATOM     27  C   UNL     1      -4.780   3.349 128.411  0.00  0.00    +0.000 C 
ATOM     28  O   UNL     1      -3.834   2.400 128.806  0.00  0.00    +0.000 OA
ENDBRANCH  21  28
BRANCH  23  29
ATOM     29  O   UNL     1      -6.131  -1.843 128.562  0.00  0.00    +0.000 OA
BRANCH  29  30
ATOM     30  C   UNL     1      -7.646  -1.860 128.621  0.00  0.00    +0.000 C 
ATOM     31  C   UNL     1      -8.338  -3.150 128.089  0.00  0.00    +0.000 C 
ATOM     32  C   UNL     1      -8.382  -3.244 126.566  0.00  0.00    +0.000 C 
ATOM     33  N   UNL     1      -8.794  -1.776 125.811  0.00  0.00    +0.000 NA
ATOM     34  C   UNL     1      -8.368  -0.400 126.562  0.00  0.00    +0.000 C 
ATOM     35  C   UNL     1      -8.352  -0.577 128.086  0.00  0.00    +0.000 C 
BRANCH  33  36
ATOM     36  S   UNL     1      -8.694  -1.665 124.034  0.00  0.00    +0.000 S 
ATOM     37  C   UNL     1      -7.112  -2.250 123.326  0.00  0.00    +0.000 C 
ATOM     38  O   UNL     1      -9.706  -2.572 123.529  0.00  0.00    +0.000 OA
ATOM     39  O   UNL     1      -8.697  -0.257 123.703  0.00  0.00    +0.000 OA
ENDBRANCH  33  36
ENDBRANCH  29  30
ENDBRANCH  23  29
ENDBRANCH   1  26
TORSDOF 7
ENDMDL
MODEL 9
REMARK VINA RESULT:      -9.6      1.943      2.578
REMARK  Name = CHEMBL2017979
REMARK  9 active torsions:
REMARK  status: ('A' for Active; 'I' for Inactive)
REMARK    1  A    between atoms: C_1  and  O_2
REMARK    2  A    between atoms: O_2  and  C_3
REMARK    3  A    between atoms: C_5  and  O_6
REMARK    4  A    between atoms: O_6  and  C_7
REMARK    5  A    between atoms: N_10  and  S_11
REMARK    6  A    between atoms: S_11  and  C_12
REMARK    7  A    between atoms: C_19  and  C_20
REMARK    8  A    between atoms: C_20  and  C_21
REMARK    9  A    between atoms: C_26  and  N_27
REMARK                            x       y       z     vdW  Elec       q    Type
REMARK                         _______ _______ _______ _____ _____    ______ ____
ROOT
ATOM      1  C   UNL     1      -5.158   1.153 133.439  0.00  0.00    +0.000 C 
ENDROOT
BRANCH   1   2
ATOM      2  C   UNL     1      -5.174   2.584 133.114  0.00  0.00    +0.000 C 
ATOM      3  O   UNL     1      -4.050   3.082 132.950  0.00  0.00    +0.000 OA
ATOM      4  N   UNL     1      -6.323   3.372 133.100  0.00  0.00    +0.000 N 
ATOM      5  C   UNL     1      -6.042   4.734 132.680  0.00  0.00    +0.000 C 
ATOM      6  C   UNL     1      -6.953   5.773 133.250  0.00  0.00    +0.000 C 
ATOM      7  C   UNL     1      -8.588   5.497 132.539  0.00  0.00    +0.000 C 
ATOM      8  C   UNL     1      -8.696   4.036 133.550  0.00  0.00    +0.000 C 
ATOM      9  C   UNL     1      -7.732   2.962 133.056  0.00  0.00    +0.000 C 
BRANCH   7  10
ATOM     10  N   UNL     1      -9.096   5.961 130.716  0.00  0.00    +0.000 N 
ATOM     11  C   UNL     1     -10.358   6.177 131.962  0.00  0.00    +0.000 C 
ATOM     12  O   UNL     1     -10.659   6.731 132.993  0.00  0.00    +0.000 OA
ATOM     13  C   UNL     1     -10.890   6.599 130.859  0.00  0.00    +0.000 C 
ATOM     14  C   UNL     1     -12.031   7.305 130.617  0.00  0.00    +0.000 C 
ATOM     15  C   UNL     1     -11.666   6.886 129.232  0.00  0.00    +0.000 A 
ATOM     16  C   UNL     1     -13.028   7.164 128.445  0.00  0.00    +0.000 A 
ATOM     17  C   UNL     1     -13.155   7.193 127.100  0.00  0.00    +0.000 A 
ATOM     18  C   UNL     1     -11.863   7.266 126.616  0.00  0.00    +0.000 A 
ATOM     19  C   UNL     1     -10.392   6.938 127.517  0.00  0.00    +0.000 A 
ATOM     20  C   UNL     1     -10.070   6.459 129.091  0.00  0.00    +0.000 A 
ENDBRANCH   7  10
ENDBRANCH   1   2
BRANCH   1  26
ATOM     21  C   UNL     1      -7.073  -0.550 132.597  0.00  0.00    +0.000 A 
ATOM     22  C   UNL     1      -7.765  -1.143 131.433  0.00  0.00    +0.000 A 
ATOM     23  C   UNL     1      -7.488  -0.765 130.169  0.00  0.00    +0.000 A 
ATOM     24  C   UNL     1      -6.688   0.263 130.298  0.00  0.00    +0.000 A 
ATOM     25  C   UNL     1      -5.659   0.346 131.187  0.00  0.00    +0.000 A 
ATOM     26  C   UNL     1      -6.012   0.335 132.469  0.00  0.00    +0.000 A 
BRANCH  21  28
ATOM     27  C   UNL     1      -7.882  -2.491 133.732  0.00  0.00    +0.000 C 
ATOM     28  O   UNL     1      -7.380  -1.188 133.746  0.00  0.00    +0.000 OA
ENDBRANCH  21  28
BRANCH  23  29
ATOM     29  O   UNL     1      -7.844  -1.218 128.937  0.00  0.00    +0.000 OA
BRANCH  29  30
ATOM     30  C   UNL     1      -7.386  -2.559 128.399  0.00  0.00    +0.000 C 
ATOM     31  C   UNL     1      -6.056  -2.554 127.588  0.00  0.00    +0.000 C 
ATOM     32  C   UNL     1      -6.202  -2.017 126.166  0.00  0.00    +0.000 C 
ATOM     33  N   UNL     1      -7.593  -2.586 125.370  0.00  0.00    +0.000 NA
ATOM     34  C   UNL     1      -8.893  -2.931 126.281  0.00  0.00    +0.000 C 
ATOM     35  C   UNL     1      -8.483  -3.404 127.682  0.00  0.00    +0.000 C 
BRANCH  33  36
ATOM     36  S   UNL     1      -8.015  -1.899 123.779  0.00  0.00    +0.000 S 
ATOM     37  C   UNL     1      -6.605  -1.732 122.626  0.00  0.00    +0.000 C 
ATOM     38  O   UNL     1      -8.910  -2.861 123.164  0.00  0.00    +0.000 OA
ATOM     39  O   UNL     1      -8.412  -0.528 124.009  0.00  0.00    +0.000 OA
ENDBRANCH  33  36
ENDBRANCH  29  30
ENDBRANCH  23  29
ENDBRANCH   1  26
TORSDOF 7
ENDMDL
