MODEL 1
REMARK VINA RESULT:     -10.0      0.000      0.000
REMARK  Name = CHEMBL2037511
REMARK  10 active torsions:
REMARK  status: ('A' for Active; 'I' for Inactive)
REMARK    1  A    between atoms: CD1_1  and  CG1_2
REMARK    2  A    between atoms: CG1_2  and  CB_3
REMARK    3  A    between atoms: CB_3  and  CG2_4
REMARK    4  A    between atoms: CB_3  and  CA_5
REMARK    5  A    between atoms: C_9  and  C_10
REMARK    6  A    between atoms: N_21  and  C_22
REMARK    7  A    between atoms: C_22  and  C_23
REMARK    8  A    between atoms: C_22  and  C_31
REMARK    9  A    between atoms: C_34  and  C_35
REMARK   10  A    between atoms: C_37  and  C_38
REMARK                            x       y       z     vdW  Elec       q    Type
REMARK                         _______ _______ _______ _____ _____    ______ ____
ROOT
ATOM      1  CA  ILE A   2      -7.488   1.616 131.993  0.00  0.00    +0.000 C 
ATOM      2  C   ILE A   2      -6.518   0.434 131.918  0.00  0.00    +0.000 C 
ATOM      3  O   ILE A   2      -5.838  -0.138 132.791  0.00  0.00    +0.000 OA
ATOM      4  N   UNK A   1      -6.521  -0.207 130.777  0.00  0.00    +0.000 N 
ATOM      5  C   UNK A   1      -7.737  -0.211 130.033  0.00  0.00    +0.000 C 
ATOM      6  C   UNK A   1      -7.983   1.233 129.599  0.00  0.00    +0.000 C 
ATOM      7  O   UNK A   1      -8.477   1.388 128.488  0.00  0.00    +0.000 OA
ATOM      8  N   ILE A   2      -7.633   2.229 130.543  0.00  0.00    +0.000 N 
ATOM      9  H   UNK A   1      -5.925  -1.021 130.855  0.00  0.00    +0.000 HD
ENDROOT
BRANCH   5  10
ATOM     10  C   UNK A   1      -7.542  -1.062 128.784  0.00  0.00    +0.000 C 
ATOM     11  C   UNK A   1      -7.917  -2.533 129.033  0.00  0.00    +0.000 C 
ATOM     12  C   UNK A   1      -6.602  -3.125 129.449  0.00  0.00    +0.000 A 
ATOM     13  C   UNK A   1      -6.389  -4.275 130.186  0.00  0.00    +0.000 A 
ATOM     14  C   UNK A   1      -5.083  -4.576 130.581  0.00  0.00    +0.000 A 
ATOM     15  C   UNK A   1      -4.018  -3.718 130.262  0.00  0.00    +0.000 A 
ATOM     16  C   UNK A   1      -4.241  -2.550 129.530  0.00  0.00    +0.000 A 
ATOM     17  C   UNK A   1      -5.533  -2.280 129.106  0.00  0.00    +0.000 A 
ATOM     18  C   UNK A   1      -6.031  -1.056 128.394  0.00  0.00    +0.000 C 
ENDBRANCH   5  10
BRANCH   1  19
ATOM     19  CB  ILE A   2      -7.032   2.518 133.118  0.00  0.00    +0.000 C 
ATOM     20  CG2 ILE A   2      -5.557   3.053 133.013  0.00  0.00    +0.000 C 
BRANCH  19  22
ATOM     21  CD1 ILE A   2      -8.216   4.664 134.566  0.00  0.00    +0.000 C 
ATOM     22  CG1 ILE A   2      -8.432   3.352 133.907  0.00  0.00    +0.000 C 
ENDBRANCH  19  22
ENDBRANCH   1  19
BRANCH   8  23
ATOM     23  C   UNK A   0      -7.529   3.777 130.093  0.00  0.00    +0.000 C 
BRANCH  23  24
ATOM     24  C   UNK A   0      -6.904   4.212 128.506  0.00  0.00    +0.000 C 
ATOM     25  O   UNK A   0      -7.442   4.553 127.495  0.00  0.00    +0.000 OA
ATOM     26  N   UNK A   0      -5.586   4.103 128.197  0.00  0.00    +0.000 N 
ATOM     27  C   UNK A   0      -5.167   2.796 127.967  0.00  0.00    +0.000 C 
ATOM     28  C   UNK A   0      -3.666   3.037 128.593  0.00  0.00    +0.000 C 
ATOM     29  O   UNK A   0      -2.825   3.676 127.679  0.00  0.00    +0.000 OA
ATOM     30  C   UNK A   0      -3.397   4.979 127.612  0.00  0.00    +0.000 C 
ATOM     31  C   UNK A   0      -4.869   4.867 127.167  0.00  0.00    +0.000 C 
ENDBRANCH  23  24
BRANCH  23  32
ATOM     32  C   UNK A   0      -8.848   4.619 130.461  0.00  0.00    +0.000 A 
ATOM     33  C   UNK A   0     -10.155   4.064 130.336  0.00  0.00    +0.000 A 
ATOM     34  C   UNK A   0     -11.306   4.885 130.395  0.00  0.00    +0.000 A 
ATOM     35  C   UNK A   0     -11.152   6.221 130.689  0.00  0.00    +0.000 A 
ATOM     36  C   UNK A   0     -12.232   7.226 130.829  0.00  0.00    +0.000 C 
ATOM     37  N   UNK A   0      -9.962   6.744 130.926  0.00  0.00    +0.000 NA
ATOM     38  C   UNK A   0      -8.868   5.978 130.809  0.00  0.00    +0.000 A 
ATOM     39  C   UNK A   0      -7.725   6.818 131.158  0.00  0.00    +0.000 C 
ENDBRANCH  23  32
ENDBRANCH   8  23
TORSDOF 6
ENDMDL
MODEL 2
REMARK VINA RESULT:     -10.0      2.294      7.877
REMARK  Name = CHEMBL2037511
REMARK  10 active torsions:
REMARK  status: ('A' for Active; 'I' for Inactive)
REMARK    1  A    between atoms: CD1_1  and  CG1_2
REMARK    2  A    between atoms: CG1_2  and  CB_3
REMARK    3  A    between atoms: CB_3  and  CG2_4
REMARK    4  A    between atoms: CB_3  and  CA_5
REMARK    5  A    between atoms: C_9  and  C_10
REMARK    6  A    between atoms: N_21  and  C_22
REMARK    7  A    between atoms: C_22  and  C_23
REMARK    8  A    between atoms: C_22  and  C_31
REMARK    9  A    between atoms: C_34  and  C_35
REMARK   10  A    between atoms: C_37  and  C_38
REMARK                            x       y       z     vdW  Elec       q    Type
REMARK                         _______ _______ _______ _____ _____    ______ ____
ROOT
ATOM      1  CA  ILE A   2      -8.001   2.837 129.062  0.00  0.00    +0.000 C 
ATOM      2  C   ILE A   2      -8.148   4.224 128.429  0.00  0.00    +0.000 C 
ATOM      3  O   ILE A   2      -8.196   4.592 127.239  0.00  0.00    +0.000 OA
ATOM      4  N   UNK A   1      -8.448   5.182 129.269  0.00  0.00    +0.000 N 
ATOM      5  C   UNK A   1      -9.197   4.824 130.427  0.00  0.00    +0.000 C 
ATOM      6  C   UNK A   1      -8.293   3.924 131.266  0.00  0.00    +0.000 C 
ATOM      7  O   UNK A   1      -8.377   4.052 132.483  0.00  0.00    +0.000 OA
ATOM      8  N   ILE A   2      -7.475   3.023 130.541  0.00  0.00    +0.000 N 
ATOM      9  H   UNK A   1      -8.617   6.034 128.749  0.00  0.00    +0.000 HD
ENDROOT
BRANCH   5  10
ATOM     10  C   UNK A   1      -9.493   6.088 131.227  0.00  0.00    +0.000 C 
ATOM     11  C   UNK A   1     -10.987   6.209 131.568  0.00  0.00    +0.000 C 
ATOM     12  C   UNK A   1     -11.509   7.009 130.411  0.00  0.00    +0.000 A 
ATOM     13  C   UNK A   1     -12.811   7.076 129.949  0.00  0.00    +0.000 A 
ATOM     14  C   UNK A   1     -13.059   7.778 128.767  0.00  0.00    +0.000 A 
ATOM     15  C   UNK A   1     -12.010   8.378 128.052  0.00  0.00    +0.000 A 
ATOM     16  C   UNK A   1     -10.695   8.295 128.515  0.00  0.00    +0.000 A 
ATOM     17  C   UNK A   1     -10.464   7.631 129.710  0.00  0.00    +0.000 A 
ATOM     18  C   UNK A   1      -9.141   7.335 130.356  0.00  0.00    +0.000 C 
ENDBRANCH   5  10
BRANCH   1  19
ATOM     19  CB  ILE A   2      -7.200   1.977 128.111  0.00  0.00    +0.000 C 
ATOM     20  CG2 ILE A   2      -5.694   2.385 127.920  0.00  0.00    +0.000 C 
BRANCH  19  22
ATOM     21  CD1 ILE A   2      -7.013  -0.862 128.214  0.00  0.00    +0.000 C 
ATOM     22  CG1 ILE A   2      -7.895   0.310 127.982  0.00  0.00    +0.000 C 
ENDBRANCH  19  22
ENDBRANCH   1  19
BRANCH   8  23
ATOM     23  C   UNK A   0      -6.251   2.264 131.273  0.00  0.00    +0.000 C 
BRANCH  23  24
ATOM     24  C   UNK A   0      -5.413   3.010 132.630  0.00  0.00    +0.000 C 
ATOM     25  O   UNK A   0      -5.678   3.093 133.792  0.00  0.00    +0.000 OA
ATOM     26  N   UNK A   0      -4.280   3.741 132.462  0.00  0.00    +0.000 N 
ATOM     27  C   UNK A   0      -4.503   5.013 131.942  0.00  0.00    +0.000 C 
ATOM     28  C   UNK A   0      -3.096   5.045 131.093  0.00  0.00    +0.000 C 
ATOM     29  O   UNK A   0      -2.008   5.355 131.912  0.00  0.00    +0.000 OA
ATOM     30  C   UNK A   0      -1.907   4.189 132.724  0.00  0.00    +0.000 C 
ATOM     31  C   UNK A   0      -3.238   3.973 133.471  0.00  0.00    +0.000 C 
ENDBRANCH  23  24
BRANCH  23  32
ATOM     32  C   UNK A   0      -6.562   0.712 131.551  0.00  0.00    +0.000 A 
ATOM     33  C   UNK A   0      -7.847   0.265 131.979  0.00  0.00    +0.000 A 
ATOM     34  C   UNK A   0      -8.036  -1.043 132.480  0.00  0.00    +0.000 A 
ATOM     35  C   UNK A   0      -6.979  -1.925 132.446  0.00  0.00    +0.000 A 
ATOM     36  C   UNK A   0      -6.992  -3.339 132.888  0.00  0.00    +0.000 C 
ATOM     37  N   UNK A   0      -5.805  -1.578 131.946  0.00  0.00    +0.000 NA
ATOM     38  C   UNK A   0      -5.611  -0.319 131.528  0.00  0.00    +0.000 A 
ATOM     39  C   UNK A   0      -4.247  -0.253 131.010  0.00  0.00    +0.000 C 
ENDBRANCH  23  32
ENDBRANCH   8  23
TORSDOF 6
ENDMDL
MODEL 3
REMARK VINA RESULT:      -9.8      2.762      5.744
REMARK  Name = CHEMBL2037511
REMARK  10 active torsions:
REMARK  status: ('A' for Active; 'I' for Inactive)
REMARK    1  A    between atoms: CD1_1  and  CG1_2
REMARK    2  A    between atoms: CG1_2  and  CB_3
REMARK    3  A    between atoms: CB_3  and  CG2_4
REMARK    4  A    between atoms: CB_3  and  CA_5
REMARK    5  A    between atoms: C_9  and  C_10
REMARK    6  A    between atoms: N_21  and  C_22
REMARK    7  A    between atoms: C_22  and  C_23
REMARK    8  A    between atoms: C_22  and  C_31
REMARK    9  A    between atoms: C_34  and  C_35
REMARK   10  A    between atoms: C_37  and  C_38
REMARK                            x       y       z     vdW  Elec       q    Type
REMARK                         _______ _______ _______ _____ _____    ______ ____
ROOT
ATOM      1  CA  ILE A   2      -4.703   2.656 128.663  0.00  0.00    +0.000 C 
ATOM      2  C   ILE A   2      -5.809   1.713 128.182  0.00  0.00    +0.000 C 
ATOM      3  O   ILE A   2      -6.031   1.193 127.072  0.00  0.00    +0.000 OA
ATOM      4  N   UNK A   1      -6.564   1.223 129.132  0.00  0.00    +0.000 N 
ATOM      5  C   UNK A   1      -5.971   1.059 130.418  0.00  0.00    +0.000 C 
ATOM      6  C   UNK A   1      -5.664   2.463 130.934  0.00  0.00    +0.000 C 
ATOM      7  O   UNK A   1      -5.817   2.644 132.137  0.00  0.00    +0.000 OA
ATOM      8  N   ILE A   2      -5.213   3.392 129.966  0.00  0.00    +0.000 N 
ATOM      9  H   UNK A   1      -7.198   0.543 128.731  0.00  0.00    +0.000 HD
ENDROOT
BRANCH   5  10
ATOM     10  C   UNK A   1      -6.994   0.417 131.348  0.00  0.00    +0.000 C 
ATOM     11  C   UNK A   1      -6.384  -0.745 132.149  0.00  0.00    +0.000 C 
ATOM     12  C   UNK A   1      -6.681  -1.923 131.268  0.00  0.00    +0.000 A 
ATOM     13  C   UNK A   1      -6.034  -3.145 131.244  0.00  0.00    +0.000 A 
ATOM     14  C   UNK A   1      -6.383  -4.059 130.247  0.00  0.00    +0.000 A 
ATOM     15  C   UNK A   1      -7.346  -3.736 129.278  0.00  0.00    +0.000 A 
ATOM     16  C   UNK A   1      -7.986  -2.495 129.298  0.00  0.00    +0.000 A 
ATOM     17  C   UNK A   1      -7.664  -1.610 130.315  0.00  0.00    +0.000 A 
ATOM     18  C   UNK A   1      -8.145  -0.199 130.492  0.00  0.00    +0.000 C 
ENDBRANCH   5  10
BRANCH   1  19
ATOM     19  CB  ILE A   2      -4.264   3.494 127.483  0.00  0.00    +0.000 C 
ATOM     20  CG2 ILE A   2      -5.353   4.454 126.880  0.00  0.00    +0.000 C 
BRANCH  19  22
ATOM     21  CD1 ILE A   2      -1.626   3.005 126.529  0.00  0.00    +0.000 C 
ATOM     22  CG1 ILE A   2      -2.473   3.758 127.488  0.00  0.00    +0.000 C 
ENDBRANCH  19  22
ENDBRANCH   1  19
BRANCH   8  23
ATOM     23  C   UNK A   0      -5.174   4.971 130.306  0.00  0.00    +0.000 C 
BRANCH  23  24
ATOM     24  C   UNK A   0      -6.491   5.731 131.195  0.00  0.00    +0.000 C 
ATOM     25  O   UNK A   0      -6.565   6.169 132.304  0.00  0.00    +0.000 OA
ATOM     26  N   UNK A   0      -7.743   5.830 130.680  0.00  0.00    +0.000 N 
ATOM     27  C   UNK A   0      -8.459   4.636 130.707  0.00  0.00    +0.000 C 
ATOM     28  C   UNK A   0      -9.263   4.945 129.307  0.00  0.00    +0.000 C 
ATOM     29  O   UNK A   0     -10.333   5.819 129.512  0.00  0.00    +0.000 OA
ATOM     30  C   UNK A   0      -9.664   7.040 129.814  0.00  0.00    +0.000 C 
ATOM     31  C   UNK A   0      -8.755   6.831 131.043  0.00  0.00    +0.000 C 
ENDBRANCH  23  24
BRANCH  23  32
ATOM     32  C   UNK A   0      -3.739   5.453 130.847  0.00  0.00    +0.000 A 
ATOM     33  C   UNK A   0      -2.863   4.573 131.547  0.00  0.00    +0.000 A 
ATOM     34  C   UNK A   0      -1.740   5.067 132.250  0.00  0.00    +0.000 A 
ATOM     35  C   UNK A   0      -1.437   6.408 132.157  0.00  0.00    +0.000 A 
ATOM     36  C   UNK A   0      -0.290   7.101 132.787  0.00  0.00    +0.000 C 
ATOM     37  N   UNK A   0      -2.163   7.231 131.420  0.00  0.00    +0.000 NA
ATOM     38  C   UNK A   0      -3.261   6.771 130.804  0.00  0.00    +0.000 A 
ATOM     39  C   UNK A   0      -3.824   7.892 130.055  0.00  0.00    +0.000 C 
ENDBRANCH  23  32
ENDBRANCH   8  23
TORSDOF 6
ENDMDL
MODEL 4
REMARK VINA RESULT:      -9.5      2.168      7.563
REMARK  Name = CHEMBL2037511
REMARK  10 active torsions:
REMARK  status: ('A' for Active; 'I' for Inactive)
REMARK    1  A    between atoms: CD1_1  and  CG1_2
REMARK    2  A    between atoms: CG1_2  and  CB_3
REMARK    3  A    between atoms: CB_3  and  CG2_4
REMARK    4  A    between atoms: CB_3  and  CA_5
REMARK    5  A    between atoms: C_9  and  C_10
REMARK    6  A    between atoms: N_21  and  C_22
REMARK    7  A    between atoms: C_22  and  C_23
REMARK    8  A    between atoms: C_22  and  C_31
REMARK    9  A    between atoms: C_34  and  C_35
REMARK   10  A    between atoms: C_37  and  C_38
REMARK                            x       y       z     vdW  Elec       q    Type
REMARK                         _______ _______ _______ _____ _____    ______ ____
ROOT
ATOM      1  CA  ILE A   2      -7.919   1.813 130.479  0.00  0.00    +0.000 C 
ATOM      2  C   ILE A   2      -8.884   2.865 129.925  0.00  0.00    +0.000 C 
ATOM      3  O   ILE A   2      -9.896   2.765 129.206  0.00  0.00    +0.000 OA
ATOM      4  N   UNK A   1      -8.731   4.066 130.424  0.00  0.00    +0.000 N 
ATOM      5  C   UNK A   1      -8.231   4.161 131.754  0.00  0.00    +0.000 C 
ATOM      6  C   UNK A   1      -6.796   3.638 131.716  0.00  0.00    +0.000 C 
ATOM      7  O   UNK A   1      -5.991   4.209 132.443  0.00  0.00    +0.000 OA
ATOM      8  N   ILE A   2      -6.565   2.534 130.859  0.00  0.00    +0.000 N 
ATOM      9  H   UNK A   1      -9.468   4.664 130.071  0.00  0.00    +0.000 HD
ENDROOT
BRANCH   5  10
ATOM     10  C   UNK A   1      -8.196   5.631 132.158  0.00  0.00    +0.000 C 
ATOM     11  C   UNK A   1      -9.453   6.035 132.945  0.00  0.00    +0.000 C 
ATOM     12  C   UNK A   1     -10.363   6.520 131.854  0.00  0.00    +0.000 A 
ATOM     13  C   UNK A   1     -11.742   6.613 131.884  0.00  0.00    +0.000 A 
ATOM     14  C   UNK A   1     -12.408   6.963 130.707  0.00  0.00    +0.000 A 
ATOM     15  C   UNK A   1     -11.697   7.189 129.517  0.00  0.00    +0.000 A 
ATOM     16  C   UNK A   1     -10.305   7.079 129.489  0.00  0.00    +0.000 A 
ATOM     17  C   UNK A   1      -9.650   6.771 130.671  0.00  0.00    +0.000 A 
ATOM     18  C   UNK A   1      -8.184   6.512 130.869  0.00  0.00    +0.000 C 
ENDBRANCH   5  10
BRANCH   1  19
ATOM     19  CB  ILE A   2      -7.876   0.663 129.499  0.00  0.00    +0.000 C 
ATOM     20  CG2 ILE A   2      -7.206   0.969 128.110  0.00  0.00    +0.000 C 
BRANCH  19  22
ATOM     21  CD1 ILE A   2      -7.908  -2.184 129.548  0.00  0.00    +0.000 C 
ATOM     22  CG1 ILE A   2      -7.920  -0.935 130.350  0.00  0.00    +0.000 C 
ENDBRANCH  19  22
ENDBRANCH   1  19
BRANCH   8  23
ATOM     23  C   UNK A   0      -5.056   2.103 130.475  0.00  0.00    +0.000 C 
BRANCH  23  24
ATOM     24  C   UNK A   0      -3.905   3.295 129.880  0.00  0.00    +0.000 C 
ATOM     25  O   UNK A   0      -3.232   4.110 130.437  0.00  0.00    +0.000 OA
ATOM     26  N   UNK A   0      -3.703   3.501 128.553  0.00  0.00    +0.000 N 
ATOM     27  C   UNK A   0      -4.719   4.223 127.934  0.00  0.00    +0.000 C 
ATOM     28  C   UNK A   0      -4.585   3.422 126.505  0.00  0.00    +0.000 C 
ATOM     29  O   UNK A   0      -3.514   3.902 125.747  0.00  0.00    +0.000 OA
ATOM     30  C   UNK A   0      -2.393   3.463 126.508  0.00  0.00    +0.000 C 
ATOM     31  C   UNK A   0      -2.486   4.043 127.933  0.00  0.00    +0.000 C 
ENDBRANCH  23  24
BRANCH  23  32
ATOM     32  C   UNK A   0      -4.392   1.133 131.570  0.00  0.00    +0.000 A 
ATOM     33  C   UNK A   0      -4.029   1.597 132.868  0.00  0.00    +0.000 A 
ATOM     34  C   UNK A   0      -3.205   0.822 133.717  0.00  0.00    +0.000 A 
ATOM     35  C   UNK A   0      -2.847  -0.446 133.316  0.00  0.00    +0.000 A 
ATOM     36  C   UNK A   0      -2.026  -1.416 134.078  0.00  0.00    +0.000 C 
ATOM     37  N   UNK A   0      -3.264  -0.952 132.168  0.00  0.00    +0.000 NA
ATOM     38  C   UNK A   0      -3.994  -0.193 131.338  0.00  0.00    +0.000 A 
ATOM     39  C   UNK A   0      -4.324  -1.027 130.185  0.00  0.00    +0.000 C 
ENDBRANCH  23  32
ENDBRANCH   8  23
TORSDOF 6
ENDMDL
MODEL 5
REMARK VINA RESULT:      -9.4      2.938      6.168
REMARK  Name = CHEMBL2037511
REMARK  10 active torsions:
REMARK  status: ('A' for Active; 'I' for Inactive)
REMARK    1  A    between atoms: CD1_1  and  CG1_2
REMARK    2  A    between atoms: CG1_2  and  CB_3
REMARK    3  A    between atoms: CB_3  and  CG2_4
REMARK    4  A    between atoms: CB_3  and  CA_5
REMARK    5  A    between atoms: C_9  and  C_10
REMARK    6  A    between atoms: N_21  and  C_22
REMARK    7  A    between atoms: C_22  and  C_23
REMARK    8  A    between atoms: C_22  and  C_31
REMARK    9  A    between atoms: C_34  and  C_35
REMARK   10  A    between atoms: C_37  and  C_38
REMARK                            x       y       z     vdW  Elec       q    Type
REMARK                         _______ _______ _______ _____ _____    ______ ____
ROOT
ATOM      1  CA  ILE A   2      -5.369   2.771 126.512  0.00  0.00    +0.000 C 
ATOM      2  C   ILE A   2      -6.312   2.350 125.380  0.00  0.00    +0.000 C 
ATOM      3  O   ILE A   2      -6.217   2.448 124.142  0.00  0.00    +0.000 OA
ATOM      4  N   UNK A   1      -7.319   1.604 125.755  0.00  0.00    +0.000 N 
ATOM      5  C   UNK A   1      -7.126   0.769 126.894  0.00  0.00    +0.000 C 
ATOM      6  C   UNK A   1      -6.948   1.704 128.089  0.00  0.00    +0.000 C 
ATOM      7  O   UNK A   1      -7.437   1.328 129.149  0.00  0.00    +0.000 OA
ATOM      8  N   ILE A   2      -6.215   2.890 127.842  0.00  0.00    +0.000 N 
ATOM      9  H   UNK A   1      -7.827   1.300 124.934  0.00  0.00    +0.000 HD
ENDROOT
BRANCH   5  10
ATOM     10  C   UNK A   1      -8.388  -0.057 127.114  0.00  0.00    +0.000 C 
ATOM     11  C   UNK A   1      -8.069  -1.553 127.268  0.00  0.00    +0.000 C 
ATOM     12  C   UNK A   1      -8.183  -2.045 125.854  0.00  0.00    +0.000 A 
ATOM     13  C   UNK A   1      -7.614  -3.180 125.307  0.00  0.00    +0.000 A 
ATOM     14  C   UNK A   1      -7.734  -3.383 123.930  0.00  0.00    +0.000 A 
ATOM     15  C   UNK A   1      -8.392  -2.444 123.118  0.00  0.00    +0.000 A 
ATOM     16  C   UNK A   1      -8.952  -1.292 123.674  0.00  0.00    +0.000 A 
ATOM     17  C   UNK A   1      -8.864  -1.119 125.047  0.00  0.00    +0.000 A 
ATOM     18  C   UNK A   1      -9.303   0.067 125.855  0.00  0.00    +0.000 C 
ENDBRANCH   5  10
BRANCH   1  19
ATOM     19  CB  ILE A   2      -4.590   3.978 126.039  0.00  0.00    +0.000 C 
ATOM     20  CG2 ILE A   2      -5.447   5.184 125.508  0.00  0.00    +0.000 C 
BRANCH  19  22
ATOM     21  CD1 ILE A   2      -1.928   3.072 126.489  0.00  0.00    +0.000 C 
ATOM     22  CG1 ILE A   2      -2.968   4.072 126.839  0.00  0.00    +0.000 C 
ENDBRANCH  19  22
ENDBRANCH   1  19
BRANCH   8  23
ATOM     23  C   UNK A   0      -6.239   4.101 128.911  0.00  0.00    +0.000 C 
BRANCH  23  24
ATOM     24  C   UNK A   0      -7.721   4.515 129.767  0.00  0.00    +0.000 C 
ATOM     25  O   UNK A   0      -8.482   5.429 129.661  0.00  0.00    +0.000 OA
ATOM     26  N   UNK A   0      -8.161   3.796 130.832  0.00  0.00    +0.000 N 
ATOM     27  C   UNK A   0      -7.454   4.039 132.007  0.00  0.00    +0.000 C 
ATOM     28  C   UNK A   0      -7.599   2.498 132.558  0.00  0.00    +0.000 C 
ATOM     29  O   UNK A   0      -8.854   2.273 133.128  0.00  0.00    +0.000 OA
ATOM     30  C   UNK A   0      -9.710   2.326 131.990  0.00  0.00    +0.000 C 
ATOM     31  C   UNK A   0      -9.551   3.695 131.298  0.00  0.00    +0.000 C 
ENDBRANCH  23  24
BRANCH  23  32
ATOM     32  C   UNK A   0      -4.971   4.081 129.897  0.00  0.00    +0.000 A 
ATOM     33  C   UNK A   0      -4.511   2.880 130.510  0.00  0.00    +0.000 A 
ATOM     34  C   UNK A   0      -3.582   2.912 131.576  0.00  0.00    +0.000 A 
ATOM     35  C   UNK A   0      -3.037   4.122 131.943  0.00  0.00    +0.000 A 
ATOM     36  C   UNK A   0      -2.028   4.352 133.004  0.00  0.00    +0.000 C 
ATOM     37  N   UNK A   0      -3.354   5.241 131.316  0.00  0.00    +0.000 NA
ATOM     38  C   UNK A   0      -4.280   5.216 130.347  0.00  0.00    +0.000 A 
ATOM     39  C   UNK A   0      -4.389   6.580 129.833  0.00  0.00    +0.000 C 
ENDBRANCH  23  32
ENDBRANCH   8  23
TORSDOF 6
ENDMDL
MODEL 6
REMARK VINA RESULT:      -9.3      2.590      3.577
REMARK  Name = CHEMBL2037511
REMARK  10 active torsions:
REMARK  status: ('A' for Active; 'I' for Inactive)
REMARK    1  A    between atoms: CD1_1  and  CG1_2
REMARK    2  A    between atoms: CG1_2  and  CB_3
REMARK    3  A    between atoms: CB_3  and  CG2_4
REMARK    4  A    between atoms: CB_3  and  CA_5
REMARK    5  A    between atoms: C_9  and  C_10
REMARK    6  A    between atoms: N_21  and  C_22
REMARK    7  A    between atoms: C_22  and  C_23
REMARK    8  A    between atoms: C_22  and  C_31
REMARK    9  A    between atoms: C_34  and  C_35
REMARK   10  A    between atoms: C_37  and  C_38
REMARK                            x       y       z     vdW  Elec       q    Type
REMARK                         _______ _______ _______ _____ _____    ______ ____
ROOT
ATOM      1  CA  ILE A   2      -6.714   1.804 132.603  0.00  0.00    +0.000 C 
ATOM      2  C   ILE A   2      -6.093   0.663 133.415  0.00  0.00    +0.000 C 
ATOM      3  O   ILE A   2      -6.475   0.073 134.443  0.00  0.00    +0.000 OA
ATOM      4  N   UNK A   1      -5.068   0.080 132.846  0.00  0.00    +0.000 N 
ATOM      5  C   UNK A   1      -5.030   0.069 131.422  0.00  0.00    +0.000 C 
ATOM      6  C   UNK A   1      -4.866   1.523 130.982  0.00  0.00    +0.000 C 
ATOM      7  O   UNK A   1      -4.160   1.716 129.999  0.00  0.00    +0.000 OA
ATOM      8  N   ILE A   2      -5.570   2.483 131.750  0.00  0.00    +0.000 N 
ATOM      9  H   UNK A   1      -4.789  -0.715 133.407  0.00  0.00    +0.000 HD
ENDROOT
BRANCH   5  10
ATOM     10  C   UNK A   1      -3.800  -0.711 130.972  0.00  0.00    +0.000 C 
ATOM     11  C   UNK A   1      -4.118  -1.642 129.790  0.00  0.00    +0.000 C 
ATOM     12  C   UNK A   1      -4.479  -2.921 130.488  0.00  0.00    +0.000 A 
ATOM     13  C   UNK A   1      -5.240  -3.965 129.996  0.00  0.00    +0.000 A 
ATOM     14  C   UNK A   1      -5.571  -5.009 130.864  0.00  0.00    +0.000 A 
ATOM     15  C   UNK A   1      -5.165  -4.985 132.208  0.00  0.00    +0.000 A 
ATOM     16  C   UNK A   1      -4.409  -3.921 132.703  0.00  0.00    +0.000 A 
ATOM     17  C   UNK A   1      -4.050  -2.910 131.825  0.00  0.00    +0.000 A 
ATOM     18  C   UNK A   1      -3.327  -1.632 132.140  0.00  0.00    +0.000 C 
ENDBRANCH   5  10
BRANCH   1  19
ATOM     19  CB  ILE A   2      -7.515   2.664 133.554  0.00  0.00    +0.000 C 
ATOM     20  CG2 ILE A   2      -6.680   3.521 134.574  0.00  0.00    +0.000 C 
BRANCH  19  22
ATOM     21  CD1 ILE A   2      -9.920   2.029 132.169  0.00  0.00    +0.000 C 
ATOM     22  CG1 ILE A   2      -9.136   3.081 132.864  0.00  0.00    +0.000 C 
ENDBRANCH  19  22
ENDBRANCH   1  19
BRANCH   8  23
ATOM     23  C   UNK A   0      -5.224   4.055 131.605  0.00  0.00    +0.000 C 
BRANCH  23  24
ATOM     24  C   UNK A   0      -3.699   4.578 130.897  0.00  0.00    +0.000 C 
ATOM     25  O   UNK A   0      -3.210   4.402 129.821  0.00  0.00    +0.000 OA
ATOM     26  N   UNK A   0      -2.761   5.243 131.619  0.00  0.00    +0.000 N 
ATOM     27  C   UNK A   0      -2.040   4.430 132.489  0.00  0.00    +0.000 C 
ATOM     28  C   UNK A   0      -1.875   5.596 133.636  0.00  0.00    +0.000 C 
ATOM     29  O   UNK A   0      -0.853   6.492 133.313  0.00  0.00    +0.000 OA
ATOM     30  C   UNK A   0      -1.402   7.174 132.189  0.00  0.00    +0.000 C 
ATOM     31  C   UNK A   0      -1.736   6.150 131.086  0.00  0.00    +0.000 C 
ENDBRANCH  23  24
BRANCH  23  32
ATOM     32  C   UNK A   0      -6.463   4.912 131.045  0.00  0.00    +0.000 A 
ATOM     33  C   UNK A   0      -7.056   5.963 131.802  0.00  0.00    +0.000 A 
ATOM     34  C   UNK A   0      -8.301   6.521 131.428  0.00  0.00    +0.000 A 
ATOM     35  C   UNK A   0      -8.883   6.110 130.250  0.00  0.00    +0.000 A 
ATOM     36  C   UNK A   0     -10.157   6.602 129.675  0.00  0.00    +0.000 C 
ATOM     37  N   UNK A   0      -8.301   5.222 129.464  0.00  0.00    +0.000 NA
ATOM     38  C   UNK A   0      -7.152   4.650 129.851  0.00  0.00    +0.000 A 
ATOM     39  C   UNK A   0      -6.746   3.748 128.775  0.00  0.00    +0.000 C 
ENDBRANCH  23  32
ENDBRANCH   8  23
TORSDOF 6
ENDMDL
MODEL 7
REMARK VINA RESULT:      -9.2      2.465      5.073
REMARK  Name = CHEMBL2037511
REMARK  10 active torsions:
REMARK  status: ('A' for Active; 'I' for Inactive)
REMARK    1  A    between atoms: CD1_1  and  CG1_2
REMARK    2  A    between atoms: CG1_2  and  CB_3
REMARK    3  A    between atoms: CB_3  and  CG2_4
REMARK    4  A    between atoms: CB_3  and  CA_5
REMARK    5  A    between atoms: C_9  and  C_10
REMARK    6  A    between atoms: N_21  and  C_22
REMARK    7  A    between atoms: C_22  and  C_23
REMARK    8  A    between atoms: C_22  and  C_31
REMARK    9  A    between atoms: C_34  and  C_35
REMARK   10  A    between atoms: C_37  and  C_38
REMARK                            x       y       z     vdW  Elec       q    Type
REMARK                         _______ _______ _______ _____ _____    ______ ____
ROOT
ATOM      1  CA  ILE A   2      -8.446   2.263 131.042  0.00  0.00    +0.000 C 
ATOM      2  C   ILE A   2      -8.877   0.853 131.455  0.00  0.00    +0.000 C 
ATOM      3  O   ILE A   2      -9.976   0.397 131.827  0.00  0.00    +0.000 OA
ATOM      4  N   UNK A   1      -7.993  -0.083 131.219  0.00  0.00    +0.000 N 
ATOM      5  C   UNK A   1      -7.106   0.119 130.123  0.00  0.00    +0.000 C 
ATOM      6  C   UNK A   1      -6.229   1.314 130.489  0.00  0.00    +0.000 C 
ATOM      7  O   UNK A   1      -5.059   1.261 130.125  0.00  0.00    +0.000 OA
ATOM      8  N   ILE A   2      -6.875   2.362 131.189  0.00  0.00    +0.000 N 
ATOM      9  H   UNK A   1      -8.401  -0.983 131.435  0.00  0.00    +0.000 HD
ENDROOT
BRANCH   5  10
ATOM     10  C   UNK A   1      -6.212  -1.109 129.986  0.00  0.00    +0.000 C 
ATOM     11  C   UNK A   1      -5.756  -1.321 128.533  0.00  0.00    +0.000 C 
ATOM     12  C   UNK A   1      -6.822  -2.234 128.000  0.00  0.00    +0.000 A 
ATOM     13  C   UNK A   1      -7.183  -2.430 126.680  0.00  0.00    +0.000 A 
ATOM     14  C   UNK A   1      -8.299  -3.226 126.410  0.00  0.00    +0.000 A 
ATOM     15  C   UNK A   1      -9.052  -3.789 127.453  0.00  0.00    +0.000 A 
ATOM     16  C   UNK A   1      -8.692  -3.575 128.785  0.00  0.00    +0.000 A 
ATOM     17  C   UNK A   1      -7.559  -2.819 129.043  0.00  0.00    +0.000 A 
ATOM     18  C   UNK A   1      -7.030  -2.380 130.377  0.00  0.00    +0.000 C 
ENDBRANCH   5  10
BRANCH   1  19
ATOM     19  CB  ILE A   2      -9.308   3.250 131.797  0.00  0.00    +0.000 C 
ATOM     20  CG2 ILE A   2      -9.106   3.284 133.356  0.00  0.00    +0.000 C 
BRANCH  19  22
ATOM     21  CD1 ILE A   2     -11.252   4.807 130.418  0.00  0.00    +0.000 C 
ATOM     22  CG1 ILE A   2      -9.814   4.631 130.741  0.00  0.00    +0.000 C 
ENDBRANCH  19  22
ENDBRANCH   1  19
BRANCH   8  23
ATOM     23  C   UNK A   0      -6.006   3.513 131.918  0.00  0.00    +0.000 C 
BRANCH  23  24
ATOM     24  C   UNK A   0      -4.846   3.101 133.176  0.00  0.00    +0.000 C 
ATOM     25  O   UNK A   0      -4.006   2.255 133.250  0.00  0.00    +0.000 OA
ATOM     26  N   UNK A   0      -4.844   3.722 134.384  0.00  0.00    +0.000 N 
ATOM     27  C   UNK A   0      -5.864   3.303 135.234  0.00  0.00    +0.000 C 
ATOM     28  C   UNK A   0      -6.054   4.779 135.932  0.00  0.00    +0.000 C 
ATOM     29  O   UNK A   0      -5.078   5.018 136.902  0.00  0.00    +0.000 OA
ATOM     30  C   UNK A   0      -3.901   5.148 136.110  0.00  0.00    +0.000 C 
ATOM     31  C   UNK A   0      -3.695   3.859 135.289  0.00  0.00    +0.000 C 
ENDBRANCH  23  24
BRANCH  23  32
ATOM     32  C   UNK A   0      -5.402   4.582 130.882  0.00  0.00    +0.000 A 
ATOM     33  C   UNK A   0      -4.315   4.263 130.017  0.00  0.00    +0.000 A 
ATOM     34  C   UNK A   0      -3.617   5.273 129.315  0.00  0.00    +0.000 A 
ATOM     35  C   UNK A   0      -4.076   6.570 129.391  0.00  0.00    +0.000 A 
ATOM     36  C   UNK A   0      -3.506   7.752 128.704  0.00  0.00    +0.000 C 
ATOM     37  N   UNK A   0      -5.153   6.881 130.091  0.00  0.00    +0.000 NA
ATOM     38  C   UNK A   0      -5.776   5.932 130.804  0.00  0.00    +0.000 A 
ATOM     39  C   UNK A   0      -6.930   6.568 131.436  0.00  0.00    +0.000 C 
ENDBRANCH  23  32
ENDBRANCH   8  23
TORSDOF 6
ENDMDL
MODEL 8
REMARK VINA RESULT:      -9.1      2.616      7.122
REMARK  Name = CHEMBL2037511
REMARK  10 active torsions:
REMARK  status: ('A' for Active; 'I' for Inactive)
REMARK    1  A    between atoms: CD1_1  and  CG1_2
REMARK    2  A    between atoms: CG1_2  and  CB_3
REMARK    3  A    between atoms: CB_3  and  CG2_4
REMARK    4  A    between atoms: CB_3  and  CA_5
REMARK    5  A    between atoms: C_9  and  C_10
REMARK    6  A    between atoms: N_21  and  C_22
REMARK    7  A    between atoms: C_22  and  C_23
REMARK    8  A    between atoms: C_22  and  C_31
REMARK    9  A    between atoms: C_34  and  C_35
REMARK   10  A    between atoms: C_37  and  C_38
REMARK                            x       y       z     vdW  Elec       q    Type
REMARK                         _______ _______ _______ _____ _____    ______ ____
ROOT
ATOM      1  CA  ILE A   2      -6.212   2.962 129.054  0.00  0.00    +0.000 C 
ATOM      2  C   ILE A   2      -5.645   3.395 130.409  0.00  0.00    +0.000 C 
ATOM      3  O   ILE A   2      -4.837   4.289 130.722  0.00  0.00    +0.000 OA
ATOM      4  N   UNK A   1      -6.231   2.853 131.447  0.00  0.00    +0.000 N 
ATOM      5  C   UNK A   1      -7.603   2.495 131.309  0.00  0.00    +0.000 C 
ATOM      6  C   UNK A   1      -7.655   1.368 130.279  0.00  0.00    +0.000 C 
ATOM      7  O   UNK A   1      -8.484   0.487 130.480  0.00  0.00    +0.000 OA
ATOM      8  N   ILE A   2      -6.753   1.483 129.194  0.00  0.00    +0.000 N 
ATOM      9  H   UNK A   1      -5.855   3.269 132.290  0.00  0.00    +0.000 HD
ENDROOT
BRANCH   5  10
ATOM     10  C   UNK A   1      -8.101   1.950 132.643  0.00  0.00    +0.000 C 
ATOM     11  C   UNK A   1      -9.127   2.891 133.295  0.00  0.00    +0.000 C 
ATOM     12  C   UNK A   1      -8.255   3.758 134.155  0.00  0.00    +0.000 A 
ATOM     13  C   UNK A   1      -8.537   5.022 134.641  0.00  0.00    +0.000 A 
ATOM     14  C   UNK A   1      -7.526   5.713 135.313  0.00  0.00    +0.000 A 
ATOM     15  C   UNK A   1      -6.248   5.151 135.467  0.00  0.00    +0.000 A 
ATOM     16  C   UNK A   1      -5.965   3.881 134.962  0.00  0.00    +0.000 A 
ATOM     17  C   UNK A   1      -6.985   3.185 134.333  0.00  0.00    +0.000 A 
ATOM     18  C   UNK A   1      -6.900   1.858 133.636  0.00  0.00    +0.000 C 
ENDBRANCH   5  10
BRANCH   1  19
ATOM     19  CB  ILE A   2      -5.168   3.254 128.001  0.00  0.00    +0.000 C 
ATOM     20  CG2 ILE A   2      -3.799   2.498 128.163  0.00  0.00    +0.000 C 
BRANCH  19  22
ATOM     21  CD1 ILE A   2      -5.484   3.181 125.172  0.00  0.00    +0.000 C 
ATOM     22  CG1 ILE A   2      -5.926   3.797 126.449  0.00  0.00    +0.000 C 
ENDBRANCH  19  22
ENDBRANCH   1  19
BRANCH   8  23
ATOM     23  C   UNK A   0      -6.473   0.217 128.229  0.00  0.00    +0.000 C 
BRANCH  23  24
ATOM     24  C   UNK A   0      -6.493  -1.423 128.870  0.00  0.00    +0.000 C 
ATOM     25  O   UNK A   0      -7.372  -2.220 129.012  0.00  0.00    +0.000 OA
ATOM     26  N   UNK A   0      -5.392  -1.993 129.424  0.00  0.00    +0.000 N 
ATOM     27  C   UNK A   0      -5.103  -1.531 130.706  0.00  0.00    +0.000 C 
ATOM     28  C   UNK A   0      -3.476  -1.657 130.516  0.00  0.00    +0.000 C 
ATOM     29  O   UNK A   0      -3.039  -2.973 130.679  0.00  0.00    +0.000 OA
ATOM     30  C   UNK A   0      -3.582  -3.610 129.526  0.00  0.00    +0.000 C 
ATOM     31  C   UNK A   0      -5.114  -3.432 129.520  0.00  0.00    +0.000 C 
ENDBRANCH  23  24
BRANCH  23  32
ATOM     32  C   UNK A   0      -7.261   0.317 126.832  0.00  0.00    +0.000 A 
ATOM     33  C   UNK A   0      -8.572   0.868 126.744  0.00  0.00    +0.000 A 
ATOM     34  C   UNK A   0      -9.358   0.704 125.579  0.00  0.00    +0.000 A 
ATOM     35  C   UNK A   0      -8.793   0.095 124.480  0.00  0.00    +0.000 A 
ATOM     36  C   UNK A   0      -9.439  -0.134 123.167  0.00  0.00    +0.000 C 
ATOM     37  N   UNK A   0      -7.539  -0.323 124.490  0.00  0.00    +0.000 NA
ATOM     38  C   UNK A   0      -6.817  -0.221 125.615  0.00  0.00    +0.000 A 
ATOM     39  C   UNK A   0      -5.483  -0.732 125.307  0.00  0.00    +0.000 C 
ENDBRANCH  23  32
ENDBRANCH   8  23
TORSDOF 6
ENDMDL
MODEL 9
REMARK VINA RESULT:      -9.1      2.626      4.880
REMARK  Name = CHEMBL2037511
REMARK  10 active torsions:
REMARK  status: ('A' for Active; 'I' for Inactive)
REMARK    1  A    between atoms: CD1_1  and  CG1_2
REMARK    2  A    between atoms: CG1_2  and  CB_3
REMARK    3  A    between atoms: CB_3  and  CG2_4
REMARK    4  A    between atoms: CB_3  and  CA_5
REMARK    5  A    between atoms: C_9  and  C_10
REMARK    6  A    between atoms: N_21  and  C_22
REMARK    7  A    between atoms: C_22  and  C_23
REMARK    8  A    between atoms: C_22  and  C_31
REMARK    9  A    between atoms: C_34  and  C_35
REMARK   10  A    between atoms: C_37  and  C_38
REMARK                            x       y       z     vdW  Elec       q    Type
REMARK                         _______ _______ _______ _____ _____    ______ ____
ROOT
ATOM      1  CA  ILE A   2      -5.015   2.203 131.212  0.00  0.00    +0.000 C 
ATOM      2  C   ILE A   2      -5.385   1.228 130.090  0.00  0.00    +0.000 C 
ATOM      3  O   ILE A   2      -4.800   0.918 129.035  0.00  0.00    +0.000 OA
ATOM      4  N   UNK A   1      -6.405   0.452 130.353  0.00  0.00    +0.000 N 
ATOM      5  C   UNK A   1      -6.638   0.118 131.718  0.00  0.00    +0.000 C 
ATOM      6  C   UNK A   1      -7.025   1.418 132.421  0.00  0.00    +0.000 C 
ATOM      7  O   UNK A   1      -7.877   1.327 133.299  0.00  0.00    +0.000 OA
ATOM      8  N   ILE A   2      -6.335   2.579 131.996  0.00  0.00    +0.000 N 
ATOM      9  H   UNK A   1      -6.513  -0.216 129.600  0.00  0.00    +0.000 HD
ENDROOT
BRANCH   5  10
ATOM     10  C   UNK A   1      -7.822  -0.839 131.792  0.00  0.00    +0.000 C 
ATOM     11  C   UNK A   1      -7.669  -1.846 132.944  0.00  0.00    +0.000 C 
ATOM     12  C   UNK A   1      -6.984  -2.996 132.265  0.00  0.00    +0.000 A 
ATOM     13  C   UNK A   1      -6.226  -3.993 132.851  0.00  0.00    +0.000 A 
ATOM     14  C   UNK A   1      -5.561  -4.896 132.018  0.00  0.00    +0.000 A 
ATOM     15  C   UNK A   1      -5.638  -4.779 130.621  0.00  0.00    +0.000 A 
ATOM     16  C   UNK A   1      -6.393  -3.761 130.034  0.00  0.00    +0.000 A 
ATOM     17  C   UNK A   1      -7.083  -2.895 130.868  0.00  0.00    +0.000 A 
ATOM     18  C   UNK A   1      -7.877  -1.682 130.479  0.00  0.00    +0.000 C 
ENDBRANCH   5  10
BRANCH   1  19
ATOM     19  CB  ILE A   2      -4.193   3.317 130.603  0.00  0.00    +0.000 C 
ATOM     20  CG2 ILE A   2      -4.931   4.217 129.547  0.00  0.00    +0.000 C 
BRANCH  19  22
ATOM     21  CD1 ILE A   2      -2.747   3.214 133.054  0.00  0.00    +0.000 C 
ATOM     22  CG1 ILE A   2      -2.847   3.823 131.704  0.00  0.00    +0.000 C 
ENDBRANCH  19  22
ENDBRANCH   1  19
BRANCH   8  23
ATOM     23  C   UNK A   0      -6.873   4.045 132.411  0.00  0.00    +0.000 C 
BRANCH  23  24
ATOM     24  C   UNK A   0      -8.597   4.404 132.405  0.00  0.00    +0.000 C 
ATOM     25  O   UNK A   0      -9.472   4.157 133.180  0.00  0.00    +0.000 OA
ATOM     26  N   UNK A   0      -9.205   4.995 131.344  0.00  0.00    +0.000 N 
ATOM     27  C   UNK A   0      -9.414   4.138 130.267  0.00  0.00    +0.000 C 
ATOM     28  C   UNK A   0      -9.195   5.311 129.136  0.00  0.00    +0.000 C 
ATOM     29  O   UNK A   0     -10.339   6.098 128.985  0.00  0.00    +0.000 OA
ATOM     30  C   UNK A   0     -10.379   6.802 130.223  0.00  0.00    +0.000 C 
ATOM     31  C   UNK A   0     -10.441   5.787 131.382  0.00  0.00    +0.000 C 
ENDBRANCH  23  24
BRANCH  23  32
ATOM     32  C   UNK A   0      -6.152   4.618 133.728  0.00  0.00    +0.000 A 
ATOM     33  C   UNK A   0      -6.350   4.032 135.012  0.00  0.00    +0.000 A 
ATOM     34  C   UNK A   0      -5.941   4.698 136.190  0.00  0.00    +0.000 A 
ATOM     35  C   UNK A   0      -5.241   5.879 136.075  0.00  0.00    +0.000 A 
ATOM     36  C   UNK A   0      -4.699   6.698 137.184  0.00  0.00    +0.000 C 
ATOM     37  N   UNK A   0      -4.937   6.389 134.894  0.00  0.00    +0.000 NA
ATOM     38  C   UNK A   0      -5.380   5.789 133.781  0.00  0.00    +0.000 A 
ATOM     39  C   UNK A   0      -4.865   6.560 132.652  0.00  0.00    +0.000 C 
ENDBRANCH  23  32
ENDBRANCH   8  23
TORSDOF 6
ENDMDL
