MODEL 1
REMARK VINA RESULT:      -8.5      0.000      0.000
REMARK  Name = CHEMBL2035010
REMARK  12 active torsions:
REMARK  status: ('A' for Active; 'I' for Inactive)
REMARK    1  A    between atoms: C_1  and  C_2
REMARK    2  A    between atoms: C_7  and  C_8
REMARK    3  A    between atoms: C_8  and  C_9
REMARK    4  A    between atoms: C_8  and  N_15
REMARK    5  A    between atoms: N_11  and  C_12
REMARK    6  A    between atoms: C_12  and  C_13
REMARK    7  A    between atoms: C_12  and  C_14
REMARK    8  A    between atoms: C_18  and  C_19
REMARK    9  A    between atoms: CA_31  and  CB_32
REMARK   10  A    between atoms: CB_32  and  CG_33
REMARK   11  A    between atoms: CG_33  and  CD1_34
REMARK   12  A    between atoms: CG_33  and  CD2_35
REMARK                            x       y       z     vdW  Elec       q    Type
REMARK                         _______ _______ _______ _____ _____    ______ ____
ROOT
ATOM      1  N   LEU A   1      -8.320   4.835 132.435  0.00  0.00    +0.000 N 
ATOM      2  C   UNK A   2      -9.393   5.610 132.130  0.00  0.00    +0.000 C 
ATOM      3  O   UNK A   2      -9.578   6.684 132.753  0.00  0.00    +0.000 OA
ATOM      4  C   UNK A   2     -10.377   5.078 131.039  0.00  0.00    +0.000 C 
ATOM      5  N   UNK A   2      -9.593   4.567 129.950  0.00  0.00    +0.000 N 
ATOM      6  C   LEU A   1      -8.929   3.441 130.317  0.00  0.00    +0.000 C 
ATOM      7  O   LEU A   1      -8.931   2.463 129.559  0.00  0.00    +0.000 OA
ATOM      8  CA  LEU A   1      -8.273   3.499 131.725  0.00  0.00    +0.000 C 
ATOM      9  H   UNK A   2      -9.970   4.522 129.008  0.00  0.00    +0.000 HD
ENDROOT
BRANCH   4  10
ATOM     10  C   UNK A   2     -11.130   6.295 130.694  0.00  0.00    +0.000 C 
ATOM     11  C   UNK A   2     -10.289   7.397 129.989  0.00  0.00    +0.000 C 
ATOM     12  C   UNK A   2     -11.235   7.782 128.904  0.00  0.00    +0.000 A 
ATOM     13  C   UNK A   2     -10.814   8.187 127.634  0.00  0.00    +0.000 A 
ATOM     14  C   UNK A   2     -11.591   7.876 126.542  0.00  0.00    +0.000 A 
ATOM     15  C   UNK A   2     -12.657   7.006 126.772  0.00  0.00    +0.000 A 
ATOM     16  C   UNK A   2     -13.075   6.662 128.134  0.00  0.00    +0.000 A 
ATOM     17  C   UNK A   2     -12.499   7.309 129.277  0.00  0.00    +0.000 A 
ATOM     18  C   UNK A   2     -12.333   7.088 130.968  0.00  0.00    +0.000 C 
ENDBRANCH   4  10
BRANCH   1  19
ATOM     19  C   UNK A   0      -7.287   5.534 133.307  0.00  0.00    +0.000 C 
BRANCH  19  26
ATOM     20  C   UNK A   0      -6.404   7.124 130.781  0.00  0.00    +0.000 C 
ATOM     21  C   UNK A   0      -5.462   6.593 131.786  0.00  0.00    +0.000 A 
ATOM     22  C   UNK A   0      -4.158   7.059 131.661  0.00  0.00    +0.000 A 
ATOM     23  C   UNK A   0      -3.169   6.536 132.449  0.00  0.00    +0.000 A 
ATOM     24  C   UNK A   0      -3.450   5.411 133.211  0.00  0.00    +0.000 A 
ATOM     25  C   UNK A   0      -4.766   4.946 133.369  0.00  0.00    +0.000 A 
ATOM     26  C   UNK A   0      -5.829   5.656 132.774  0.00  0.00    +0.000 A 
ENDBRANCH  19  26
BRANCH  19  27
ATOM     27  C   UNK A   0      -7.258   5.133 134.850  0.00  0.00    +0.000 C 
ATOM     28  O   UNK A   0      -8.003   4.199 135.177  0.00  0.00    +0.000 OA
ATOM     29  N   UNK A   0      -6.652   5.945 135.834  0.00  0.00    +0.000 N 
ATOM     30  H   UNK A   0      -6.088   6.741 135.560  0.00  0.00    +0.000 HD
BRANCH  29  31
ATOM     31  C   UNK A   0      -7.153   5.858 137.229  0.00  0.00    +0.000 C 
ATOM     32  C   UNK A   0      -6.009   5.950 138.222  0.00  0.00    +0.000 C 
ATOM     33  C   UNK A   0      -8.259   6.848 137.609  0.00  0.00    +0.000 C 
ENDBRANCH  29  31
ENDBRANCH  19  27
ENDBRANCH   1  19
BRANCH   8  34
ATOM     34  CB  LEU A   1      -6.853   3.051 131.541  0.00  0.00    +0.000 C 
BRANCH  34  35
ATOM     35  CG  LEU A   1      -6.251   1.729 131.996  0.00  0.00    +0.000 C 
ATOM     36  CD1 LEU A   1      -4.735   1.695 131.701  0.00  0.00    +0.000 C 
ATOM     37  CD2 LEU A   1      -6.303   1.549 133.512  0.00  0.00    +0.000 C 
ENDBRANCH  34  35
ENDBRANCH   8  34
TORSDOF 7
ENDMDL
MODEL 2
REMARK VINA RESULT:      -8.5      2.215      4.257
REMARK  Name = CHEMBL2035010
REMARK  12 active torsions:
REMARK  status: ('A' for Active; 'I' for Inactive)
REMARK    1  A    between atoms: C_1  and  C_2
REMARK    2  A    between atoms: C_7  and  C_8
REMARK    3  A    between atoms: C_8  and  C_9
REMARK    4  A    between atoms: C_8  and  N_15
REMARK    5  A    between atoms: N_11  and  C_12
REMARK    6  A    between atoms: C_12  and  C_13
REMARK    7  A    between atoms: C_12  and  C_14
REMARK    8  A    between atoms: C_18  and  C_19
REMARK    9  A    between atoms: CA_31  and  CB_32
REMARK   10  A    between atoms: CB_32  and  CG_33
REMARK   11  A    between atoms: CG_33  and  CD1_34
REMARK   12  A    between atoms: CG_33  and  CD2_35
REMARK                            x       y       z     vdW  Elec       q    Type
REMARK                         _______ _______ _______ _____ _____    ______ ____
ROOT
ATOM      1  N   LEU A   1      -7.149   5.920 131.569  0.00  0.00    +0.000 N 
ATOM      2  C   UNK A   2      -8.424   6.116 131.144  0.00  0.00    +0.000 C 
ATOM      3  O   UNK A   2      -8.633   6.463 129.955  0.00  0.00    +0.000 OA
ATOM      4  C   UNK A   2      -9.567   5.945 132.195  0.00  0.00    +0.000 C 
ATOM      5  N   UNK A   2      -9.292   4.757 132.955  0.00  0.00    +0.000 N 
ATOM      6  C   LEU A   1      -8.198   4.927 133.740  0.00  0.00    +0.000 C 
ATOM      7  O   LEU A   1      -8.237   4.559 134.921  0.00  0.00    +0.000 OA
ATOM      8  CA  LEU A   1      -7.004   5.645 133.051  0.00  0.00    +0.000 C 
ATOM      9  H   UNK A   2     -10.039   4.243 133.412  0.00  0.00    +0.000 HD
ENDROOT
BRANCH   4  10
ATOM     10  C   UNK A   2     -10.753   5.822 131.332  0.00  0.00    +0.000 C 
ATOM     11  C   UNK A   2     -11.961   6.701 131.764  0.00  0.00    +0.000 C 
ATOM     12  C   UNK A   2     -12.364   7.247 130.437  0.00  0.00    +0.000 A 
ATOM     13  C   UNK A   2     -12.893   8.530 130.270  0.00  0.00    +0.000 A 
ATOM     14  C   UNK A   2     -12.615   9.222 129.113  0.00  0.00    +0.000 A 
ATOM     15  C   UNK A   2     -11.660   8.654 128.270  0.00  0.00    +0.000 A 
ATOM     16  C   UNK A   2     -11.183   7.284 128.477  0.00  0.00    +0.000 A 
ATOM     17  C   UNK A   2     -11.778   6.428 129.463  0.00  0.00    +0.000 A 
ATOM     18  C   UNK A   2     -11.439   4.993 130.334  0.00  0.00    +0.000 C 
ENDBRANCH   4  10
BRANCH   1  19
ATOM     19  C   UNK A   0      -6.129   5.853 130.441  0.00  0.00    +0.000 C 
BRANCH  19  26
ATOM     20  C   UNK A   0      -7.539   3.820 128.552  0.00  0.00    +0.000 C 
ATOM     21  C   UNK A   0      -6.130   3.703 128.977  0.00  0.00    +0.000 A 
ATOM     22  C   UNK A   0      -5.393   2.750 128.283  0.00  0.00    +0.000 A 
ATOM     23  C   UNK A   0      -4.116   2.456 128.677  0.00  0.00    +0.000 A 
ATOM     24  C   UNK A   0      -3.658   2.967 129.884  0.00  0.00    +0.000 A 
ATOM     25  C   UNK A   0      -4.379   3.950 130.582  0.00  0.00    +0.000 A 
ATOM     26  C   UNK A   0      -5.572   4.458 130.030  0.00  0.00    +0.000 A 
ENDBRANCH  19  26
BRANCH  19  27
ATOM     27  C   UNK A   0      -4.936   6.910 130.485  0.00  0.00    +0.000 C 
ATOM     28  O   UNK A   0      -4.493   7.266 129.384  0.00  0.00    +0.000 OA
ATOM     29  N   UNK A   0      -4.237   7.216 131.672  0.00  0.00    +0.000 N 
ATOM     30  H   UNK A   0      -4.575   6.875 132.564  0.00  0.00    +0.000 HD
BRANCH  29  31
ATOM     31  C   UNK A   0      -2.836   7.695 131.564  0.00  0.00    +0.000 C 
ATOM     32  C   UNK A   0      -2.464   8.559 132.756  0.00  0.00    +0.000 C 
ATOM     33  C   UNK A   0      -1.771   6.615 131.347  0.00  0.00    +0.000 C 
ENDBRANCH  29  31
ENDBRANCH  19  27
ENDBRANCH   1  19
BRANCH   8  34
ATOM     34  CB  LEU A   1      -5.798   4.791 133.312  0.00  0.00    +0.000 C 
BRANCH  34  35
ATOM     35  CG  LEU A   1      -4.857   4.888 134.504  0.00  0.00    +0.000 C 
ATOM     36  CD1 LEU A   1      -3.398   4.631 134.063  0.00  0.00    +0.000 C 
ATOM     37  CD2 LEU A   1      -4.789   6.298 135.087  0.00  0.00    +0.000 C 
ENDBRANCH  34  35
ENDBRANCH   8  34
TORSDOF 7
ENDMDL
MODEL 3
REMARK VINA RESULT:      -8.4      3.921      7.104
REMARK  Name = CHEMBL2035010
REMARK  12 active torsions:
REMARK  status: ('A' for Active; 'I' for Inactive)
REMARK    1  A    between atoms: C_1  and  C_2
REMARK    2  A    between atoms: C_7  and  C_8
REMARK    3  A    between atoms: C_8  and  C_9
REMARK    4  A    between atoms: C_8  and  N_15
REMARK    5  A    between atoms: N_11  and  C_12
REMARK    6  A    between atoms: C_12  and  C_13
REMARK    7  A    between atoms: C_12  and  C_14
REMARK    8  A    between atoms: C_18  and  C_19
REMARK    9  A    between atoms: CA_31  and  CB_32
REMARK   10  A    between atoms: CB_32  and  CG_33
REMARK   11  A    between atoms: CG_33  and  CD1_34
REMARK   12  A    between atoms: CG_33  and  CD2_35
REMARK                            x       y       z     vdW  Elec       q    Type
REMARK                         _______ _______ _______ _____ _____    ______ ____
ROOT
ATOM      1  N   LEU A   1      -7.447   1.824 130.391  0.00  0.00    +0.000 N 
ATOM      2  C   UNK A   2      -7.411   0.667 129.681  0.00  0.00    +0.000 C 
ATOM      3  O   UNK A   2      -7.327   0.712 128.429  0.00  0.00    +0.000 OA
ATOM      4  C   UNK A   2      -7.532  -0.671 130.479  0.00  0.00    +0.000 C 
ATOM      5  N   UNK A   2      -6.686  -0.572 131.636  0.00  0.00    +0.000 N 
ATOM      6  C   LEU A   1      -7.174   0.337 132.516  0.00  0.00    +0.000 C 
ATOM      7  O   LEU A   1      -7.221   0.050 133.719  0.00  0.00    +0.000 OA
ATOM      8  CA  LEU A   1      -7.691   1.656 131.876  0.00  0.00    +0.000 C 
ATOM      9  H   UNK A   2      -6.310  -1.403 132.082  0.00  0.00    +0.000 HD
ENDROOT
BRANCH   4  10
ATOM     10  C   UNK A   2      -7.056  -1.654 129.492  0.00  0.00    +0.000 C 
ATOM     11  C   UNK A   2      -7.883  -2.970 129.440  0.00  0.00    +0.000 C 
ATOM     12  C   UNK A   2      -8.009  -3.132 127.964  0.00  0.00    +0.000 A 
ATOM     13  C   UNK A   2      -9.136  -3.688 127.351  0.00  0.00    +0.000 A 
ATOM     14  C   UNK A   2      -9.520  -3.226 126.114  0.00  0.00    +0.000 A 
ATOM     15  C   UNK A   2      -8.856  -2.092 125.646  0.00  0.00    +0.000 A 
ATOM     16  C   UNK A   2      -7.649  -1.591 126.311  0.00  0.00    +0.000 A 
ATOM     17  C   UNK A   2      -7.029  -2.321 127.379  0.00  0.00    +0.000 A 
ATOM     18  C   UNK A   2      -5.922  -2.082 128.665  0.00  0.00    +0.000 C 
ENDBRANCH   4  10
BRANCH   1  19
ATOM     19  C   UNK A   0      -7.068   3.054 129.579  0.00  0.00    +0.000 C 
BRANCH  19  26
ATOM     20  C   UNK A   0      -4.198   1.849 129.575  0.00  0.00    +0.000 C 
ATOM     21  C   UNK A   0      -4.480   3.294 129.685  0.00  0.00    +0.000 A 
ATOM     22  C   UNK A   0      -3.367   4.115 129.543  0.00  0.00    +0.000 A 
ATOM     23  C   UNK A   0      -3.480   5.461 129.760  0.00  0.00    +0.000 A 
ATOM     24  C   UNK A   0      -4.655   5.949 130.314  0.00  0.00    +0.000 A 
ATOM     25  C   UNK A   0      -5.797   5.140 130.438  0.00  0.00    +0.000 A 
ATOM     26  C   UNK A   0      -5.763   3.815 129.955  0.00  0.00    +0.000 A 
ENDBRANCH  19  26
BRANCH  19  27
ATOM     27  C   UNK A   0      -8.229   4.104 129.280  0.00  0.00    +0.000 C 
ATOM     28  O   UNK A   0      -8.100   4.767 128.240  0.00  0.00    +0.000 OA
ATOM     29  N   UNK A   0      -9.191   4.468 130.246  0.00  0.00    +0.000 N 
ATOM     30  H   UNK A   0      -9.255   3.956 131.118  0.00  0.00    +0.000 HD
BRANCH  29  31
ATOM     31  C   UNK A   0      -9.825   5.807 130.144  0.00  0.00    +0.000 C 
ATOM     32  C   UNK A   0     -11.262   5.765 130.630  0.00  0.00    +0.000 C 
ATOM     33  C   UNK A   0      -9.076   6.959 130.824  0.00  0.00    +0.000 C 
ENDBRANCH  29  31
ENDBRANCH  19  27
ENDBRANCH   1  19
BRANCH   8  34
ATOM     34  CB  LEU A   1      -7.049   2.772 132.644  0.00  0.00    +0.000 C 
BRANCH  34  35
ATOM     35  CG  LEU A   1      -7.671   3.567 133.784  0.00  0.00    +0.000 C 
ATOM     36  CD1 LEU A   1      -7.309   5.064 133.659  0.00  0.00    +0.000 C 
ATOM     37  CD2 LEU A   1      -9.198   3.583 133.725  0.00  0.00    +0.000 C 
ENDBRANCH  34  35
ENDBRANCH   8  34
TORSDOF 7
ENDMDL
MODEL 4
REMARK VINA RESULT:      -8.2      2.320      3.005
REMARK  Name = CHEMBL2035010
REMARK  12 active torsions:
REMARK  status: ('A' for Active; 'I' for Inactive)
REMARK    1  A    between atoms: C_1  and  C_2
REMARK    2  A    between atoms: C_7  and  C_8
REMARK    3  A    between atoms: C_8  and  C_9
REMARK    4  A    between atoms: C_8  and  N_15
REMARK    5  A    between atoms: N_11  and  C_12
REMARK    6  A    between atoms: C_12  and  C_13
REMARK    7  A    between atoms: C_12  and  C_14
REMARK    8  A    between atoms: C_18  and  C_19
REMARK    9  A    between atoms: CA_31  and  CB_32
REMARK   10  A    between atoms: CB_32  and  CG_33
REMARK   11  A    between atoms: CG_33  and  CD1_34
REMARK   12  A    between atoms: CG_33  and  CD2_35
REMARK                            x       y       z     vdW  Elec       q    Type
REMARK                         _______ _______ _______ _____ _____    ______ ____
ROOT
ATOM      1  N   LEU A   1      -7.197   4.122 131.341  0.00  0.00    +0.000 N 
ATOM      2  C   UNK A   2      -8.318   4.859 131.554  0.00  0.00    +0.000 C 
ATOM      3  O   UNK A   2      -8.409   5.562 132.590  0.00  0.00    +0.000 OA
ATOM      4  C   UNK A   2      -9.467   4.741 130.501  0.00  0.00    +0.000 C 
ATOM      5  N   UNK A   2      -8.873   4.791 129.193  0.00  0.00    +0.000 N 
ATOM      6  C   LEU A   1      -8.140   3.675 128.951  0.00  0.00    +0.000 C 
ATOM      7  O   LEU A   1      -8.258   3.098 127.863  0.00  0.00    +0.000 OA
ATOM      8  CA  LEU A   1      -7.253   3.204 130.138  0.00  0.00    +0.000 C 
ATOM      9  H   UNK A   2      -9.405   5.106 128.388  0.00  0.00    +0.000 HD
ENDROOT
BRANCH   4  10
ATOM     10  C   UNK A   2     -10.285   5.924 130.814  0.00  0.00    +0.000 C 
ATOM     11  C   UNK A   2      -9.787   7.245 130.162  0.00  0.00    +0.000 C 
ATOM     12  C   UNK A   2     -11.085   7.792 129.676  0.00  0.00    +0.000 A 
ATOM     13  C   UNK A   2     -11.205   8.540 128.501  0.00  0.00    +0.000 A 
ATOM     14  C   UNK A   2     -12.357   8.435 127.756  0.00  0.00    +0.000 A 
ATOM     15  C   UNK A   2     -13.248   7.433 128.139  0.00  0.00    +0.000 A 
ATOM     16  C   UNK A   2     -13.089   6.719 129.409  0.00  0.00    +0.000 A 
ATOM     17  C   UNK A   2     -12.098   7.117 130.368  0.00  0.00    +0.000 A 
ATOM     18  C   UNK A   2     -11.271   6.499 131.735  0.00  0.00    +0.000 C 
ENDBRANCH   4  10
BRANCH   1  19
ATOM     19  C   UNK A   0      -6.040   4.485 132.261  0.00  0.00    +0.000 C 
BRANCH  19  26
ATOM     20  C   UNK A   0      -5.884   7.246 130.832  0.00  0.00    +0.000 C 
ATOM     21  C   UNK A   0      -4.699   6.462 131.232  0.00  0.00    +0.000 A 
ATOM     22  C   UNK A   0      -3.494   7.149 131.147  0.00  0.00    +0.000 A 
ATOM     23  C   UNK A   0      -2.315   6.488 131.362  0.00  0.00    +0.000 A 
ATOM     24  C   UNK A   0      -2.337   5.104 131.458  0.00  0.00    +0.000 A 
ATOM     25  C   UNK A   0      -3.546   4.398 131.572  0.00  0.00    +0.000 A 
ATOM     26  C   UNK A   0      -4.762   5.110 131.629  0.00  0.00    +0.000 A 
ENDBRANCH  19  26
BRANCH  19  27
ATOM     27  C   UNK A   0      -5.620   3.401 133.352  0.00  0.00    +0.000 C 
ATOM     28  O   UNK A   0      -5.149   3.853 134.405  0.00  0.00    +0.000 OA
ATOM     29  N   UNK A   0      -5.520   2.025 133.055  0.00  0.00    +0.000 N 
ATOM     30  H   UNK A   0      -5.857   1.670 132.168  0.00  0.00    +0.000 HD
BRANCH  29  31
ATOM     31  C   UNK A   0      -4.593   1.193 133.862  0.00  0.00    +0.000 C 
ATOM     32  C   UNK A   0      -5.113  -0.227 133.994  0.00  0.00    +0.000 C 
ATOM     33  C   UNK A   0      -3.131   1.174 133.401  0.00  0.00    +0.000 C 
ENDBRANCH  29  31
ENDBRANCH  19  27
ENDBRANCH   1  19
BRANCH   8  34
ATOM     34  CB  LEU A   1      -5.880   2.993 129.573  0.00  0.00    +0.000 C 
BRANCH  34  35
ATOM     35  CG  LEU A   1      -5.321   1.697 129.004  0.00  0.00    +0.000 C 
ATOM     36  CD1 LEU A   1      -4.685   1.945 127.617  0.00  0.00    +0.000 C 
ATOM     37  CD2 LEU A   1      -4.148   1.154 129.819  0.00  0.00    +0.000 C 
ENDBRANCH  34  35
ENDBRANCH   8  34
TORSDOF 7
ENDMDL
MODEL 5
REMARK VINA RESULT:      -8.0      2.548      5.389
REMARK  Name = CHEMBL2035010
REMARK  12 active torsions:
REMARK  status: ('A' for Active; 'I' for Inactive)
REMARK    1  A    between atoms: C_1  and  C_2
REMARK    2  A    between atoms: C_7  and  C_8
REMARK    3  A    between atoms: C_8  and  C_9
REMARK    4  A    between atoms: C_8  and  N_15
REMARK    5  A    between atoms: N_11  and  C_12
REMARK    6  A    between atoms: C_12  and  C_13
REMARK    7  A    between atoms: C_12  and  C_14
REMARK    8  A    between atoms: C_18  and  C_19
REMARK    9  A    between atoms: CA_31  and  CB_32
REMARK   10  A    between atoms: CB_32  and  CG_33
REMARK   11  A    between atoms: CG_33  and  CD1_34
REMARK   12  A    between atoms: CG_33  and  CD2_35
REMARK                            x       y       z     vdW  Elec       q    Type
REMARK                         _______ _______ _______ _____ _____    ______ ____
ROOT
ATOM      1  N   LEU A   1      -7.402   4.337 130.324  0.00  0.00    +0.000 N 
ATOM      2  C   UNK A   2      -8.647   4.833 130.106  0.00  0.00    +0.000 C 
ATOM      3  O   UNK A   2      -9.222   4.603 129.014  0.00  0.00    +0.000 OA
ATOM      4  C   UNK A   2      -9.276   5.717 131.231  0.00  0.00    +0.000 C 
ATOM      5  N   UNK A   2      -9.024   5.074 132.490  0.00  0.00    +0.000 N 
ATOM      6  C   LEU A   1      -7.703   5.108 132.796  0.00  0.00    +0.000 C 
ATOM      7  O   LEU A   1      -7.355   5.426 133.941  0.00  0.00    +0.000 OA
ATOM      8  CA  LEU A   1      -6.748   4.791 131.611  0.00  0.00    +0.000 C 
ATOM      9  H   UNK A   2      -9.627   5.235 133.291  0.00  0.00    +0.000 HD
ENDROOT
BRANCH   4  10
ATOM     10  C   UNK A   2     -10.698   5.720 130.852  0.00  0.00    +0.000 C 
ATOM     11  C   UNK A   2     -11.572   6.746 131.628  0.00  0.00    +0.000 C 
ATOM     12  C   UNK A   2     -12.364   7.309 130.498  0.00  0.00    +0.000 A 
ATOM     13  C   UNK A   2     -12.781   8.642 130.449  0.00  0.00    +0.000 A 
ATOM     14  C   UNK A   2     -12.865   9.272 129.228  0.00  0.00    +0.000 A 
ATOM     15  C   UNK A   2     -12.340   8.576 128.139  0.00  0.00    +0.000 A 
ATOM     16  C   UNK A   2     -11.967   7.163 128.249  0.00  0.00    +0.000 A 
ATOM     17  C   UNK A   2     -12.255   6.406 129.433  0.00  0.00    +0.000 A 
ATOM     18  C   UNK A   2     -11.778   4.958 130.215  0.00  0.00    +0.000 C 
ENDBRANCH   4  10
BRANCH   1  19
ATOM     19  C   UNK A   0      -6.973   3.288 129.308  0.00  0.00    +0.000 C 
BRANCH  19  26
ATOM     20  C   UNK A   0      -8.231   1.507 127.086  0.00  0.00    +0.000 C 
ATOM     21  C   UNK A   0      -7.796   0.994 128.400  0.00  0.00    +0.000 A 
ATOM     22  C   UNK A   0      -7.759  -0.393 128.497  0.00  0.00    +0.000 A 
ATOM     23  C   UNK A   0      -7.502  -0.986 129.703  0.00  0.00    +0.000 A 
ATOM     24  C   UNK A   0      -7.486  -0.194 130.843  0.00  0.00    +0.000 A 
ATOM     25  C   UNK A   0      -7.493   1.208 130.759  0.00  0.00    +0.000 A 
ATOM     26  C   UNK A   0      -7.479   1.828 129.493  0.00  0.00    +0.000 A 
ENDBRANCH  19  26
BRANCH  19  27
ATOM     27  C   UNK A   0      -5.432   3.268 128.900  0.00  0.00    +0.000 C 
ATOM     28  O   UNK A   0      -4.837   2.198 129.092  0.00  0.00    +0.000 OA
ATOM     29  N   UNK A   0      -4.710   4.445 128.606  0.00  0.00    +0.000 N 
ATOM     30  H   UNK A   0      -5.196   5.329 128.504  0.00  0.00    +0.000 HD
BRANCH  29  31
ATOM     31  C   UNK A   0      -3.242   4.448 128.827  0.00  0.00    +0.000 C 
ATOM     32  C   UNK A   0      -2.497   4.204 127.527  0.00  0.00    +0.000 C 
ATOM     33  C   UNK A   0      -2.671   5.683 129.533  0.00  0.00    +0.000 C 
ENDBRANCH  29  31
ENDBRANCH  19  27
ENDBRANCH   1  19
BRANCH   8  34
ATOM     34  CB  LEU A   1      -5.794   3.749 132.113  0.00  0.00    +0.000 C 
BRANCH  34  35
ATOM     35  CG  LEU A   1      -4.299   3.920 132.344  0.00  0.00    +0.000 C 
ATOM     36  CD1 LEU A   1      -4.026   4.403 133.786  0.00  0.00    +0.000 C 
ATOM     37  CD2 LEU A   1      -3.538   2.596 132.283  0.00  0.00    +0.000 C 
ENDBRANCH  34  35
ENDBRANCH   8  34
TORSDOF 7
ENDMDL
MODEL 6
REMARK VINA RESULT:      -8.0      6.668     10.408
REMARK  Name = CHEMBL2035010
REMARK  12 active torsions:
REMARK  status: ('A' for Active; 'I' for Inactive)
REMARK    1  A    between atoms: C_1  and  C_2
REMARK    2  A    between atoms: C_7  and  C_8
REMARK    3  A    between atoms: C_8  and  C_9
REMARK    4  A    between atoms: C_8  and  N_15
REMARK    5  A    between atoms: N_11  and  C_12
REMARK    6  A    between atoms: C_12  and  C_13
REMARK    7  A    between atoms: C_12  and  C_14
REMARK    8  A    between atoms: C_18  and  C_19
REMARK    9  A    between atoms: CA_31  and  CB_32
REMARK   10  A    between atoms: CB_32  and  CG_33
REMARK   11  A    between atoms: CG_33  and  CD1_34
REMARK   12  A    between atoms: CG_33  and  CD2_35
REMARK                            x       y       z     vdW  Elec       q    Type
REMARK                         _______ _______ _______ _____ _____    ______ ____
ROOT
ATOM      1  N   LEU A   1      -6.701   1.486 127.130  0.00  0.00    +0.000 N 
ATOM      2  C   UNK A   2      -7.384   0.784 128.072  0.00  0.00    +0.000 C 
ATOM      3  O   UNK A   2      -8.502   0.291 127.785  0.00  0.00    +0.000 OA
ATOM      4  C   UNK A   2      -6.745   0.678 129.494  0.00  0.00    +0.000 C 
ATOM      5  N   UNK A   2      -5.348   0.389 129.328  0.00  0.00    +0.000 N 
ATOM      6  C   LEU A   1      -4.693   1.450 128.794  0.00  0.00    +0.000 C 
ATOM      7  O   LEU A   1      -3.615   1.806 129.284  0.00  0.00    +0.000 OA
ATOM      8  CA  LEU A   1      -5.436   2.155 127.624  0.00  0.00    +0.000 C 
ATOM      9  H   UNK A   2      -4.821  -0.084 130.057  0.00  0.00    +0.000 HD
ENDROOT
BRANCH   4  10
ATOM     10  C   UNK A   2      -7.505  -0.437 130.082  0.00  0.00    +0.000 C 
ATOM     11  C   UNK A   2      -7.526  -1.731 129.220  0.00  0.00    +0.000 C 
ATOM     12  C   UNK A   2      -7.264  -2.745 130.280  0.00  0.00    +0.000 A 
ATOM     13  C   UNK A   2      -6.533  -3.915 130.053  0.00  0.00    +0.000 A 
ATOM     14  C   UNK A   2      -5.761  -4.429 131.069  0.00  0.00    +0.000 A 
ATOM     15  C   UNK A   2      -5.619  -3.626 132.200  0.00  0.00    +0.000 A 
ATOM     16  C   UNK A   2      -6.453  -2.437 132.398  0.00  0.00    +0.000 A 
ATOM     17  C   UNK A   2      -7.537  -2.132 131.510  0.00  0.00    +0.000 A 
ATOM     18  C   UNK A   2      -8.534  -0.813 131.058  0.00  0.00    +0.000 C 
ENDBRANCH   4  10
BRANCH   1  19
ATOM     19  C   UNK A   0      -7.256   1.326 125.722  0.00  0.00    +0.000 C 
BRANCH  19  26
ATOM     20  C   UNK A   0      -9.229  -0.001 123.713  0.00  0.00    +0.000 C 
ATOM     21  C   UNK A   0      -7.834  -0.443 123.905  0.00  0.00    +0.000 A 
ATOM     22  C   UNK A   0      -7.375  -1.345 122.951  0.00  0.00    +0.000 A 
ATOM     23  C   UNK A   0      -6.147  -1.929 123.099  0.00  0.00    +0.000 A 
ATOM     24  C   UNK A   0      -5.473  -1.764 124.302  0.00  0.00    +0.000 A 
ATOM     25  C   UNK A   0      -5.909  -0.837 125.263  0.00  0.00    +0.000 A 
ATOM     26  C   UNK A   0      -7.031  -0.028 124.988  0.00  0.00    +0.000 A 
ENDBRANCH  19  26
BRANCH  19  27
ATOM     27  C   UNK A   0      -7.005   2.529 124.708  0.00  0.00    +0.000 C 
ATOM     28  O   UNK A   0      -7.518   3.613 125.020  0.00  0.00    +0.000 OA
ATOM     29  N   UNK A   0      -6.481   2.332 123.412  0.00  0.00    +0.000 N 
ATOM     30  H   UNK A   0      -6.112   1.427 123.144  0.00  0.00    +0.000 HD
BRANCH  29  31
ATOM     31  C   UNK A   0      -6.822   3.317 122.354  0.00  0.00    +0.000 C 
ATOM     32  C   UNK A   0      -5.823   3.254 121.212  0.00  0.00    +0.000 C 
ATOM     33  C   UNK A   0      -8.251   3.246 121.805  0.00  0.00    +0.000 C 
ENDBRANCH  29  31
ENDBRANCH  19  27
ENDBRANCH   1  19
BRANCH   8  34
ATOM     34  CB  LEU A   1      -4.437   2.277 126.511  0.00  0.00    +0.000 C 
BRANCH  34  35
ATOM     35  CG  LEU A   1      -3.627   3.514 126.149  0.00  0.00    +0.000 C 
ATOM     36  CD1 LEU A   1      -4.087   4.727 126.988  0.00  0.00    +0.000 C 
ATOM     37  CD2 LEU A   1      -2.152   3.382 126.529  0.00  0.00    +0.000 C 
ENDBRANCH  34  35
ENDBRANCH   8  34
TORSDOF 7
ENDMDL
MODEL 7
REMARK VINA RESULT:      -8.0      4.940      7.221
REMARK  Name = CHEMBL2035010
REMARK  12 active torsions:
REMARK  status: ('A' for Active; 'I' for Inactive)
REMARK    1  A    between atoms: C_1  and  C_2
REMARK    2  A    between atoms: C_7  and  C_8
REMARK    3  A    between atoms: C_8  and  C_9
REMARK    4  A    between atoms: C_8  and  N_15
REMARK    5  A    between atoms: N_11  and  C_12
REMARK    6  A    between atoms: C_12  and  C_13
REMARK    7  A    between atoms: C_12  and  C_14
REMARK    8  A    between atoms: C_18  and  C_19
REMARK    9  A    between atoms: CA_31  and  CB_32
REMARK   10  A    between atoms: CB_32  and  CG_33
REMARK   11  A    between atoms: CG_33  and  CD1_34
REMARK   12  A    between atoms: CG_33  and  CD2_35
REMARK                            x       y       z     vdW  Elec       q    Type
REMARK                         _______ _______ _______ _____ _____    ______ ____
ROOT
ATOM      1  N   LEU A   1      -7.628   1.629 128.756  0.00  0.00    +0.000 N 
ATOM      2  C   UNK A   2      -7.468   0.811 127.684  0.00  0.00    +0.000 C 
ATOM      3  O   UNK A   2      -7.148   1.301 126.573  0.00  0.00    +0.000 OA
ATOM      4  C   UNK A   2      -7.749  -0.712 127.893  0.00  0.00    +0.000 C 
ATOM      5  N   UNK A   2      -7.136  -1.107 129.131  0.00  0.00    +0.000 N 
ATOM      6  C   LEU A   1      -7.775  -0.545 130.188  0.00  0.00    +0.000 C 
ATOM      7  O   LEU A   1      -8.051  -1.245 131.171  0.00  0.00    +0.000 OA
ATOM      8  CA  LEU A   1      -8.151   0.953 130.005  0.00  0.00    +0.000 C 
ATOM      9  H   UNK A   2      -6.858  -2.069 129.295  0.00  0.00    +0.000 HD
ENDROOT
BRANCH   4  10
ATOM     10  C   UNK A   2      -7.103  -1.303 126.710  0.00  0.00    +0.000 C 
ATOM     11  C   UNK A   2      -7.477  -2.788 126.443  0.00  0.00    +0.000 C 
ATOM     12  C   UNK A   2      -7.709  -2.731 124.972  0.00  0.00    +0.000 A 
ATOM     13  C   UNK A   2      -8.667  -3.514 124.321  0.00  0.00    +0.000 A 
ATOM     14  C   UNK A   2      -9.312  -3.001 123.219  0.00  0.00    +0.000 A 
ATOM     15  C   UNK A   2      -9.092  -1.650 122.949  0.00  0.00    +0.000 A 
ATOM     16  C   UNK A   2      -8.036  -0.901 123.638  0.00  0.00    +0.000 A 
ATOM     17  C   UNK A   2      -7.104  -1.556 124.508  0.00  0.00    +0.000 A 
ATOM     18  C   UNK A   2      -5.991  -1.188 125.759  0.00  0.00    +0.000 C 
ENDBRANCH   4  10
BRANCH   1  19
ATOM     19  C   UNK A   0      -7.092   3.037 128.538  0.00  0.00    +0.000 C 
BRANCH  19  26
ATOM     20  C   UNK A   0      -5.149   4.608 126.682  0.00  0.00    +0.000 C 
ATOM     21  C   UNK A   0      -4.831   4.237 128.075  0.00  0.00    +0.000 A 
ATOM     22  C   UNK A   0      -3.694   4.848 128.592  0.00  0.00    +0.000 A 
ATOM     23  C   UNK A   0      -3.223   4.481 129.824  0.00  0.00    +0.000 A 
ATOM     24  C   UNK A   0      -3.772   3.364 130.439  0.00  0.00    +0.000 A 
ATOM     25  C   UNK A   0      -4.937   2.754 129.944  0.00  0.00    +0.000 A 
ATOM     26  C   UNK A   0      -5.585   3.307 128.821  0.00  0.00    +0.000 A 
ENDBRANCH  19  26
BRANCH  19  27
ATOM     27  C   UNK A   0      -7.965   4.237 129.119  0.00  0.00    +0.000 C 
ATOM     28  O   UNK A   0      -8.608   4.888 128.284  0.00  0.00    +0.000 OA
ATOM     29  N   UNK A   0      -7.815   4.717 130.438  0.00  0.00    +0.000 N 
ATOM     30  H   UNK A   0      -7.242   4.208 131.102  0.00  0.00    +0.000 HD
BRANCH  29  31
ATOM     31  C   UNK A   0      -8.171   6.130 130.723  0.00  0.00    +0.000 C 
ATOM     32  C   UNK A   0      -9.216   6.215 131.820  0.00  0.00    +0.000 C 
ATOM     33  C   UNK A   0      -7.000   7.067 131.039  0.00  0.00    +0.000 C 
ENDBRANCH  29  31
ENDBRANCH  19  27
ENDBRANCH   1  19
BRANCH   8  34
ATOM     34  CB  LEU A   1      -7.656   1.659 131.232  0.00  0.00    +0.000 C 
BRANCH  34  35
ATOM     35  CG  LEU A   1      -8.377   1.773 132.568  0.00  0.00    +0.000 C 
ATOM     36  CD1 LEU A   1      -7.679   2.812 133.473  0.00  0.00    +0.000 C 
ATOM     37  CD2 LEU A   1      -9.788   2.341 132.429  0.00  0.00    +0.000 C 
ENDBRANCH  34  35
ENDBRANCH   8  34
TORSDOF 7
ENDMDL
MODEL 8
REMARK VINA RESULT:      -8.0      4.253      7.003
REMARK  Name = CHEMBL2035010
REMARK  12 active torsions:
REMARK  status: ('A' for Active; 'I' for Inactive)
REMARK    1  A    between atoms: C_1  and  C_2
REMARK    2  A    between atoms: C_7  and  C_8
REMARK    3  A    between atoms: C_8  and  C_9
REMARK    4  A    between atoms: C_8  and  N_15
REMARK    5  A    between atoms: N_11  and  C_12
REMARK    6  A    between atoms: C_12  and  C_13
REMARK    7  A    between atoms: C_12  and  C_14
REMARK    8  A    between atoms: C_18  and  C_19
REMARK    9  A    between atoms: CA_31  and  CB_32
REMARK   10  A    between atoms: CB_32  and  CG_33
REMARK   11  A    between atoms: CG_33  and  CD1_34
REMARK   12  A    between atoms: CG_33  and  CD2_35
REMARK                            x       y       z     vdW  Elec       q    Type
REMARK                         _______ _______ _______ _____ _____    ______ ____
ROOT
ATOM      1  N   LEU A   1      -8.322   2.737 129.156  0.00  0.00    +0.000 N 
ATOM      2  C   UNK A   2      -8.311   2.273 127.880  0.00  0.00    +0.000 C 
ATOM      3  O   UNK A   2      -8.477   3.075 126.928  0.00  0.00    +0.000 OA
ATOM      4  C   UNK A   2      -8.139   0.733 127.676  0.00  0.00    +0.000 C 
ATOM      5  N   UNK A   2      -7.098   0.285 128.559  0.00  0.00    +0.000 N 
ATOM      6  C   LEU A   1      -7.493   0.365 129.854  0.00  0.00    +0.000 C 
ATOM      7  O   LEU A   1      -7.275  -0.587 130.613  0.00  0.00    +0.000 OA
ATOM      8  CA  LEU A   1      -8.255   1.668 130.226  0.00  0.00    +0.000 C 
ATOM      9  H   UNK A   2      -6.561  -0.551 128.353  0.00  0.00    +0.000 HD
ENDROOT
BRANCH   4  10
ATOM     10  C   UNK A   2      -7.769   0.657 126.253  0.00  0.00    +0.000 C 
ATOM     11  C   UNK A   2      -6.254   0.421 125.991  0.00  0.00    +0.000 C 
ATOM     12  C   UNK A   2      -6.341  -0.622 124.931  0.00  0.00    +0.000 A 
ATOM     13  C   UNK A   2      -5.405  -1.653 124.797  0.00  0.00    +0.000 A 
ATOM     14  C   UNK A   2      -5.825  -2.882 124.343  0.00  0.00    +0.000 A 
ATOM     15  C   UNK A   2      -7.204  -3.058 124.230  0.00  0.00    +0.000 A 
ATOM     16  C   UNK A   2      -8.126  -1.924 124.334  0.00  0.00    +0.000 A 
ATOM     17  C   UNK A   2      -7.642  -0.576 124.416  0.00  0.00    +0.000 A 
ATOM     18  C   UNK A   2      -8.174   0.985 124.882  0.00  0.00    +0.000 C 
ENDBRANCH   4  10
BRANCH   1  19
ATOM     19  C   UNK A   0      -8.234   4.253 129.258  0.00  0.00    +0.000 C 
BRANCH  19  26
ATOM     20  C   UNK A   0      -5.194   3.943 128.670  0.00  0.00    +0.000 C 
ATOM     21  C   UNK A   0      -5.747   4.912 129.637  0.00  0.00    +0.000 A 
ATOM     22  C   UNK A   0      -4.835   5.855 130.098  0.00  0.00    +0.000 A 
ATOM     23  C   UNK A   0      -5.194   6.719 131.096  0.00  0.00    +0.000 A 
ATOM     24  C   UNK A   0      -6.390   6.501 131.767  0.00  0.00    +0.000 A 
ATOM     25  C   UNK A   0      -7.333   5.572 131.296  0.00  0.00    +0.000 A 
ATOM     26  C   UNK A   0      -7.079   4.872 130.098  0.00  0.00    +0.000 A 
ENDBRANCH  19  26
BRANCH  19  27
ATOM     27  C   UNK A   0      -9.590   5.034 129.562  0.00  0.00    +0.000 C 
ATOM     28  O   UNK A   0     -10.524   4.343 129.994  0.00  0.00    +0.000 OA
ATOM     29  N   UNK A   0      -9.822   6.353 129.117  0.00  0.00    +0.000 N 
ATOM     30  H   UNK A   0      -9.067   6.895 128.714  0.00  0.00    +0.000 HD
BRANCH  29  31
ATOM     31  C   UNK A   0     -11.224   6.788 128.893  0.00  0.00    +0.000 C 
ATOM     32  C   UNK A   0     -11.710   7.664 130.033  0.00  0.00    +0.000 C 
ATOM     33  C   UNK A   0     -11.509   7.471 127.550  0.00  0.00    +0.000 C 
ENDBRANCH  29  31
ENDBRANCH  19  27
ENDBRANCH   1  19
BRANCH   8  34
ATOM     34  CB  LEU A   1      -7.590   2.201 131.460  0.00  0.00    +0.000 C 
BRANCH  34  35
ATOM     35  CG  LEU A   1      -8.112   2.108 132.887  0.00  0.00    +0.000 C 
ATOM     36  CD1 LEU A   1      -7.110   2.748 133.874  0.00  0.00    +0.000 C 
ATOM     37  CD2 LEU A   1      -9.377   2.938 133.106  0.00  0.00    +0.000 C 
ENDBRANCH  34  35
ENDBRANCH   8  34
TORSDOF 7
ENDMDL
MODEL 9
REMARK VINA RESULT:      -8.0      4.025      6.778
REMARK  Name = CHEMBL2035010
REMARK  12 active torsions:
REMARK  status: ('A' for Active; 'I' for Inactive)
REMARK    1  A    between atoms: C_1  and  C_2
REMARK    2  A    between atoms: C_7  and  C_8
REMARK    3  A    between atoms: C_8  and  C_9
REMARK    4  A    between atoms: C_8  and  N_15
REMARK    5  A    between atoms: N_11  and  C_12
REMARK    6  A    between atoms: C_12  and  C_13
REMARK    7  A    between atoms: C_12  and  C_14
REMARK    8  A    between atoms: C_18  and  C_19
REMARK    9  A    between atoms: CA_31  and  CB_32
REMARK   10  A    between atoms: CB_32  and  CG_33
REMARK   11  A    between atoms: CG_33  and  CD1_34
REMARK   12  A    between atoms: CG_33  and  CD2_35
REMARK                            x       y       z     vdW  Elec       q    Type
REMARK                         _______ _______ _______ _____ _____    ______ ____
ROOT
ATOM      1  N   LEU A   1      -6.860   1.672 129.616  0.00  0.00    +0.000 N 
ATOM      2  C   UNK A   2      -7.037   2.983 129.923  0.00  0.00    +0.000 C 
ATOM      3  O   UNK A   2      -6.392   3.858 129.294  0.00  0.00    +0.000 OA
ATOM      4  C   UNK A   2      -8.011   3.322 131.096  0.00  0.00    +0.000 C 
ATOM      5  N   UNK A   2      -9.185   2.507 130.943  0.00  0.00    +0.000 N 
ATOM      6  C   LEU A   1      -8.900   1.200 131.169  0.00  0.00    +0.000 C 
ATOM      7  O   LEU A   1      -9.657   0.531 131.883  0.00  0.00    +0.000 OA
ATOM      8  CA  LEU A   1      -7.576   0.699 130.528  0.00  0.00    +0.000 C 
ATOM      9  H   UNK A   2     -10.078   2.797 131.330  0.00  0.00    +0.000 HD
ENDROOT
BRANCH   4  10
ATOM     10  C   UNK A   2      -8.264   4.755 130.874  0.00  0.00    +0.000 C 
ATOM     11  C   UNK A   2      -8.974   5.085 129.531  0.00  0.00    +0.000 C 
ATOM     12  C   UNK A   2      -9.985   6.068 130.014  0.00  0.00    +0.000 A 
ATOM     13  C   UNK A   2     -11.261   6.185 129.456  0.00  0.00    +0.000 A 
ATOM     14  C   UNK A   2     -12.316   6.533 130.268  0.00  0.00    +0.000 A 
ATOM     15  C   UNK A   2     -12.057   6.556 131.638  0.00  0.00    +0.000 A 
ATOM     16  C   UNK A   2     -10.687   6.476 132.153  0.00  0.00    +0.000 A 
ATOM     17  C   UNK A   2      -9.556   6.511 131.271  0.00  0.00    +0.000 A 
ATOM     18  C   UNK A   2      -7.888   6.120 131.258  0.00  0.00    +0.000 C 
ENDBRANCH   4  10
BRANCH   1  19
ATOM     19  C   UNK A   0      -6.107   1.443 128.312  0.00  0.00    +0.000 C 
BRANCH  19  26
ATOM     20  C   UNK A   0      -8.697   0.912 126.669  0.00  0.00    +0.000 C 
ATOM     21  C   UNK A   0      -7.480   0.082 126.573  0.00  0.00    +0.000 A 
ATOM     22  C   UNK A   0      -7.476  -0.818 125.513  0.00  0.00    +0.000 A 
ATOM     23  C   UNK A   0      -6.464  -1.733 125.400  0.00  0.00    +0.000 A 
ATOM     24  C   UNK A   0      -5.575  -1.876 126.456  0.00  0.00    +0.000 A 
ATOM     25  C   UNK A   0      -5.549  -0.957 127.519  0.00  0.00    +0.000 A 
ATOM     26  C   UNK A   0      -6.416   0.154 127.497  0.00  0.00    +0.000 A 
ENDBRANCH  19  26
BRANCH  19  27
ATOM     27  C   UNK A   0      -4.533   1.693 128.337  0.00  0.00    +0.000 C 
ATOM     28  O   UNK A   0      -3.970   1.475 129.419  0.00  0.00    +0.000 OA
ATOM     29  N   UNK A   0      -3.857   2.376 127.303  0.00  0.00    +0.000 N 
ATOM     30  H   UNK A   0      -4.339   2.600 126.441  0.00  0.00    +0.000 HD
BRANCH  29  31
ATOM     31  C   UNK A   0      -2.594   3.085 127.632  0.00  0.00    +0.000 C 
ATOM     32  C   UNK A   0      -1.578   2.930 126.515  0.00  0.00    +0.000 C 
ATOM     33  C   UNK A   0      -2.733   4.563 128.012  0.00  0.00    +0.000 C 
ENDBRANCH  29  31
ENDBRANCH  19  27
ENDBRANCH   1  19
BRANCH   8  34
ATOM     34  CB  LEU A   1      -7.922  -0.559 129.787  0.00  0.00    +0.000 C 
BRANCH  34  35
ATOM     35  CG  LEU A   1      -7.846  -1.981 130.325  0.00  0.00    +0.000 C 
ATOM     36  CD1 LEU A   1      -8.109  -3.001 129.195  0.00  0.00    +0.000 C 
ATOM     37  CD2 LEU A   1      -6.442  -2.356 130.798  0.00  0.00    +0.000 C 
ENDBRANCH  34  35
ENDBRANCH   8  34
TORSDOF 7
ENDMDL
