MODEL 1
REMARK VINA RESULT:      -8.0      0.000      0.000
REMARK  Name = CHEMBL562946
REMARK  7 active torsions:
REMARK  status: ('A' for Active; 'I' for Inactive)
REMARK    1  A    between atoms: C_1  and  O_2
REMARK    2  A    between atoms: O_2  and  C_3
REMARK    3  A    between atoms: C_6  and  N_7
REMARK    4  A    between atoms: C_8  and  C_9
REMARK    5  A    between atoms: C_12  and  C_13
REMARK    6  A    between atoms: C_16  and  O_17
REMARK    7  A    between atoms: O_17  and  C_18
REMARK                            x       y       z     vdW  Elec       q    Type
REMARK                         _______ _______ _______ _____ _____    ______ ____
ROOT
ATOM      1  N   UNL     1      -6.611   3.186 123.075  0.00  0.00    +0.000 N 
ATOM      2  C   UNL     1      -5.807   3.706 122.062  0.00  0.00    +0.000 A 
ATOM      3  C   UNL     1      -5.713   3.289 120.638  0.00  0.00    +0.000 C 
ATOM      4  N   UNL     1      -5.179   4.772 122.523  0.00  0.00    +0.000 NA
ATOM      5  N   UNL     1      -5.551   4.976 123.818  0.00  0.00    +0.000 NA
ATOM      6  C   UNL     1      -6.402   4.025 124.171  0.00  0.00    +0.000 A 
ENDROOT
BRANCH   1  10
ATOM      7  C   UNL     1      -9.122  -0.155 123.187  0.00  0.00    +0.000 A 
ATOM      8  C   UNL     1      -9.688   1.090 122.959  0.00  0.00    +0.000 A 
ATOM      9  C   UNL     1      -8.852   2.213 122.901  0.00  0.00    +0.000 A 
ATOM     10  C   UNL     1      -7.472   2.057 123.054  0.00  0.00    +0.000 A 
ATOM     11  C   UNL     1      -6.995   0.783 123.324  0.00  0.00    +0.000 A 
ATOM     12  N   UNL     1      -7.796  -0.315 123.401  0.00  0.00    +0.000 NA
BRANCH   7  14
ATOM     13  C   UNL     1      -9.115  -2.509 123.331  0.00  0.00    +0.000 C 
ATOM     14  O   UNL     1      -9.869  -1.297 123.318  0.00  0.00    +0.000 OA
ENDBRANCH   7  14
ENDBRANCH   1  10
BRANCH   6  15
ATOM     15  C   UNL     1      -6.918   3.817 125.521  0.00  0.00    +0.000 A 
ATOM     16  C   UNL     1      -7.945   4.599 126.049  0.00  0.00    +0.000 A 
ATOM     17  N   UNL     1      -8.386   4.482 127.327  0.00  0.00    +0.000 NA
ATOM     18  C   UNL     1      -7.832   3.484 128.051  0.00  0.00    +0.000 A 
ATOM     19  C   UNL     1      -6.825   2.681 127.520  0.00  0.00    +0.000 A 
ATOM     20  N   UNL     1      -6.333   2.842 126.260  0.00  0.00    +0.000 NA
BRANCH  18  21
ATOM     21  O   UNL     1      -8.244   3.231 129.358  0.00  0.00    +0.000 OA
BRANCH  21  22
ATOM     22  C   UNL     1      -8.532   4.316 130.162  0.00  0.00    +0.000 A 
ATOM     23  C   UNL     1      -7.439   5.088 130.589  0.00  0.00    +0.000 A 
ATOM     24  C   UNL     1      -7.636   6.197 131.420  0.00  0.00    +0.000 A 
ATOM     25  C   UNL     1      -8.921   6.539 131.833  0.00  0.00    +0.000 A 
ATOM     26  C   UNL     1     -10.006   5.749 131.450  0.00  0.00    +0.000 A 
ATOM     27  C   UNL     1      -9.813   4.620 130.645  0.00  0.00    +0.000 A 
ATOM     28 CL   UNL     1     -11.187   3.610 130.358  0.00  0.00    +0.000 Cl
ENDBRANCH  21  22
ENDBRANCH  18  21
ENDBRANCH   6  15
TORSDOF 5
ENDMDL
MODEL 2
REMARK VINA RESULT:      -8.0      3.906      7.862
REMARK  Name = CHEMBL562946
REMARK  7 active torsions:
REMARK  status: ('A' for Active; 'I' for Inactive)
REMARK    1  A    between atoms: C_1  and  O_2
REMARK    2  A    between atoms: O_2  and  C_3
REMARK    3  A    between atoms: C_6  and  N_7
REMARK    4  A    between atoms: C_8  and  C_9
REMARK    5  A    between atoms: C_12  and  C_13
REMARK    6  A    between atoms: C_16  and  O_17
REMARK    7  A    between atoms: O_17  and  C_18
REMARK                            x       y       z     vdW  Elec       q    Type
REMARK                         _______ _______ _______ _____ _____    ______ ____
ROOT
ATOM      1  N   UNL     1      -8.172  -1.507 127.021  0.00  0.00    +0.000 N 
ATOM      2  C   UNL     1      -8.372  -2.817 127.453  0.00  0.00    +0.000 A 
ATOM      3  C   UNL     1      -7.896  -3.473 128.699  0.00  0.00    +0.000 C 
ATOM      4  N   UNL     1      -9.199  -3.418 126.616  0.00  0.00    +0.000 NA
ATOM      5  N   UNL     1      -9.558  -2.535 125.642  0.00  0.00    +0.000 NA
ATOM      6  C   UNL     1      -8.940  -1.385 125.862  0.00  0.00    +0.000 A 
ENDROOT
BRANCH   1  10
ATOM      7  C   UNL     1      -5.805   1.584 128.546  0.00  0.00    +0.000 A 
ATOM      8  C   UNL     1      -7.159   1.583 128.838  0.00  0.00    +0.000 A 
ATOM      9  C   UNL     1      -7.957   0.541 128.348  0.00  0.00    +0.000 A 
ATOM     10  C   UNL     1      -7.374  -0.481 127.594  0.00  0.00    +0.000 A 
ATOM     11  C   UNL     1      -6.021  -0.378 127.309  0.00  0.00    +0.000 A 
ATOM     12  N   UNL     1      -5.236   0.637 127.764  0.00  0.00    +0.000 NA
BRANCH   7  14
ATOM     13  C   UNL     1      -3.679   2.578 128.308  0.00  0.00    +0.000 C 
ATOM     14  O   UNL     1      -4.961   2.593 128.934  0.00  0.00    +0.000 OA
ENDBRANCH   7  14
ENDBRANCH   1  10
BRANCH   6  15
ATOM     15  C   UNL     1      -8.955  -0.236 124.961  0.00  0.00    +0.000 A 
ATOM     16  C   UNL     1      -7.955  -0.025 124.014  0.00  0.00    +0.000 A 
ATOM     17  N   UNL     1      -7.901   1.076 123.222  0.00  0.00    +0.000 NA
ATOM     18  C   UNL     1      -8.941   1.934 123.336  0.00  0.00    +0.000 A 
ATOM     19  C   UNL     1      -9.958   1.714 124.262  0.00  0.00    +0.000 A 
ATOM     20  N   UNL     1      -9.978   0.644 125.105  0.00  0.00    +0.000 NA
BRANCH  18  21
ATOM     21  O   UNL     1      -9.023   3.071 122.536  0.00  0.00    +0.000 OA
BRANCH  21  22
ATOM     22  C   UNL     1      -7.891   3.454 121.844  0.00  0.00    +0.000 A 
ATOM     23  C   UNL     1      -6.701   3.534 122.584  0.00  0.00    +0.000 A 
ATOM     24  C   UNL     1      -5.508   3.930 121.968  0.00  0.00    +0.000 A 
ATOM     25  C   UNL     1      -5.497   4.251 120.612  0.00  0.00    +0.000 A 
ATOM     26  C   UNL     1      -6.686   4.218 119.882  0.00  0.00    +0.000 A 
ATOM     27  C   UNL     1      -7.888   3.854 120.500  0.00  0.00    +0.000 A 
ATOM     28 CL   UNL     1      -9.334   4.000 119.561  0.00  0.00    +0.000 Cl
ENDBRANCH  21  22
ENDBRANCH  18  21
ENDBRANCH   6  15
TORSDOF 5
ENDMDL
MODEL 3
REMARK VINA RESULT:      -7.8      5.669      7.542
REMARK  Name = CHEMBL562946
REMARK  7 active torsions:
REMARK  status: ('A' for Active; 'I' for Inactive)
REMARK    1  A    between atoms: C_1  and  O_2
REMARK    2  A    between atoms: O_2  and  C_3
REMARK    3  A    between atoms: C_6  and  N_7
REMARK    4  A    between atoms: C_8  and  C_9
REMARK    5  A    between atoms: C_12  and  C_13
REMARK    6  A    between atoms: C_16  and  O_17
REMARK    7  A    between atoms: O_17  and  C_18
REMARK                            x       y       z     vdW  Elec       q    Type
REMARK                         _______ _______ _______ _____ _____    ______ ____
ROOT
ATOM      1  N   UNL     1      -4.112   5.046 131.718  0.00  0.00    +0.000 N 
ATOM      2  C   UNL     1      -3.266   5.027 132.826  0.00  0.00    +0.000 A 
ATOM      3  C   UNL     1      -1.822   4.679 132.892  0.00  0.00    +0.000 C 
ATOM      4  N   UNL     1      -3.920   5.507 133.868  0.00  0.00    +0.000 NA
ATOM      5  N   UNL     1      -5.180   5.851 133.477  0.00  0.00    +0.000 NA
ATOM      6  C   UNL     1      -5.318   5.568 132.191  0.00  0.00    +0.000 A 
ENDROOT
BRANCH   1  10
ATOM      7  C   UNL     1      -3.191   3.854 127.818  0.00  0.00    +0.000 A 
ATOM      8  C   UNL     1      -3.703   2.910 128.694  0.00  0.00    +0.000 A 
ATOM      9  C   UNL     1      -4.032   3.304 129.998  0.00  0.00    +0.000 A 
ATOM     10  C   UNL     1      -3.858   4.637 130.382  0.00  0.00    +0.000 A 
ATOM     11  C   UNL     1      -3.298   5.504 129.457  0.00  0.00    +0.000 A 
ATOM     12  N   UNL     1      -2.957   5.133 128.193  0.00  0.00    +0.000 NA
BRANCH   7  14
ATOM     13  C   UNL     1      -1.481   2.978 126.451  0.00  0.00    +0.000 C 
ATOM     14  O   UNL     1      -2.787   3.544 126.545  0.00  0.00    +0.000 OA
ENDBRANCH   7  14
ENDBRANCH   1  10
BRANCH   6  15
ATOM     15  C   UNL     1      -6.565   5.661 131.438  0.00  0.00    +0.000 A 
ATOM     16  C   UNL     1      -7.061   6.878 130.974  0.00  0.00    +0.000 A 
ATOM     17  N   UNL     1      -8.258   7.003 130.346  0.00  0.00    +0.000 NA
ATOM     18  C   UNL     1      -8.918   5.848 130.104  0.00  0.00    +0.000 A 
ATOM     19  C   UNL     1      -8.414   4.625 130.540  0.00  0.00    +0.000 A 
ATOM     20  N   UNL     1      -7.246   4.506 131.232  0.00  0.00    +0.000 NA
BRANCH  18  21
ATOM     21  O   UNL     1     -10.129   5.844 129.417  0.00  0.00    +0.000 OA
BRANCH  21  22
ATOM     22  C   UNL     1     -11.071   6.791 129.770  0.00  0.00    +0.000 A 
ATOM     23  C   UNL     1     -11.812   6.534 130.934  0.00  0.00    +0.000 A 
ATOM     24  C   UNL     1     -12.799   7.431 131.359  0.00  0.00    +0.000 A 
ATOM     25  C   UNL     1     -13.055   8.585 130.623  0.00  0.00    +0.000 A 
ATOM     26  C   UNL     1     -12.355   8.823 129.440  0.00  0.00    +0.000 A 
ATOM     27  C   UNL     1     -11.388   7.914 128.992  0.00  0.00    +0.000 A 
ATOM     28 CL   UNL     1     -10.690   8.205 127.437  0.00  0.00    +0.000 Cl
ENDBRANCH  21  22
ENDBRANCH  18  21
ENDBRANCH   6  15
TORSDOF 5
ENDMDL
MODEL 4
REMARK VINA RESULT:      -7.6      3.395      4.676
REMARK  Name = CHEMBL562946
REMARK  7 active torsions:
REMARK  status: ('A' for Active; 'I' for Inactive)
REMARK    1  A    between atoms: C_1  and  O_2
REMARK    2  A    between atoms: O_2  and  C_3
REMARK    3  A    between atoms: C_6  and  N_7
REMARK    4  A    between atoms: C_8  and  C_9
REMARK    5  A    between atoms: C_12  and  C_13
REMARK    6  A    between atoms: C_16  and  O_17
REMARK    7  A    between atoms: O_17  and  C_18
REMARK                            x       y       z     vdW  Elec       q    Type
REMARK                         _______ _______ _______ _____ _____    ______ ____
ROOT
ATOM      1  N   UNL     1      -6.749   2.528 123.707  0.00  0.00    +0.000 N 
ATOM      2  C   UNL     1      -6.385   3.438 122.717  0.00  0.00    +0.000 A 
ATOM      3  C   UNL     1      -6.769   3.459 121.281  0.00  0.00    +0.000 C 
ATOM      4  N   UNL     1      -5.705   4.423 123.275  0.00  0.00    +0.000 NA
ATOM      5  N   UNL     1      -5.613   4.191 124.615  0.00  0.00    +0.000 NA
ATOM      6  C   UNL     1      -6.224   3.049 124.891  0.00  0.00    +0.000 A 
ENDROOT
BRANCH   1  10
ATOM      7  C   UNL     1      -8.983  -0.972 123.218  0.00  0.00    +0.000 A 
ATOM      8  C   UNL     1      -7.601  -1.056 123.151  0.00  0.00    +0.000 A 
ATOM      9  C   UNL     1      -6.843   0.109 123.333  0.00  0.00    +0.000 A 
ATOM     10  C   UNL     1      -7.489   1.320 123.595  0.00  0.00    +0.000 A 
ATOM     11  C   UNL     1      -8.875   1.322 123.599  0.00  0.00    +0.000 A 
ATOM     12  N   UNL     1      -9.626   0.203 123.407  0.00  0.00    +0.000 NA
BRANCH   7  14
ATOM     13  C   UNL     1      -9.385  -3.262 123.617  0.00  0.00    +0.000 C 
ATOM     14  O   UNL     1      -9.803  -2.048 122.994  0.00  0.00    +0.000 OA
ENDBRANCH   7  14
ENDBRANCH   1  10
BRANCH   6  15
ATOM     15  C   UNL     1      -6.221   2.388 126.192  0.00  0.00    +0.000 A 
ATOM     16  C   UNL     1      -5.169   1.572 126.606  0.00  0.00    +0.000 A 
ATOM     17  N   UNL     1      -5.179   0.880 127.774  0.00  0.00    +0.000 NA
ATOM     18  C   UNL     1      -6.243   1.099 128.578  0.00  0.00    +0.000 A 
ATOM     19  C   UNL     1      -7.285   1.935 128.182  0.00  0.00    +0.000 A 
ATOM     20  N   UNL     1      -7.309   2.576 126.980  0.00  0.00    +0.000 NA
BRANCH  18  21
ATOM     21  O   UNL     1      -6.338   0.487 129.825  0.00  0.00    +0.000 OA
BRANCH  21  22
ATOM     22  C   UNL     1      -6.424  -0.891 129.861  0.00  0.00    +0.000 A 
ATOM     23  C   UNL     1      -7.707  -1.443 129.725  0.00  0.00    +0.000 A 
ATOM     24  C   UNL     1      -7.890  -2.830 129.765  0.00  0.00    +0.000 A 
ATOM     25  C   UNL     1      -6.796  -3.672 129.947  0.00  0.00    +0.000 A 
ATOM     26  C   UNL     1      -5.524  -3.128 130.130  0.00  0.00    +0.000 A 
ATOM     27  C   UNL     1      -5.338  -1.740 130.122  0.00  0.00    +0.000 A 
ATOM     28 CL   UNL     1      -3.762  -1.152 130.520  0.00  0.00    +0.000 Cl
ENDBRANCH  21  22
ENDBRANCH  18  21
ENDBRANCH   6  15
TORSDOF 5
ENDMDL
MODEL 5
REMARK VINA RESULT:      -7.4      3.299      5.208
REMARK  Name = CHEMBL562946
REMARK  7 active torsions:
REMARK  status: ('A' for Active; 'I' for Inactive)
REMARK    1  A    between atoms: C_1  and  O_2
REMARK    2  A    between atoms: O_2  and  C_3
REMARK    3  A    between atoms: C_6  and  N_7
REMARK    4  A    between atoms: C_8  and  C_9
REMARK    5  A    between atoms: C_12  and  C_13
REMARK    6  A    between atoms: C_16  and  O_17
REMARK    7  A    between atoms: O_17  and  C_18
REMARK                            x       y       z     vdW  Elec       q    Type
REMARK                         _______ _______ _______ _____ _____    ______ ____
ROOT
ATOM      1  N   UNL     1      -8.525  -0.845 124.256  0.00  0.00    +0.000 N 
ATOM      2  C   UNL     1      -9.290  -1.581 123.353  0.00  0.00    +0.000 A 
ATOM      3  C   UNL     1      -9.511  -3.050 123.296  0.00  0.00    +0.000 C 
ATOM      4  N   UNL     1      -9.940  -0.743 122.566  0.00  0.00    +0.000 NA
ATOM      5  N   UNL     1      -9.630   0.534 122.930  0.00  0.00    +0.000 NA
ATOM      6  C   UNL     1      -8.770   0.492 123.936  0.00  0.00    +0.000 A 
ENDROOT
BRANCH   1  10
ATOM      7  C   UNL     1      -5.912  -2.032 127.297  0.00  0.00    +0.000 A 
ATOM      8  C   UNL     1      -7.221  -1.725 127.633  0.00  0.00    +0.000 A 
ATOM      9  C   UNL     1      -8.109  -1.344 126.618  0.00  0.00    +0.000 A 
ATOM     10  C   UNL     1      -7.667  -1.300 125.293  0.00  0.00    +0.000 A 
ATOM     11  C   UNL     1      -6.331  -1.579 125.051  0.00  0.00    +0.000 A 
ATOM     12  N   UNL     1      -5.451  -1.933 126.028  0.00  0.00    +0.000 NA
BRANCH   7  14
ATOM     13  C   UNL     1      -5.466  -2.997 129.402  0.00  0.00    +0.000 C 
ATOM     14  O   UNL     1      -4.962  -2.357 128.231  0.00  0.00    +0.000 OA
ENDBRANCH   7  14
ENDBRANCH   1  10
BRANCH   6  15
ATOM     15  C   UNL     1      -8.092   1.650 124.512  0.00  0.00    +0.000 A 
ATOM     16  C   UNL     1      -6.870   2.109 124.026  0.00  0.00    +0.000 A 
ATOM     17  N   UNL     1      -6.179   3.130 124.594  0.00  0.00    +0.000 NA
ATOM     18  C   UNL     1      -6.795   3.755 125.623  0.00  0.00    +0.000 A 
ATOM     19  C   UNL     1      -8.030   3.318 126.096  0.00  0.00    +0.000 A 
ATOM     20  N   UNL     1      -8.693   2.249 125.570  0.00  0.00    +0.000 NA
BRANCH  18  21
ATOM     21  O   UNL     1      -6.209   4.851 126.251  0.00  0.00    +0.000 OA
BRANCH  21  22
ATOM     22  C   UNL     1      -5.189   4.608 127.150  0.00  0.00    +0.000 A 
ATOM     23  C   UNL     1      -3.910   4.406 126.607  0.00  0.00    +0.000 A 
ATOM     24  C   UNL     1      -2.819   4.137 127.443  0.00  0.00    +0.000 A 
ATOM     25  C   UNL     1      -3.000   4.064 128.822  0.00  0.00    +0.000 A 
ATOM     26  C   UNL     1      -4.277   4.218 129.364  0.00  0.00    +0.000 A 
ATOM     27  C   UNL     1      -5.377   4.455 128.531  0.00  0.00    +0.000 A 
ATOM     28 CL   UNL     1      -6.940   4.468 129.271  0.00  0.00    +0.000 Cl
ENDBRANCH  21  22
ENDBRANCH  18  21
ENDBRANCH   6  15
TORSDOF 5
ENDMDL
MODEL 6
REMARK VINA RESULT:      -7.3      2.602      3.044
REMARK  Name = CHEMBL562946
REMARK  7 active torsions:
REMARK  status: ('A' for Active; 'I' for Inactive)
REMARK    1  A    between atoms: C_1  and  O_2
REMARK    2  A    between atoms: O_2  and  C_3
REMARK    3  A    between atoms: C_6  and  N_7
REMARK    4  A    between atoms: C_8  and  C_9
REMARK    5  A    between atoms: C_12  and  C_13
REMARK    6  A    between atoms: C_16  and  O_17
REMARK    7  A    between atoms: O_17  and  C_18
REMARK                            x       y       z     vdW  Elec       q    Type
REMARK                         _______ _______ _______ _____ _____    ______ ____
ROOT
ATOM      1  N   UNL     1      -6.322   3.522 122.834  0.00  0.00    +0.000 N 
ATOM      2  C   UNL     1      -6.025   3.863 121.516  0.00  0.00    +0.000 A 
ATOM      3  C   UNL     1      -6.674   3.398 120.262  0.00  0.00    +0.000 C 
ATOM      4  N   UNL     1      -5.107   4.813 121.520  0.00  0.00    +0.000 NA
ATOM      5  N   UNL     1      -4.791   5.115 122.811  0.00  0.00    +0.000 NA
ATOM      6  C   UNL     1      -5.503   4.339 123.615  0.00  0.00    +0.000 A 
ENDROOT
BRANCH   1  10
ATOM      7  C   UNL     1      -8.967   0.722 124.460  0.00  0.00    +0.000 A 
ATOM      8  C   UNL     1      -9.470   1.949 124.056  0.00  0.00    +0.000 A 
ATOM      9  C   UNL     1      -8.594   2.887 123.493  0.00  0.00    +0.000 A 
ATOM     10  C   UNL     1      -7.244   2.563 123.332  0.00  0.00    +0.000 A 
ATOM     11  C   UNL     1      -6.817   1.332 123.805  0.00  0.00    +0.000 A 
ATOM     12  N   UNL     1      -7.652   0.417 124.370  0.00  0.00    +0.000 NA
BRANCH   7  14
ATOM     13  C   UNL     1      -9.043  -1.422 125.441  0.00  0.00    +0.000 C 
ATOM     14  O   UNL     1      -9.739  -0.231 125.074  0.00  0.00    +0.000 OA
ENDBRANCH   7  14
ENDBRANCH   1  10
BRANCH   6  15
ATOM     15  C   UNL     1      -5.347   4.263 125.064  0.00  0.00    +0.000 A 
ATOM     16  C   UNL     1      -6.202   4.934 125.937  0.00  0.00    +0.000 A 
ATOM     17  N   UNL     1      -6.030   4.947 127.283  0.00  0.00    +0.000 NA
ATOM     18  C   UNL     1      -5.018   4.183 127.754  0.00  0.00    +0.000 A 
ATOM     19  C   UNL     1      -4.177   3.489 126.889  0.00  0.00    +0.000 A 
ATOM     20  N   UNL     1      -4.307   3.529 125.533  0.00  0.00    +0.000 NA
BRANCH  18  21
ATOM     21  O   UNL     1      -4.778   4.074 129.122  0.00  0.00    +0.000 OA
BRANCH  21  22
ATOM     22  C   UNL     1      -4.263   5.177 129.774  0.00  0.00    +0.000 A 
ATOM     23  C   UNL     1      -2.865   5.305 129.782  0.00  0.00    +0.000 A 
ATOM     24  C   UNL     1      -2.255   6.383 130.434  0.00  0.00    +0.000 A 
ATOM     25  C   UNL     1      -3.036   7.336 131.084  0.00  0.00    +0.000 A 
ATOM     26  C   UNL     1      -4.423   7.190 131.119  0.00  0.00    +0.000 A 
ATOM     27  C   UNL     1      -5.038   6.097 130.496  0.00  0.00    +0.000 A 
ATOM     28 CL   UNL     1      -6.740   5.908 130.731  0.00  0.00    +0.000 Cl
ENDBRANCH  21  22
ENDBRANCH  18  21
ENDBRANCH   6  15
TORSDOF 5
ENDMDL
MODEL 7
REMARK VINA RESULT:      -7.2      4.064      8.073
REMARK  Name = CHEMBL562946
REMARK  7 active torsions:
REMARK  status: ('A' for Active; 'I' for Inactive)
REMARK    1  A    between atoms: C_1  and  O_2
REMARK    2  A    between atoms: O_2  and  C_3
REMARK    3  A    between atoms: C_6  and  N_7
REMARK    4  A    between atoms: C_8  and  C_9
REMARK    5  A    between atoms: C_12  and  C_13
REMARK    6  A    between atoms: C_16  and  O_17
REMARK    7  A    between atoms: O_17  and  C_18
REMARK                            x       y       z     vdW  Elec       q    Type
REMARK                         _______ _______ _______ _____ _____    ______ ____
ROOT
ATOM      1  N   UNL     1      -8.466   4.592 129.924  0.00  0.00    +0.000 N 
ATOM      2  C   UNL     1      -9.071   5.847 129.893  0.00  0.00    +0.000 A 
ATOM      3  C   UNL     1      -9.334   6.785 131.016  0.00  0.00    +0.000 C 
ATOM      4  N   UNL     1      -9.292   6.180 128.635  0.00  0.00    +0.000 NA
ATOM      5  N   UNL     1      -8.842   5.178 127.828  0.00  0.00    +0.000 NA
ATOM      6  C   UNL     1      -8.354   4.209 128.587  0.00  0.00    +0.000 A 
ENDROOT
BRANCH   1  10
ATOM      7  C   UNL     1      -7.209   2.188 133.106  0.00  0.00    +0.000 A 
ATOM      8  C   UNL     1      -6.298   3.066 132.541  0.00  0.00    +0.000 A 
ATOM      9  C   UNL     1      -6.715   3.889 131.487  0.00  0.00    +0.000 A 
ATOM     10  C   UNL     1      -8.038   3.824 131.040  0.00  0.00    +0.000 A 
ATOM     11  C   UNL     1      -8.870   2.885 131.630  0.00  0.00    +0.000 A 
ATOM     12  N   UNL     1      -8.475   2.067 132.644  0.00  0.00    +0.000 NA
BRANCH   7  14
ATOM     13  C   UNL     1      -6.167   0.146 133.660  0.00  0.00    +0.000 C 
ATOM     14  O   UNL     1      -6.873   1.306 134.101  0.00  0.00    +0.000 OA
ENDBRANCH   7  14
ENDBRANCH   1  10
BRANCH   6  15
ATOM     15  C   UNL     1      -7.907   2.907 128.102  0.00  0.00    +0.000 A 
ATOM     16  C   UNL     1      -6.556   2.593 127.962  0.00  0.00    +0.000 A 
ATOM     17  N   UNL     1      -6.114   1.422 127.437  0.00  0.00    +0.000 NA
ATOM     18  C   UNL     1      -7.071   0.516 127.134  0.00  0.00    +0.000 A 
ATOM     19  C   UNL     1      -8.422   0.813 127.298  0.00  0.00    +0.000 A 
ATOM     20  N   UNL     1      -8.869   2.014 127.761  0.00  0.00    +0.000 NA
BRANCH  18  21
ATOM     21  O   UNL     1      -6.736  -0.742 126.640  0.00  0.00    +0.000 OA
BRANCH  21  22
ATOM     22  C   UNL     1      -7.485  -1.821 127.068  0.00  0.00    +0.000 A 
ATOM     23  C   UNL     1      -7.209  -2.305 128.356  0.00  0.00    +0.000 A 
ATOM     24  C   UNL     1      -7.909  -3.405 128.865  0.00  0.00    +0.000 A 
ATOM     25  C   UNL     1      -8.883  -4.031 128.091  0.00  0.00    +0.000 A 
ATOM     26  C   UNL     1      -9.130  -3.583 126.792  0.00  0.00    +0.000 A 
ATOM     27  C   UNL     1      -8.411  -2.504 126.265  0.00  0.00    +0.000 A 
ATOM     28 CL   UNL     1      -8.665  -2.125 124.597  0.00  0.00    +0.000 Cl
ENDBRANCH  21  22
ENDBRANCH  18  21
ENDBRANCH   6  15
TORSDOF 5
ENDMDL
MODEL 8
REMARK VINA RESULT:      -7.2      3.447      8.165
REMARK  Name = CHEMBL562946
REMARK  7 active torsions:
REMARK  status: ('A' for Active; 'I' for Inactive)
REMARK    1  A    between atoms: C_1  and  O_2
REMARK    2  A    between atoms: O_2  and  C_3
REMARK    3  A    between atoms: C_6  and  N_7
REMARK    4  A    between atoms: C_8  and  C_9
REMARK    5  A    between atoms: C_12  and  C_13
REMARK    6  A    between atoms: C_16  and  O_17
REMARK    7  A    between atoms: O_17  and  C_18
REMARK                            x       y       z     vdW  Elec       q    Type
REMARK                         _______ _______ _______ _____ _____    ______ ____
ROOT
ATOM      1  N   UNL     1      -8.437   4.002 129.532  0.00  0.00    +0.000 N 
ATOM      2  C   UNL     1      -8.964   5.290 129.614  0.00  0.00    +0.000 A 
ATOM      3  C   UNL     1      -9.251   6.106 130.823  0.00  0.00    +0.000 C 
ATOM      4  N   UNL     1      -9.072   5.783 128.394  0.00  0.00    +0.000 NA
ATOM      5  N   UNL     1      -8.625   4.854 127.502  0.00  0.00    +0.000 NA
ATOM      6  C   UNL     1      -8.252   3.772 128.167  0.00  0.00    +0.000 A 
ENDROOT
BRANCH   1  10
ATOM      7  C   UNL     1      -7.532   1.432 132.702  0.00  0.00    +0.000 A 
ATOM      8  C   UNL     1      -8.840   1.484 132.247  0.00  0.00    +0.000 A 
ATOM      9  C   UNL     1      -9.149   2.329 131.173  0.00  0.00    +0.000 A 
ATOM     10  C   UNL     1      -8.137   3.082 130.571  0.00  0.00    +0.000 A 
ATOM     11  C   UNL     1      -6.866   3.004 131.119  0.00  0.00    +0.000 A 
ATOM     12  N   UNL     1      -6.553   2.202 132.173  0.00  0.00    +0.000 NA
BRANCH   7  14
ATOM     13  C   UNL     1      -5.839   0.125 133.697  0.00  0.00    +0.000 C 
ATOM     14  O   UNL     1      -7.151   0.679 133.784  0.00  0.00    +0.000 OA
ENDBRANCH   7  14
ENDBRANCH   1  10
BRANCH   6  15
ATOM     15  C   UNL     1      -7.848   2.508 127.558  0.00  0.00    +0.000 A 
ATOM     16  C   UNL     1      -8.711   1.417 127.477  0.00  0.00    +0.000 A 
ATOM     17  N   UNL     1      -8.335   0.206 126.992  0.00  0.00    +0.000 NA
ATOM     18  C   UNL     1      -7.080   0.136 126.494  0.00  0.00    +0.000 A 
ATOM     19  C   UNL     1      -6.222   1.231 126.547  0.00  0.00    +0.000 A 
ATOM     20  N   UNL     1      -6.575   2.428 127.096  0.00  0.00    +0.000 NA
BRANCH  18  21
ATOM     21  O   UNL     1      -6.601  -1.039 125.919  0.00  0.00    +0.000 OA
BRANCH  21  22
ATOM     22  C   UNL     1      -7.438  -1.720 125.057  0.00  0.00    +0.000 A 
ATOM     23  C   UNL     1      -7.516  -1.233 123.743  0.00  0.00    +0.000 A 
ATOM     24  C   UNL     1      -8.352  -1.851 122.805  0.00  0.00    +0.000 A 
ATOM     25  C   UNL     1      -9.115  -2.956 123.175  0.00  0.00    +0.000 A 
ATOM     26  C   UNL     1      -9.077  -3.417 124.491  0.00  0.00    +0.000 A 
ATOM     27  C   UNL     1      -8.268  -2.783 125.442  0.00  0.00    +0.000 A 
ATOM     28 CL   UNL     1      -8.409  -3.317 127.081  0.00  0.00    +0.000 Cl
ENDBRANCH  21  22
ENDBRANCH  18  21
ENDBRANCH   6  15
TORSDOF 5
ENDMDL
MODEL 9
REMARK VINA RESULT:      -7.0      5.624      7.652
REMARK  Name = CHEMBL562946
REMARK  7 active torsions:
REMARK  status: ('A' for Active; 'I' for Inactive)
REMARK    1  A    between atoms: C_1  and  O_2
REMARK    2  A    between atoms: O_2  and  C_3
REMARK    3  A    between atoms: C_6  and  N_7
REMARK    4  A    between atoms: C_8  and  C_9
REMARK    5  A    between atoms: C_12  and  C_13
REMARK    6  A    between atoms: C_16  and  O_17
REMARK    7  A    between atoms: O_17  and  C_18
REMARK                            x       y       z     vdW  Elec       q    Type
REMARK                         _______ _______ _______ _____ _____    ______ ____
ROOT
ATOM      1  N   UNL     1      -4.472   4.606 131.781  0.00  0.00    +0.000 N 
ATOM      2  C   UNL     1      -3.184   5.103 131.964  0.00  0.00    +0.000 A 
ATOM      3  C   UNL     1      -2.028   4.472 132.655  0.00  0.00    +0.000 C 
ATOM      4  N   UNL     1      -3.067   6.236 131.296  0.00  0.00    +0.000 NA
ATOM      5  N   UNL     1      -4.248   6.501 130.668  0.00  0.00    +0.000 NA
ATOM      6  C   UNL     1      -5.108   5.538 130.959  0.00  0.00    +0.000 A 
ENDROOT
BRANCH   1  10
ATOM      7  C   UNL     1      -6.370   1.187 133.261  0.00  0.00    +0.000 A 
ATOM      8  C   UNL     1      -5.737   1.111 132.031  0.00  0.00    +0.000 A 
ATOM      9  C   UNL     1      -5.082   2.246 131.535  0.00  0.00    +0.000 A 
ATOM     10  C   UNL     1      -5.063   3.420 132.293  0.00  0.00    +0.000 A 
ATOM     11  C   UNL     1      -5.760   3.422 133.492  0.00  0.00    +0.000 A 
ATOM     12  N   UNL     1      -6.416   2.333 133.979  0.00  0.00    +0.000 NA
BRANCH   7  14
ATOM     13  C   UNL     1      -6.761  -1.139 133.262  0.00  0.00    +0.000 C 
ATOM     14  O   UNL     1      -7.084   0.145 133.795  0.00  0.00    +0.000 OA
ENDBRANCH   7  14
ENDBRANCH   1  10
BRANCH   6  15
ATOM     15  C   UNL     1      -6.521   5.534 130.592  0.00  0.00    +0.000 A 
ATOM     16  C   UNL     1      -7.489   6.172 131.366  0.00  0.00    +0.000 A 
ATOM     17  N   UNL     1      -8.817   6.114 131.092  0.00  0.00    +0.000 NA
ATOM     18  C   UNL     1      -9.155   5.469 129.953  0.00  0.00    +0.000 A 
ATOM     19  C   UNL     1      -8.190   4.852 129.161  0.00  0.00    +0.000 A 
ATOM     20  N   UNL     1      -6.863   4.851 129.470  0.00  0.00    +0.000 NA
BRANCH  18  21
ATOM     21  O   UNL     1     -10.483   5.391 129.540  0.00  0.00    +0.000 OA
BRANCH  21  22
ATOM     22  C   UNL     1     -11.141   6.575 129.264  0.00  0.00    +0.000 A 
ATOM     23  C   UNL     1     -10.825   7.199 128.048  0.00  0.00    +0.000 A 
ATOM     24  C   UNL     1     -11.431   8.410 127.694  0.00  0.00    +0.000 A 
ATOM     25  C   UNL     1     -12.351   9.006 128.553  0.00  0.00    +0.000 A 
ATOM     26  C   UNL     1     -12.634   8.414 129.785  0.00  0.00    +0.000 A 
ATOM     27  C   UNL     1     -12.008   7.219 130.158  0.00  0.00    +0.000 A 
ATOM     28 CL   UNL     1     -12.293   6.647 131.765  0.00  0.00    +0.000 Cl
ENDBRANCH  21  22
ENDBRANCH  18  21
ENDBRANCH   6  15
TORSDOF 5
ENDMDL
