MODEL 1
REMARK VINA RESULT:     -10.6      0.000      0.000
REMARK  Name = CHEMBL69202
REMARK  11 active torsions:
REMARK  status: ('A' for Active; 'I' for Inactive)
REMARK    1  A    between atoms: C_1  and  C_2
REMARK    2  A    between atoms: C_2  and  C_3
REMARK    3  A    between atoms: C_3  and  C_4
REMARK    4  A    between atoms: C_5  and  C_6
REMARK    5  A    between atoms: C_6  and  N_7
REMARK    6  A    between atoms: C_10  and  O_11
REMARK    7  A    between atoms: O_11  and  C_12
REMARK    8  A    between atoms: C_15  and  C_16
REMARK    9  A    between atoms: C_21  and  N_22
REMARK   10  A    between atoms: C_35  and  O_36
REMARK   11  A    between atoms: O_36  and  C_37
REMARK                            x       y       z     vdW  Elec       q    Type
REMARK                         _______ _______ _______ _____ _____    ______ ____
ROOT
ATOM      1  C   UNL     1      -8.255  -1.754 127.139  0.00  0.00    +0.000 A 
ATOM      2  C   UNL     1      -8.305  -0.373 127.038  0.00  0.00    +0.000 A 
ATOM      3  C   UNL     1      -7.786   0.432 128.091  0.00  0.00    +0.000 A 
ATOM      4  C   UNL     1      -7.328  -0.131 129.313  0.00  0.00    +0.000 A 
ATOM      5  C   UNL     1      -7.299  -1.518 129.372  0.00  0.00    +0.000 A 
ATOM      6  C   UNL     1      -7.682  -2.276 128.279  0.00  0.00    +0.000 A 
ENDROOT
BRANCH   4   7
ATOM      7  C   UNL     1      -7.019   0.753 130.519  0.00  0.00    +0.000 C 
ATOM      8  O   UNL     1      -5.946   0.555 131.094  0.00  0.00    +0.000 OA
ATOM      9  N   UNL     1      -7.863   1.840 130.895  0.00  0.00    +0.000 N 
ATOM     10  C   UNL     1      -7.385   3.225 130.792  0.00  0.00    +0.000 C 
ATOM     11  C   UNL     1      -7.810   4.085 131.979  0.00  0.00    +0.000 C 
ATOM     12  C   UNL     1      -9.503   4.397 131.838  0.00  0.00    +0.000 C 
ATOM     13  C   UNL     1      -9.804   2.671 132.203  0.00  0.00    +0.000 C 
ATOM     14  C   UNL     1      -9.303   1.726 131.136  0.00  0.00    +0.000 C 
BRANCH  12  15
ATOM     15  N   UNL     1      -9.854   5.881 130.765  0.00  0.00    +0.000 N 
ATOM     16  C   UNL     1     -10.723   6.211 131.845  0.00  0.00    +0.000 C 
ATOM     17  O   UNL     1     -10.380   6.392 133.069  0.00  0.00    +0.000 OA
ATOM     18  O   UNL     1     -12.018   6.115 131.616  0.00  0.00    +0.000 OA
ATOM     19  C   UNL     1     -12.191   7.421 131.213  0.00  0.00    +0.000 C 
ATOM     20  C   UNL     1     -12.065   7.103 129.797  0.00  0.00    +0.000 A 
ATOM     21  C   UNL     1     -12.958   6.672 128.800  0.00  0.00    +0.000 A 
ATOM     22  C   UNL     1     -12.893   7.136 127.478  0.00  0.00    +0.000 A 
ATOM     23  C   UNL     1     -12.007   8.143 127.330  0.00  0.00    +0.000 A 
ATOM     24  C   UNL     1     -10.861   8.031 128.364  0.00  0.00    +0.000 A 
ATOM     25  C   UNL     1     -10.809   6.835 129.465  0.00  0.00    +0.000 A 
ENDBRANCH  12  15
ENDBRANCH   4   7
BRANCH   5  26
ATOM     26  O   UNL     1      -6.910  -2.138 130.500  0.00  0.00    +0.000 OA
ATOM     27  C   UNL     1      -6.101  -3.297 130.505  0.00  0.00    +0.000 C 
ENDBRANCH   5  26
BRANCH   1  28
ATOM     28  O   UNL     1      -8.566  -2.561 126.077  0.00  0.00    +0.000 OA
BRANCH  28  32
ATOM     29  N   UNL     1      -6.648  -0.910 123.527  0.00  0.00    +0.000 NA
ATOM     30  C   UNL     1      -6.171  -0.959 124.911  0.00  0.00    +0.000 C 
ATOM     31  C   UNL     1      -6.105  -2.394 125.402  0.00  0.00    +0.000 C 
ATOM     32  C   UNL     1      -7.469  -3.096 125.285  0.00  0.00    +0.000 C 
ATOM     33  C   UNL     1      -7.877  -3.056 123.796  0.00  0.00    +0.000 C 
ATOM     34  C   UNL     1      -7.891  -1.647 123.237  0.00  0.00    +0.000 C 
BRANCH  29  35
ATOM     35  C   UNL     1      -6.759   0.474 123.060  0.00  0.00    +0.000 C 
BRANCH  35  37
ATOM     36  C   UNL     1      -7.877   2.398 124.274  0.00  0.00    +0.000 A 
ATOM     37  C   UNL     1      -6.797   1.520 124.166  0.00  0.00    +0.000 A 
ATOM     38  C   UNL     1      -5.772   1.663 125.122  0.00  0.00    +0.000 A 
ATOM     39  C   UNL     1      -5.757   2.595 126.121  0.00  0.00    +0.000 A 
ATOM     40  C   UNL     1      -6.819   3.453 126.175  0.00  0.00    +0.000 A 
ATOM     41  N   UNL     1      -7.877   3.382 125.272  0.00  0.00    +0.000 N 
ATOM     42  O   UNL     1      -8.821   4.226 125.371  0.00  0.00    +0.000 OA
BRANCH  36  43
ATOM     43  C   UNL     1      -9.030   2.363 123.315  0.00  0.00    +0.000 C 
BRANCH  43  45
ATOM     44  C   UNL     1     -10.519   0.501 122.599  0.00  0.00    +0.000 C 
ATOM     45  C   UNL     1     -10.073   1.349 123.773  0.00  0.00    +0.000 C 
ENDBRANCH  43  45
ENDBRANCH  36  43
ENDBRANCH  35  37
ENDBRANCH  29  35
ENDBRANCH  28  32
ENDBRANCH   1  28
TORSDOF 9
ENDMDL
MODEL 2
REMARK VINA RESULT:     -10.2      4.153      5.960
REMARK  Name = CHEMBL69202
REMARK  11 active torsions:
REMARK  status: ('A' for Active; 'I' for Inactive)
REMARK    1  A    between atoms: C_1  and  C_2
REMARK    2  A    between atoms: C_2  and  C_3
REMARK    3  A    between atoms: C_3  and  C_4
REMARK    4  A    between atoms: C_5  and  C_6
REMARK    5  A    between atoms: C_6  and  N_7
REMARK    6  A    between atoms: C_10  and  O_11
REMARK    7  A    between atoms: O_11  and  C_12
REMARK    8  A    between atoms: C_15  and  C_16
REMARK    9  A    between atoms: C_21  and  N_22
REMARK   10  A    between atoms: C_35  and  O_36
REMARK   11  A    between atoms: O_36  and  C_37
REMARK                            x       y       z     vdW  Elec       q    Type
REMARK                         _______ _______ _______ _____ _____    ______ ____
ROOT
ATOM      1  C   UNL     1      -8.693  -1.905 126.309  0.00  0.00    +0.000 A 
ATOM      2  C   UNL     1      -9.080  -3.152 126.772  0.00  0.00    +0.000 A 
ATOM      3  C   UNL     1      -8.585  -3.628 128.019  0.00  0.00    +0.000 A 
ATOM      4  C   UNL     1      -7.597  -2.920 128.756  0.00  0.00    +0.000 A 
ATOM      5  C   UNL     1      -7.235  -1.677 128.253  0.00  0.00    +0.000 A 
ATOM      6  C   UNL     1      -7.837  -1.180 127.110  0.00  0.00    +0.000 A 
ENDROOT
BRANCH   4   7
ATOM      7  C   UNL     1      -6.894  -3.563 129.949  0.00  0.00    +0.000 C 
ATOM      8  O   UNL     1      -6.509  -4.727 129.806  0.00  0.00    +0.000 OA
ATOM      9  N   UNL     1      -6.581  -2.827 131.130  0.00  0.00    +0.000 N 
ATOM     10  C   UNL     1      -5.184  -2.562 131.494  0.00  0.00    +0.000 C 
ATOM     11  C   UNL     1      -4.927  -2.709 132.992  0.00  0.00    +0.000 C 
ATOM     12  C   UNL     1      -5.652  -1.363 133.795  0.00  0.00    +0.000 C 
ATOM     13  C   UNL     1      -7.257  -2.041 133.387  0.00  0.00    +0.000 C 
ATOM     14  C   UNL     1      -7.553  -2.054 131.906  0.00  0.00    +0.000 C 
BRANCH  12  15
ATOM     15  N   UNL     1      -4.516   0.115 133.847  0.00  0.00    +0.000 N 
ATOM     16  C   UNL     1      -5.526   0.614 134.721  0.00  0.00    +0.000 C 
ATOM     17  O   UNL     1      -5.908   0.081 135.825  0.00  0.00    +0.000 OA
ATOM     18  O   UNL     1      -6.282   1.589 134.258  0.00  0.00    +0.000 OA
ATOM     19  C   UNL     1      -5.503   2.619 134.740  0.00  0.00    +0.000 C 
ATOM     20  C   UNL     1      -4.777   2.784 133.487  0.00  0.00    +0.000 A 
ATOM     21  C   UNL     1      -5.007   3.505 132.302  0.00  0.00    +0.000 A 
ATOM     22  C   UNL     1      -3.977   4.149 131.600  0.00  0.00    +0.000 A 
ATOM     23  C   UNL     1      -2.808   4.135 132.275  0.00  0.00    +0.000 A 
ATOM     24  C   UNL     1      -2.712   2.893 133.192  0.00  0.00    +0.000 A 
ATOM     25  C   UNL     1      -3.911   1.798 133.288  0.00  0.00    +0.000 A 
ENDBRANCH  12  15
ENDBRANCH   4   7
BRANCH   5  26
ATOM     26  O   UNL     1      -6.285  -0.950 128.867  0.00  0.00    +0.000 OA
ATOM     27  C   UNL     1      -5.642   0.152 128.259  0.00  0.00    +0.000 C 
ENDBRANCH   5  26
BRANCH   1  28
ATOM     28  O   UNL     1      -9.287  -1.331 125.217  0.00  0.00    +0.000 OA
BRANCH  28  32
ATOM     29  N   UNL     1      -8.140   1.158 122.893  0.00  0.00    +0.000 NA
ATOM     30  C   UNL     1      -7.217   0.545 123.852  0.00  0.00    +0.000 C 
ATOM     31  C   UNL     1      -7.242  -0.967 123.724  0.00  0.00    +0.000 C 
ATOM     32  C   UNL     1      -8.661  -1.529 123.918  0.00  0.00    +0.000 C 
ATOM     33  C   UNL     1      -9.559  -0.883 122.840  0.00  0.00    +0.000 C 
ATOM     34  C   UNL     1      -9.515   0.631 122.880  0.00  0.00    +0.000 C 
BRANCH  29  35
ATOM     35  C   UNL     1      -8.156   2.615 123.041  0.00  0.00    +0.000 C 
BRANCH  35  37
ATOM     36  C   UNL     1      -6.052   3.904 122.461  0.00  0.00    +0.000 A 
ATOM     37  C   UNL     1      -7.275   3.369 122.054  0.00  0.00    +0.000 A 
ATOM     38  C   UNL     1      -7.631   3.566 120.705  0.00  0.00    +0.000 A 
ATOM     39  C   UNL     1      -6.880   4.246 119.788  0.00  0.00    +0.000 A 
ATOM     40  C   UNL     1      -5.704   4.779 120.235  0.00  0.00    +0.000 A 
ATOM     41  N   UNL     1      -5.273   4.630 121.550  0.00  0.00    +0.000 N 
ATOM     42  O   UNL     1      -4.177   5.170 121.899  0.00  0.00    +0.000 OA
BRANCH  36  43
ATOM     43  C   UNL     1      -5.558   3.777 123.872  0.00  0.00    +0.000 C 
BRANCH  43  45
ATOM     44  C   UNL     1      -6.441   4.482 126.089  0.00  0.00    +0.000 C 
ATOM     45  C   UNL     1      -6.033   4.958 124.710  0.00  0.00    +0.000 C 
ENDBRANCH  43  45
ENDBRANCH  36  43
ENDBRANCH  35  37
ENDBRANCH  29  35
ENDBRANCH  28  32
ENDBRANCH   1  28
TORSDOF 9
ENDMDL
MODEL 3
REMARK VINA RESULT:     -10.2      2.633      9.628
REMARK  Name = CHEMBL69202
REMARK  11 active torsions:
REMARK  status: ('A' for Active; 'I' for Inactive)
REMARK    1  A    between atoms: C_1  and  C_2
REMARK    2  A    between atoms: C_2  and  C_3
REMARK    3  A    between atoms: C_3  and  C_4
REMARK    4  A    between atoms: C_5  and  C_6
REMARK    5  A    between atoms: C_6  and  N_7
REMARK    6  A    between atoms: C_10  and  O_11
REMARK    7  A    between atoms: O_11  and  C_12
REMARK    8  A    between atoms: C_15  and  C_16
REMARK    9  A    between atoms: C_21  and  N_22
REMARK   10  A    between atoms: C_35  and  O_36
REMARK   11  A    between atoms: O_36  and  C_37
REMARK                            x       y       z     vdW  Elec       q    Type
REMARK                         _______ _______ _______ _____ _____    ______ ____
ROOT
ATOM      1  C   UNL     1      -5.069   3.998 130.458  0.00  0.00    +0.000 A 
ATOM      2  C   UNL     1      -6.412   3.949 130.124  0.00  0.00    +0.000 A 
ATOM      3  C   UNL     1      -6.803   3.990 128.756  0.00  0.00    +0.000 A 
ATOM      4  C   UNL     1      -5.863   4.212 127.712  0.00  0.00    +0.000 A 
ATOM      5  C   UNL     1      -4.529   4.260 128.093  0.00  0.00    +0.000 A 
ATOM      6  C   UNL     1      -4.169   4.077 129.417  0.00  0.00    +0.000 A 
ENDROOT
BRANCH   4   7
ATOM      7  C   UNL     1      -6.326   4.510 126.288  0.00  0.00    +0.000 C 
ATOM      8  O   UNL     1      -6.051   5.625 125.835  0.00  0.00    +0.000 OA
ATOM      9  N   UNL     1      -6.937   3.516 125.468  0.00  0.00    +0.000 N 
ATOM     10  C   UNL     1      -6.254   3.019 124.266  0.00  0.00    +0.000 C 
ATOM     11  C   UNL     1      -7.203   2.825 123.087  0.00  0.00    +0.000 C 
ATOM     12  C   UNL     1      -8.180   1.438 123.407  0.00  0.00    +0.000 C 
ATOM     13  C   UNL     1      -9.000   2.369 124.696  0.00  0.00    +0.000 C 
ATOM     14  C   UNL     1      -8.102   2.720 125.859  0.00  0.00    +0.000 C 
BRANCH  12  15
ATOM     15  N   UNL     1      -7.349  -0.142 122.869  0.00  0.00    +0.000 N 
ATOM     16  C   UNL     1      -8.600  -0.703 123.262  0.00  0.00    +0.000 C 
ATOM     17  O   UNL     1      -9.751  -0.407 122.777  0.00  0.00    +0.000 OA
ATOM     18  O   UNL     1      -8.604  -1.432 124.360  0.00  0.00    +0.000 OA
ATOM     19  C   UNL     1      -8.378  -2.639 123.734  0.00  0.00    +0.000 C 
ATOM     20  C   UNL     1      -6.938  -2.590 123.949  0.00  0.00    +0.000 A 
ATOM     21  C   UNL     1      -6.084  -2.968 125.000  0.00  0.00    +0.000 A 
ATOM     22  C   UNL     1      -4.827  -3.550 124.777  0.00  0.00    +0.000 A 
ATOM     23  C   UNL     1      -4.623  -3.850 123.477  0.00  0.00    +0.000 A 
ATOM     24  C   UNL     1      -5.410  -2.889 122.555  0.00  0.00    +0.000 A 
ATOM     25  C   UNL     1      -6.353  -1.705 123.150  0.00  0.00    +0.000 A 
ENDBRANCH  12  15
ENDBRANCH   4   7
BRANCH   5  26
ATOM     26  O   UNL     1      -3.573   4.497 127.177  0.00  0.00    +0.000 OA
ATOM     27  C   UNL     1      -2.780   3.476 126.606  0.00  0.00    +0.000 C 
ENDBRANCH   5  26
BRANCH   1  28
ATOM     28  O   UNL     1      -4.641   3.771 131.739  0.00  0.00    +0.000 OA
BRANCH  28  32
ATOM     29  N   UNL     1      -6.928   5.800 133.627  0.00  0.00    +0.000 NA
ATOM     30  C   UNL     1      -6.213   4.688 134.259  0.00  0.00    +0.000 C 
ATOM     31  C   UNL     1      -4.716   4.835 134.064  0.00  0.00    +0.000 C 
ATOM     32  C   UNL     1      -4.345   4.926 132.573  0.00  0.00    +0.000 C 
ATOM     33  C   UNL     1      -5.087   6.150 131.992  0.00  0.00    +0.000 C 
ATOM     34  C   UNL     1      -6.583   6.085 132.223  0.00  0.00    +0.000 C 
BRANCH  29  35
ATOM     35  C   UNL     1      -8.376   5.641 133.771  0.00  0.00    +0.000 C 
BRANCH  35  37
ATOM     36  C   UNL     1      -9.848   4.999 131.810  0.00  0.00    +0.000 A 
ATOM     37  C   UNL     1      -9.001   4.605 132.847  0.00  0.00    +0.000 A 
ATOM     38  C   UNL     1      -8.768   3.221 132.977  0.00  0.00    +0.000 A 
ATOM     39  C   UNL     1      -9.317   2.256 132.181  0.00  0.00    +0.000 A 
ATOM     40  C   UNL     1     -10.163   2.682 131.197  0.00  0.00    +0.000 A 
ATOM     41  N   UNL     1     -10.447   4.030 130.994  0.00  0.00    +0.000 N 
ATOM     42  O   UNL     1     -11.259   4.350 130.071  0.00  0.00    +0.000 OA
BRANCH  36  43
ATOM     43  C   UNL     1     -10.190   6.439 131.565  0.00  0.00    +0.000 C 
BRANCH  43  45
ATOM     44  C   UNL     1     -10.150   7.504 129.315  0.00  0.00    +0.000 C 
ATOM     45  C   UNL     1      -9.300   7.019 130.472  0.00  0.00    +0.000 C 
ENDBRANCH  43  45
ENDBRANCH  36  43
ENDBRANCH  35  37
ENDBRANCH  29  35
ENDBRANCH  28  32
ENDBRANCH   1  28
TORSDOF 9
ENDMDL
MODEL 4
REMARK VINA RESULT:     -10.1      3.585      8.720
REMARK  Name = CHEMBL69202
REMARK  11 active torsions:
REMARK  status: ('A' for Active; 'I' for Inactive)
REMARK    1  A    between atoms: C_1  and  C_2
REMARK    2  A    between atoms: C_2  and  C_3
REMARK    3  A    between atoms: C_3  and  C_4
REMARK    4  A    between atoms: C_5  and  C_6
REMARK    5  A    between atoms: C_6  and  N_7
REMARK    6  A    between atoms: C_10  and  O_11
REMARK    7  A    between atoms: O_11  and  C_12
REMARK    8  A    between atoms: C_15  and  C_16
REMARK    9  A    between atoms: C_21  and  N_22
REMARK   10  A    between atoms: C_35  and  O_36
REMARK   11  A    between atoms: O_36  and  C_37
REMARK                            x       y       z     vdW  Elec       q    Type
REMARK                         _______ _______ _______ _____ _____    ______ ____
ROOT
ATOM      1  C   UNL     1      -4.704   3.025 131.488  0.00  0.00    +0.000 A 
ATOM      2  C   UNL     1      -4.194   2.364 130.382  0.00  0.00    +0.000 A 
ATOM      3  C   UNL     1      -4.065   3.053 129.144  0.00  0.00    +0.000 A 
ATOM      4  C   UNL     1      -4.563   4.372 128.961  0.00  0.00    +0.000 A 
ATOM      5  C   UNL     1      -5.070   4.994 130.094  0.00  0.00    +0.000 A 
ATOM      6  C   UNL     1      -5.055   4.347 131.318  0.00  0.00    +0.000 A 
ENDROOT
BRANCH   4   7
ATOM      7  C   UNL     1      -4.650   4.994 127.570  0.00  0.00    +0.000 C 
ATOM      8  O   UNL     1      -3.879   5.926 127.328  0.00  0.00    +0.000 OA
ATOM      9  N   UNL     1      -5.487   4.453 126.550  0.00  0.00    +0.000 N 
ATOM     10  C   UNL     1      -4.901   3.848 125.347  0.00  0.00    +0.000 C 
ATOM     11  C   UNL     1      -5.663   4.209 124.075  0.00  0.00    +0.000 C 
ATOM     12  C   UNL     1      -7.159   3.346 124.081  0.00  0.00    +0.000 C 
ATOM     13  C   UNL     1      -7.702   4.390 125.429  0.00  0.00    +0.000 C 
ATOM     14  C   UNL     1      -6.920   4.193 126.706  0.00  0.00    +0.000 C 
BRANCH  12  15
ATOM     15  N   UNL     1      -6.980   1.632 123.369  0.00  0.00    +0.000 N 
ATOM     16  C   UNL     1      -8.402   1.719 123.315  0.00  0.00    +0.000 C 
ATOM     17  O   UNL     1      -9.086   2.594 122.672  0.00  0.00    +0.000 OA
ATOM     18  O   UNL     1      -9.075   0.970 124.166  0.00  0.00    +0.000 OA
ATOM     19  C   UNL     1      -9.214  -0.115 123.327  0.00  0.00    +0.000 C 
ATOM     20  C   UNL     1      -8.049  -0.804 123.867  0.00  0.00    +0.000 A 
ATOM     21  C   UNL     1      -7.831  -1.667 124.955  0.00  0.00    +0.000 A 
ATOM     22  C   UNL     1      -6.959  -2.763 124.885  0.00  0.00    +0.000 A 
ATOM     23  C   UNL     1      -6.504  -2.979 123.633  0.00  0.00    +0.000 A 
ATOM     24  C   UNL     1      -6.452  -1.659 122.827  0.00  0.00    +0.000 A 
ATOM     25  C   UNL     1      -6.916  -0.239 123.469  0.00  0.00    +0.000 A 
ENDBRANCH  12  15
ENDBRANCH   4   7
BRANCH   5  26
ATOM     26  O   UNL     1      -5.592   6.231 130.010  0.00  0.00    +0.000 OA
ATOM     27  C   UNL     1      -5.001   7.363 130.616  0.00  0.00    +0.000 C 
ENDBRANCH   5  26
BRANCH   1  28
ATOM     28  O   UNL     1      -4.668   2.464 132.737  0.00  0.00    +0.000 OA
BRANCH  28  32
ATOM     29  N   UNL     1      -7.052  -0.201 133.095  0.00  0.00    +0.000 NA
ATOM     30  C   UNL     1      -5.987  -0.009 134.083  0.00  0.00    +0.000 C 
ATOM     31  C   UNL     1      -6.019   1.405 134.633  0.00  0.00    +0.000 C 
ATOM     32  C   UNL     1      -5.899   2.453 133.513  0.00  0.00    +0.000 C 
ATOM     33  C   UNL     1      -7.083   2.225 132.546  0.00  0.00    +0.000 C 
ATOM     34  C   UNL     1      -7.137   0.804 132.021  0.00  0.00    +0.000 C 
BRANCH  29  35
ATOM     35  C   UNL     1      -6.999  -1.549 132.524  0.00  0.00    +0.000 C 
BRANCH  35  37
ATOM     36  C   UNL     1      -6.156  -1.947 130.167  0.00  0.00    +0.000 A 
ATOM     37  C   UNL     1      -5.874  -1.776 131.523  0.00  0.00    +0.000 A 
ATOM     38  C   UNL     1      -4.515  -1.825 131.894  0.00  0.00    +0.000 A 
ATOM     39  C   UNL     1      -3.476  -2.039 131.034  0.00  0.00    +0.000 A 
ATOM     40  C   UNL     1      -3.797  -2.231 129.720  0.00  0.00    +0.000 A 
ATOM     41  N   UNL     1      -5.113  -2.195 129.265  0.00  0.00    +0.000 N 
ATOM     42  O   UNL     1      -5.337  -2.402 128.031  0.00  0.00    +0.000 OA
BRANCH  36  43
ATOM     43  C   UNL     1      -7.560  -1.928 129.637  0.00  0.00    +0.000 C 
BRANCH  43  45
ATOM     44  C   UNL     1      -8.619  -3.649 128.182  0.00  0.00    +0.000 C 
ATOM     45  C   UNL     1      -8.126  -3.343 129.582  0.00  0.00    +0.000 C 
ENDBRANCH  43  45
ENDBRANCH  36  43
ENDBRANCH  35  37
ENDBRANCH  29  35
ENDBRANCH  28  32
ENDBRANCH   1  28
TORSDOF 9
ENDMDL
MODEL 5
REMARK VINA RESULT:      -9.9      4.164     11.041
REMARK  Name = CHEMBL69202
REMARK  11 active torsions:
REMARK  status: ('A' for Active; 'I' for Inactive)
REMARK    1  A    between atoms: C_1  and  C_2
REMARK    2  A    between atoms: C_2  and  C_3
REMARK    3  A    between atoms: C_3  and  C_4
REMARK    4  A    between atoms: C_5  and  C_6
REMARK    5  A    between atoms: C_6  and  N_7
REMARK    6  A    between atoms: C_10  and  O_11
REMARK    7  A    between atoms: O_11  and  C_12
REMARK    8  A    between atoms: C_15  and  C_16
REMARK    9  A    between atoms: C_21  and  N_22
REMARK   10  A    between atoms: C_35  and  O_36
REMARK   11  A    between atoms: O_36  and  C_37
REMARK                            x       y       z     vdW  Elec       q    Type
REMARK                         _______ _______ _______ _____ _____    ______ ____
ROOT
ATOM      1  C   UNL     1      -4.572   4.510 129.852  0.00  0.00    +0.000 A 
ATOM      2  C   UNL     1      -5.947   4.640 129.742  0.00  0.00    +0.000 A 
ATOM      3  C   UNL     1      -6.566   4.552 128.464  0.00  0.00    +0.000 A 
ATOM      4  C   UNL     1      -5.808   4.463 127.265  0.00  0.00    +0.000 A 
ATOM      5  C   UNL     1      -4.434   4.339 127.421  0.00  0.00    +0.000 A 
ATOM      6  C   UNL     1      -3.872   4.288 128.686  0.00  0.00    +0.000 A 
ENDROOT
BRANCH   4   7
ATOM      7  C   UNL     1      -6.471   4.630 125.901  0.00  0.00    +0.000 C 
ATOM      8  O   UNL     1      -6.366   5.735 125.362  0.00  0.00    +0.000 OA
ATOM      9  N   UNL     1      -7.078   3.536 125.216  0.00  0.00    +0.000 N 
ATOM     10  C   UNL     1      -6.505   3.031 123.962  0.00  0.00    +0.000 C 
ATOM     11  C   UNL     1      -7.569   2.679 122.926  0.00  0.00    +0.000 C 
ATOM     12  C   UNL     1      -8.358   1.231 123.438  0.00  0.00    +0.000 C 
ATOM     13  C   UNL     1      -9.098   2.160 124.775  0.00  0.00    +0.000 C 
ATOM     14  C   UNL     1      -8.102   2.662 125.793  0.00  0.00    +0.000 C 
BRANCH  12  15
ATOM     15  N   UNL     1      -7.448  -0.297 122.875  0.00  0.00    +0.000 N 
ATOM     16  C   UNL     1      -8.664  -0.928 123.269  0.00  0.00    +0.000 C 
ATOM     17  O   UNL     1      -9.833  -0.688 122.797  0.00  0.00    +0.000 OA
ATOM     18  O   UNL     1      -8.622  -1.669 124.358  0.00  0.00    +0.000 OA
ATOM     19  C   UNL     1      -8.337  -2.855 123.716  0.00  0.00    +0.000 C 
ATOM     20  C   UNL     1      -6.899  -2.732 123.921  0.00  0.00    +0.000 A 
ATOM     21  C   UNL     1      -6.019  -3.076 124.961  0.00  0.00    +0.000 A 
ATOM     22  C   UNL     1      -4.735  -3.589 124.722  0.00  0.00    +0.000 A 
ATOM     23  C   UNL     1      -4.525  -3.862 123.418  0.00  0.00    +0.000 A 
ATOM     24  C   UNL     1      -5.369  -2.933 122.513  0.00  0.00    +0.000 A 
ATOM     25  C   UNL     1      -6.369  -1.808 123.130  0.00  0.00    +0.000 A 
ENDBRANCH  12  15
ENDBRANCH   4   7
BRANCH   5  26
ATOM     26  O   UNL     1      -3.633   4.280 126.342  0.00  0.00    +0.000 OA
ATOM     27  C   UNL     1      -2.555   3.374 126.229  0.00  0.00    +0.000 C 
ENDBRANCH   5  26
BRANCH   1  28
ATOM     28  O   UNL     1      -3.958   4.397 131.071  0.00  0.00    +0.000 OA
BRANCH  28  32
ATOM     29  N   UNL     1      -3.381   5.945 134.262  0.00  0.00    +0.000 NA
ATOM     30  C   UNL     1      -2.612   4.768 133.848  0.00  0.00    +0.000 C 
ATOM     31  C   UNL     1      -1.937   5.015 132.512  0.00  0.00    +0.000 C 
ATOM     32  C   UNL     1      -2.957   5.392 131.423  0.00  0.00    +0.000 C 
ATOM     33  C   UNL     1      -3.684   6.668 131.902  0.00  0.00    +0.000 C 
ATOM     34  C   UNL     1      -4.318   6.496 133.267  0.00  0.00    +0.000 C 
BRANCH  29  35
ATOM     35  C   UNL     1      -4.073   5.699 135.528  0.00  0.00    +0.000 C 
BRANCH  35  37
ATOM     36  C   UNL     1      -5.877   6.956 136.789  0.00  0.00    +0.000 A 
ATOM     37  C   UNL     1      -4.602   6.948 136.222  0.00  0.00    +0.000 A 
ATOM     38  C   UNL     1      -3.856   8.138 136.331  0.00  0.00    +0.000 A 
ATOM     39  C   UNL     1      -4.294   9.285 136.931  0.00  0.00    +0.000 A 
ATOM     40  C   UNL     1      -5.559   9.261 137.448  0.00  0.00    +0.000 A 
ATOM     41  N   UNL     1      -6.364   8.127 137.387  0.00  0.00    +0.000 N 
ATOM     42  O   UNL     1      -7.538   8.185 137.872  0.00  0.00    +0.000 OA
BRANCH  36  43
ATOM     43  C   UNL     1      -6.782   5.761 136.735  0.00  0.00    +0.000 C 
BRANCH  43  45
ATOM     44  C   UNL     1      -7.525   4.446 134.756  0.00  0.00    +0.000 C 
ATOM     45  C   UNL     1      -7.618   5.784 135.459  0.00  0.00    +0.000 C 
ENDBRANCH  43  45
ENDBRANCH  36  43
ENDBRANCH  35  37
ENDBRANCH  29  35
ENDBRANCH  28  32
ENDBRANCH   1  28
TORSDOF 9
ENDMDL
MODEL 6
REMARK VINA RESULT:      -9.9      2.745      9.274
REMARK  Name = CHEMBL69202
REMARK  11 active torsions:
REMARK  status: ('A' for Active; 'I' for Inactive)
REMARK    1  A    between atoms: C_1  and  C_2
REMARK    2  A    between atoms: C_2  and  C_3
REMARK    3  A    between atoms: C_3  and  C_4
REMARK    4  A    between atoms: C_5  and  C_6
REMARK    5  A    between atoms: C_6  and  N_7
REMARK    6  A    between atoms: C_10  and  O_11
REMARK    7  A    between atoms: O_11  and  C_12
REMARK    8  A    between atoms: C_15  and  C_16
REMARK    9  A    between atoms: C_21  and  N_22
REMARK   10  A    between atoms: C_35  and  O_36
REMARK   11  A    between atoms: O_36  and  C_37
REMARK                            x       y       z     vdW  Elec       q    Type
REMARK                         _______ _______ _______ _____ _____    ______ ____
ROOT
ATOM      1  C   UNL     1      -5.775   3.125 130.550  0.00  0.00    +0.000 A 
ATOM      2  C   UNL     1      -4.889   2.749 129.553  0.00  0.00    +0.000 A 
ATOM      3  C   UNL     1      -5.039   3.273 128.239  0.00  0.00    +0.000 A 
ATOM      4  C   UNL     1      -6.152   4.079 127.873  0.00  0.00    +0.000 A 
ATOM      5  C   UNL     1      -7.016   4.428 128.902  0.00  0.00    +0.000 A 
ATOM      6  C   UNL     1      -6.767   4.015 130.200  0.00  0.00    +0.000 A 
ENDROOT
BRANCH   4   7
ATOM      7  C   UNL     1      -6.431   4.416 126.410  0.00  0.00    +0.000 C 
ATOM      8  O   UNL     1      -6.039   5.514 126.007  0.00  0.00    +0.000 OA
ATOM      9  N   UNL     1      -7.004   3.467 125.512  0.00  0.00    +0.000 N 
ATOM     10  C   UNL     1      -6.222   2.937 124.389  0.00  0.00    +0.000 C 
ATOM     11  C   UNL     1      -7.041   2.810 123.107  0.00  0.00    +0.000 C 
ATOM     12  C   UNL     1      -8.131   1.485 123.295  0.00  0.00    +0.000 C 
ATOM     13  C   UNL     1      -9.033   2.456 124.497  0.00  0.00    +0.000 C 
ATOM     14  C   UNL     1      -8.253   2.742 125.758  0.00  0.00    +0.000 C 
BRANCH  12  15
ATOM     15  N   UNL     1      -7.342  -0.140 122.833  0.00  0.00    +0.000 N 
ATOM     16  C   UNL     1      -8.595  -0.652 123.280  0.00  0.00    +0.000 C 
ATOM     17  O   UNL     1      -9.750  -0.360 122.802  0.00  0.00    +0.000 OA
ATOM     18  O   UNL     1      -8.592  -1.318 124.418  0.00  0.00    +0.000 OA
ATOM     19  C   UNL     1      -8.402  -2.562 123.858  0.00  0.00    +0.000 C 
ATOM     20  C   UNL     1      -6.957  -2.531 124.041  0.00  0.00    +0.000 A 
ATOM     21  C   UNL     1      -6.090  -2.867 125.095  0.00  0.00    +0.000 A 
ATOM     22  C   UNL     1      -4.850  -3.487 124.882  0.00  0.00    +0.000 A 
ATOM     23  C   UNL     1      -4.678  -3.864 123.598  0.00  0.00    +0.000 A 
ATOM     24  C   UNL     1      -5.465  -2.940 122.638  0.00  0.00    +0.000 A 
ATOM     25  C   UNL     1      -6.372  -1.705 123.183  0.00  0.00    +0.000 A 
ENDBRANCH  12  15
ENDBRANCH   4   7
BRANCH   5  26
ATOM     26  O   UNL     1      -8.113   5.162 128.643  0.00  0.00    +0.000 OA
ATOM     27  C   UNL     1      -9.171   5.323 129.567  0.00  0.00    +0.000 C 
ENDBRANCH   5  26
BRANCH   1  28
ATOM     28  O   UNL     1      -5.558   2.798 131.862  0.00  0.00    +0.000 OA
BRANCH  28  32
ATOM     29  N   UNL     1      -6.968  -0.122 133.411  0.00  0.00    +0.000 NA
ATOM     30  C   UNL     1      -6.010   0.720 134.130  0.00  0.00    +0.000 C 
ATOM     31  C   UNL     1      -6.483   2.162 134.160  0.00  0.00    +0.000 C 
ATOM     32  C   UNL     1      -6.714   2.713 132.742  0.00  0.00    +0.000 C 
ATOM     33  C   UNL     1      -7.773   1.812 132.070  0.00  0.00    +0.000 C 
ATOM     34  C   UNL     1      -7.380   0.349 132.076  0.00  0.00    +0.000 C 
BRANCH  29  35
ATOM     35  C   UNL     1      -6.497  -1.506 133.336  0.00  0.00    +0.000 C 
BRANCH  35  37
ATOM     36  C   UNL     1      -5.650  -2.613 131.219  0.00  0.00    +0.000 A 
ATOM     37  C   UNL     1      -5.413  -1.758 132.296  0.00  0.00    +0.000 A 
ATOM     38  C   UNL     1      -4.139  -1.158 132.356  0.00  0.00    +0.000 A 
ATOM     39  C   UNL     1      -3.133  -1.365 131.455  0.00  0.00    +0.000 A 
ATOM     40  C   UNL     1      -3.396  -2.231 130.432  0.00  0.00    +0.000 A 
ATOM     41  N   UNL     1      -4.628  -2.865 130.293  0.00  0.00    +0.000 N 
ATOM     42  O   UNL     1      -4.793  -3.673 129.327  0.00  0.00    +0.000 OA
BRANCH  36  43
ATOM     43  C   UNL     1      -6.958  -3.325 131.040  0.00  0.00    +0.000 C 
BRANCH  43  45
ATOM     44  C   UNL     1      -8.164  -3.396 128.863  0.00  0.00    +0.000 C 
ATOM     45  C   UNL     1      -7.859  -2.551 130.084  0.00  0.00    +0.000 C 
ENDBRANCH  43  45
ENDBRANCH  36  43
ENDBRANCH  35  37
ENDBRANCH  29  35
ENDBRANCH  28  32
ENDBRANCH   1  28
TORSDOF 9
ENDMDL
MODEL 7
REMARK VINA RESULT:      -9.9      5.707     11.498
REMARK  Name = CHEMBL69202
REMARK  11 active torsions:
REMARK  status: ('A' for Active; 'I' for Inactive)
REMARK    1  A    between atoms: C_1  and  C_2
REMARK    2  A    between atoms: C_2  and  C_3
REMARK    3  A    between atoms: C_3  and  C_4
REMARK    4  A    between atoms: C_5  and  C_6
REMARK    5  A    between atoms: C_6  and  N_7
REMARK    6  A    between atoms: C_10  and  O_11
REMARK    7  A    between atoms: O_11  and  C_12
REMARK    8  A    between atoms: C_15  and  C_16
REMARK    9  A    between atoms: C_21  and  N_22
REMARK   10  A    between atoms: C_35  and  O_36
REMARK   11  A    between atoms: O_36  and  C_37
REMARK                            x       y       z     vdW  Elec       q    Type
REMARK                         _______ _______ _______ _____ _____    ______ ____
ROOT
ATOM      1  C   UNL     1      -4.524   4.518 129.906  0.00  0.00    +0.000 A 
ATOM      2  C   UNL     1      -5.894   4.691 129.806  0.00  0.00    +0.000 A 
ATOM      3  C   UNL     1      -6.528   4.597 128.535  0.00  0.00    +0.000 A 
ATOM      4  C   UNL     1      -5.784   4.456 127.332  0.00  0.00    +0.000 A 
ATOM      5  C   UNL     1      -4.413   4.290 127.479  0.00  0.00    +0.000 A 
ATOM      6  C   UNL     1      -3.842   4.248 128.739  0.00  0.00    +0.000 A 
ENDROOT
BRANCH   4   7
ATOM      7  C   UNL     1      -6.454   4.615 125.970  0.00  0.00    +0.000 C 
ATOM      8  O   UNL     1      -6.364   5.722 125.431  0.00  0.00    +0.000 OA
ATOM      9  N   UNL     1      -7.050   3.514 125.287  0.00  0.00    +0.000 N 
ATOM     10  C   UNL     1      -6.474   3.016 124.031  0.00  0.00    +0.000 C 
ATOM     11  C   UNL     1      -7.538   2.652 122.998  0.00  0.00    +0.000 C 
ATOM     12  C   UNL     1      -8.307   1.193 123.512  0.00  0.00    +0.000 C 
ATOM     13  C   UNL     1      -9.054   2.114 124.853  0.00  0.00    +0.000 C 
ATOM     14  C   UNL     1      -8.060   2.627 125.867  0.00  0.00    +0.000 C 
BRANCH  12  15
ATOM     15  N   UNL     1      -7.381  -0.323 122.946  0.00  0.00    +0.000 N 
ATOM     16  C   UNL     1      -8.616  -0.957 123.267  0.00  0.00    +0.000 C 
ATOM     17  O   UNL     1      -9.762  -0.696 122.750  0.00  0.00    +0.000 OA
ATOM     18  O   UNL     1      -8.626  -1.730 124.335  0.00  0.00    +0.000 OA
ATOM     19  C   UNL     1      -8.319  -2.898 123.672  0.00  0.00    +0.000 C 
ATOM     20  C   UNL     1      -6.891  -2.790 123.943  0.00  0.00    +0.000 A 
ATOM     21  C   UNL     1      -6.060  -3.171 125.011  0.00  0.00    +0.000 A 
ATOM     22  C   UNL     1      -4.769  -3.684 124.815  0.00  0.00    +0.000 A 
ATOM     23  C   UNL     1      -4.502  -3.920 123.513  0.00  0.00    +0.000 A 
ATOM     24  C   UNL     1      -5.301  -2.960 122.600  0.00  0.00    +0.000 A 
ATOM     25  C   UNL     1      -6.321  -1.847 123.204  0.00  0.00    +0.000 A 
ENDBRANCH  12  15
ENDBRANCH   4   7
BRANCH   5  26
ATOM     26  O   UNL     1      -3.625   4.181 126.394  0.00  0.00    +0.000 OA
ATOM     27  C   UNL     1      -2.500   3.327 126.339  0.00  0.00    +0.000 C 
ENDBRANCH   5  26
BRANCH   1  28
ATOM     28  O   UNL     1      -3.902   4.411 131.122  0.00  0.00    +0.000 OA
BRANCH  28  32
ATOM     29  N   UNL     1      -2.163   6.983 132.931  0.00  0.00    +0.000 NA
ATOM     30  C   UNL     1      -2.331   5.645 133.505  0.00  0.00    +0.000 C 
ATOM     31  C   UNL     1      -1.793   4.587 132.559  0.00  0.00    +0.000 C 
ATOM     32  C   UNL     1      -2.470   4.663 131.179  0.00  0.00    +0.000 C 
ATOM     33  C   UNL     1      -2.201   6.076 130.616  0.00  0.00    +0.000 C 
ATOM     34  C   UNL     1      -2.658   7.172 131.557  0.00  0.00    +0.000 C 
BRANCH  29  35
ATOM     35  C   UNL     1      -2.722   8.006 133.817  0.00  0.00    +0.000 C 
BRANCH  35  37
ATOM     36  C   UNL     1      -0.863   9.434 134.782  0.00  0.00    +0.000 A 
ATOM     37  C   UNL     1      -1.923   9.301 133.883  0.00  0.00    +0.000 A 
ATOM     38  C   UNL     1      -2.196  10.413 133.062  0.00  0.00    +0.000 A 
ATOM     39  C   UNL     1      -1.515  11.597 133.097  0.00  0.00    +0.000 A 
ATOM     40  C   UNL     1      -0.505  11.697 134.010  0.00  0.00    +0.000 A 
ATOM     41  N   UNL     1      -0.164  10.647 134.858  0.00  0.00    +0.000 N 
ATOM     42  O   UNL     1       0.775  10.819 135.697  0.00  0.00    +0.000 OA
BRANCH  36  43
ATOM     43  C   UNL     1      -0.472   8.332 135.722  0.00  0.00    +0.000 C 
BRANCH  43  45
ATOM     44  C   UNL     1       1.631   7.123 136.280  0.00  0.00    +0.000 C 
ATOM     45  C   UNL     1       0.704   7.544 135.157  0.00  0.00    +0.000 C 
ENDBRANCH  43  45
ENDBRANCH  36  43
ENDBRANCH  35  37
ENDBRANCH  29  35
ENDBRANCH  28  32
ENDBRANCH   1  28
TORSDOF 9
ENDMDL
MODEL 8
REMARK VINA RESULT:      -9.8      3.650      9.188
REMARK  Name = CHEMBL69202
REMARK  11 active torsions:
REMARK  status: ('A' for Active; 'I' for Inactive)
REMARK    1  A    between atoms: C_1  and  C_2
REMARK    2  A    between atoms: C_2  and  C_3
REMARK    3  A    between atoms: C_3  and  C_4
REMARK    4  A    between atoms: C_5  and  C_6
REMARK    5  A    between atoms: C_6  and  N_7
REMARK    6  A    between atoms: C_10  and  O_11
REMARK    7  A    between atoms: O_11  and  C_12
REMARK    8  A    between atoms: C_15  and  C_16
REMARK    9  A    between atoms: C_21  and  N_22
REMARK   10  A    between atoms: C_35  and  O_36
REMARK   11  A    between atoms: O_36  and  C_37
REMARK                            x       y       z     vdW  Elec       q    Type
REMARK                         _______ _______ _______ _____ _____    ______ ____
ROOT
ATOM      1  C   UNL     1      -4.730   2.857 131.515  0.00  0.00    +0.000 A 
ATOM      2  C   UNL     1      -4.129   2.233 130.434  0.00  0.00    +0.000 A 
ATOM      3  C   UNL     1      -3.962   2.942 129.211  0.00  0.00    +0.000 A 
ATOM      4  C   UNL     1      -4.509   4.239 129.012  0.00  0.00    +0.000 A 
ATOM      5  C   UNL     1      -5.106   4.825 130.120  0.00  0.00    +0.000 A 
ATOM      6  C   UNL     1      -5.130   4.164 131.337  0.00  0.00    +0.000 A 
ENDROOT
BRANCH   4   7
ATOM      7  C   UNL     1      -4.545   4.873 127.624  0.00  0.00    +0.000 C 
ATOM      8  O   UNL     1      -3.688   5.726 127.379  0.00  0.00    +0.000 OA
ATOM      9  N   UNL     1      -5.440   4.421 126.610  0.00  0.00    +0.000 N 
ATOM     10  C   UNL     1      -4.927   3.767 125.400  0.00  0.00    +0.000 C 
ATOM     11  C   UNL     1      -5.660   4.207 124.135  0.00  0.00    +0.000 C 
ATOM     12  C   UNL     1      -7.233   3.495 124.151  0.00  0.00    +0.000 C 
ATOM     13  C   UNL     1      -7.660   4.582 125.507  0.00  0.00    +0.000 C 
ATOM     14  C   UNL     1      -6.890   4.303 126.777  0.00  0.00    +0.000 C 
BRANCH  12  15
ATOM     15  N   UNL     1      -7.230   1.775 123.431  0.00  0.00    +0.000 N 
ATOM     16  C   UNL     1      -8.580   2.114 123.122  0.00  0.00    +0.000 C 
ATOM     17  O   UNL     1      -8.969   3.096 122.393  0.00  0.00    +0.000 OA
ATOM     18  O   UNL     1      -9.519   1.499 123.813  0.00  0.00    +0.000 OA
ATOM     19  C   UNL     1      -9.689   0.455 122.930  0.00  0.00    +0.000 C 
ATOM     20  C   UNL     1      -8.783  -0.430 123.652  0.00  0.00    +0.000 A 
ATOM     21  C   UNL     1      -8.925  -1.315 124.735  0.00  0.00    +0.000 A 
ATOM     22  C   UNL     1      -8.261  -2.549 124.791  0.00  0.00    +0.000 A 
ATOM     23  C   UNL     1      -7.628  -2.845 123.636  0.00  0.00    +0.000 A 
ATOM     24  C   UNL     1      -7.197  -1.558 122.893  0.00  0.00    +0.000 A 
ATOM     25  C   UNL     1      -7.515  -0.077 123.484  0.00  0.00    +0.000 A 
ENDBRANCH  12  15
ENDBRANCH   4   7
BRANCH   5  26
ATOM     26  O   UNL     1      -5.678   6.038 130.018  0.00  0.00    +0.000 OA
ATOM     27  C   UNL     1      -5.925   6.872 131.132  0.00  0.00    +0.000 C 
ENDBRANCH   5  26
BRANCH   1  28
ATOM     28  O   UNL     1      -4.740   2.284 132.759  0.00  0.00    +0.000 OA
BRANCH  28  32
ATOM     29  N   UNL     1      -6.644  -0.495 134.008  0.00  0.00    +0.000 NA
ATOM     30  C   UNL     1      -5.676   0.197 134.863  0.00  0.00    +0.000 C 
ATOM     31  C   UNL     1      -5.976   1.683 134.915  0.00  0.00    +0.000 C 
ATOM     32  C   UNL     1      -5.986   2.309 133.510  0.00  0.00    +0.000 C 
ATOM     33  C   UNL     1      -7.065   1.571 132.688  0.00  0.00    +0.000 C 
ATOM     34  C   UNL     1      -6.850   0.071 132.663  0.00  0.00    +0.000 C 
BRANCH  29  35
ATOM     35  C   UNL     1      -6.334  -1.923 133.915  0.00  0.00    +0.000 C 
BRANCH  35  37
ATOM     36  C   UNL     1      -5.051  -2.720 131.879  0.00  0.00    +0.000 A 
ATOM     37  C   UNL     1      -6.279  -2.474 132.496  0.00  0.00    +0.000 A 
ATOM     38  C   UNL     1      -7.433  -2.764 131.741  0.00  0.00    +0.000 A 
ATOM     39  C   UNL     1      -7.431  -3.246 130.463  0.00  0.00    +0.000 A 
ATOM     40  C   UNL     1      -6.210  -3.445 129.884  0.00  0.00    +0.000 A 
ATOM     41  N   UNL     1      -5.019  -3.189 130.558  0.00  0.00    +0.000 N 
ATOM     42  O   UNL     1      -3.920  -3.379 129.949  0.00  0.00    +0.000 OA
BRANCH  36  43
ATOM     43  C   UNL     1      -3.746  -2.445 132.564  0.00  0.00    +0.000 C 
BRANCH  43  45
ATOM     44  C   UNL     1      -2.529  -0.479 133.486  0.00  0.00    +0.000 C 
ATOM     45  C   UNL     1      -3.293  -1.015 132.293  0.00  0.00    +0.000 C 
ENDBRANCH  43  45
ENDBRANCH  36  43
ENDBRANCH  35  37
ENDBRANCH  29  35
ENDBRANCH  28  32
ENDBRANCH   1  28
TORSDOF 9
ENDMDL
MODEL 9
REMARK VINA RESULT:      -9.8      2.318      8.935
REMARK  Name = CHEMBL69202
REMARK  11 active torsions:
REMARK  status: ('A' for Active; 'I' for Inactive)
REMARK    1  A    between atoms: C_1  and  C_2
REMARK    2  A    between atoms: C_2  and  C_3
REMARK    3  A    between atoms: C_3  and  C_4
REMARK    4  A    between atoms: C_5  and  C_6
REMARK    5  A    between atoms: C_6  and  N_7
REMARK    6  A    between atoms: C_10  and  O_11
REMARK    7  A    between atoms: O_11  and  C_12
REMARK    8  A    between atoms: C_15  and  C_16
REMARK    9  A    between atoms: C_21  and  N_22
REMARK   10  A    between atoms: C_35  and  O_36
REMARK   11  A    between atoms: O_36  and  C_37
REMARK                            x       y       z     vdW  Elec       q    Type
REMARK                         _______ _______ _______ _____ _____    ______ ____
ROOT
ATOM      1  C   UNL     1      -8.723   2.325 132.585  0.00  0.00    +0.000 A 
ATOM      2  C   UNL     1      -9.653   1.491 131.987  0.00  0.00    +0.000 A 
ATOM      3  C   UNL     1      -9.301   0.147 131.676  0.00  0.00    +0.000 A 
ATOM      4  C   UNL     1      -7.976  -0.341 131.841  0.00  0.00    +0.000 A 
ATOM      5  C   UNL     1      -7.076   0.530 132.440  0.00  0.00    +0.000 A 
ATOM      6  C   UNL     1      -7.485   1.786 132.858  0.00  0.00    +0.000 A 
ENDROOT
BRANCH   4   7
ATOM      7  C   UNL     1      -7.558  -1.692 131.266  0.00  0.00    +0.000 C 
ATOM      8  O   UNL     1      -7.658  -2.669 132.012  0.00  0.00    +0.000 OA
ATOM      9  N   UNL     1      -7.187  -1.849 129.898  0.00  0.00    +0.000 N 
ATOM     10  C   UNL     1      -8.022  -2.642 128.986  0.00  0.00    +0.000 C 
ATOM     11  C   UNL     1      -7.199  -3.509 128.037  0.00  0.00    +0.000 C 
ATOM     12  C   UNL     1      -6.466  -2.476 126.864  0.00  0.00    +0.000 C 
ATOM     13  C   UNL     1      -5.414  -1.829 128.159  0.00  0.00    +0.000 C 
ATOM     14  C   UNL     1      -6.160  -1.055 129.221  0.00  0.00    +0.000 C 
BRANCH  12  15
ATOM     15  N   UNL     1      -7.598  -2.144 125.420  0.00  0.00    +0.000 N 
ATOM     16  C   UNL     1      -6.368  -2.184 124.699  0.00  0.00    +0.000 C 
ATOM     17  O   UNL     1      -5.554  -3.174 124.640  0.00  0.00    +0.000 OA
ATOM     18  O   UNL     1      -5.921  -1.038 124.225  0.00  0.00    +0.000 OA
ATOM     19  C   UNL     1      -6.526  -1.144 122.992  0.00  0.00    +0.000 C 
ATOM     20  C   UNL     1      -7.688  -0.359 123.388  0.00  0.00    +0.000 A 
ATOM     21  C   UNL     1      -7.984   1.015 123.421  0.00  0.00    +0.000 A 
ATOM     22  C   UNL     1      -9.248   1.522 123.085  0.00  0.00    +0.000 A 
ATOM     23  C   UNL     1     -10.063   0.574 122.576  0.00  0.00    +0.000 A 
ATOM     24  C   UNL     1      -9.709  -0.822 123.140  0.00  0.00    +0.000 A 
ATOM     25  C   UNL     1      -8.491  -1.042 124.194  0.00  0.00    +0.000 A 
ENDBRANCH  12  15
ENDBRANCH   4   7
BRANCH   5  26
ATOM     26  O   UNL     1      -5.792   0.166 132.608  0.00  0.00    +0.000 OA
ATOM     27  C   UNL     1      -4.740   1.095 132.777  0.00  0.00    +0.000 C 
ENDBRANCH   5  26
BRANCH   1  28
ATOM     28  O   UNL     1      -9.074   3.557 133.071  0.00  0.00    +0.000 OA
BRANCH  28  32
ATOM     29  N   UNL     1     -10.733   6.082 131.126  0.00  0.00    +0.000 NA
ATOM     30  C   UNL     1     -10.492   6.275 132.558  0.00  0.00    +0.000 C 
ATOM     31  C   UNL     1      -9.019   6.107 132.879  0.00  0.00    +0.000 C 
ATOM     32  C   UNL     1      -8.495   4.730 132.434  0.00  0.00    +0.000 C 
ATOM     33  C   UNL     1      -8.729   4.624 130.911  0.00  0.00    +0.000 C 
ATOM     34  C   UNL     1     -10.178   4.854 130.529  0.00  0.00    +0.000 C 
BRANCH  29  35
ATOM     35  C   UNL     1     -12.159   6.196 130.814  0.00  0.00    +0.000 C 
BRANCH  35  37
ATOM     36  C   UNL     1     -12.981   7.987 129.220  0.00  0.00    +0.000 A 
ATOM     37  C   UNL     1     -12.638   7.612 130.520  0.00  0.00    +0.000 A 
ATOM     38  C   UNL     1     -12.761   8.602 131.514  0.00  0.00    +0.000 A 
ATOM     39  C   UNL     1     -13.173   9.886 131.294  0.00  0.00    +0.000 A 
ATOM     40  C   UNL     1     -13.472  10.221 130.004  0.00  0.00    +0.000 A 
ATOM     41  N   UNL     1     -13.381   9.305 128.959  0.00  0.00    +0.000 N 
ATOM     42  O   UNL     1     -13.656   9.693 127.781  0.00  0.00    +0.000 OA
BRANCH  36  43
ATOM     43  C   UNL     1     -12.886   7.035 128.064  0.00  0.00    +0.000 C 
BRANCH  43  45
ATOM     44  C   UNL     1     -11.122   7.849 126.508  0.00  0.00    +0.000 C 
ATOM     45  C   UNL     1     -11.434   6.876 127.626  0.00  0.00    +0.000 C 
ENDBRANCH  43  45
ENDBRANCH  36  43
ENDBRANCH  35  37
ENDBRANCH  29  35
ENDBRANCH  28  32
ENDBRANCH   1  28
TORSDOF 9
ENDMDL
