MODEL 1
REMARK VINA RESULT:      -9.2      0.000      0.000
REMARK  Name = CHEMBL271039
REMARK  9 active torsions:
REMARK  status: ('A' for Active; 'I' for Inactive)
REMARK    1  A    between atoms: C_1  and  C_2
REMARK    2  A    between atoms: C_4  and  C_5
REMARK    3  A    between atoms: C_5  and  C_6
REMARK    4  A    between atoms: C_5  and  N_14
REMARK    5  A    between atoms: C_17  and  C_18
REMARK    6  A    between atoms: CA_30  and  CB_31
REMARK    7  A    between atoms: CB_31  and  CG_32
REMARK    8  A    between atoms: CG_32  and  CD1_33
REMARK    9  A    between atoms: CG_32  and  CD2_34
REMARK                            x       y       z     vdW  Elec       q    Type
REMARK                         _______ _______ _______ _____ _____    ______ ____
ROOT
ATOM      1  N   LEU A   1      -7.486   0.559 127.829  0.00  0.00    +0.000 N 
ATOM      2  C   UNK A   2      -7.154   1.489 126.846  0.00  0.00    +0.000 C 
ATOM      3  O   UNK A   2      -6.305   2.355 127.046  0.00  0.00    +0.000 OA
ATOM      4  C   UNK A   2      -8.105   1.469 125.600  0.00  0.00    +0.000 C 
ATOM      5  N   UNK A   2      -7.895   0.188 125.018  0.00  0.00    +0.000 N 
ATOM      6  C   LEU A   1      -8.170  -0.893 125.773  0.00  0.00    +0.000 C 
ATOM      7  O   LEU A   1      -8.341  -1.971 125.182  0.00  0.00    +0.000 OA
ATOM      8  CA  LEU A   1      -8.210  -0.664 127.326  0.00  0.00    +0.000 C 
ATOM      9  H   UNK A   2      -7.713   0.032 124.034  0.00  0.00    +0.000 HD
ENDROOT
BRANCH   4  10
ATOM     10  C   UNK A   2      -7.906   2.552 124.567  0.00  0.00    +0.000 C 
ATOM     11  C   UNK A   2      -6.525   2.488 123.903  0.00  0.00    +0.000 C 
ATOM     12  C   UNK A   2      -6.817   3.051 122.562  0.00  0.00    +0.000 A 
ATOM     13  C   UNK A   2      -5.906   3.449 121.606  0.00  0.00    +0.000 A 
ATOM     14  C   UNK A   2      -6.406   3.954 120.410  0.00  0.00    +0.000 A 
ATOM     15  C   UNK A   2      -7.791   4.001 120.172  0.00  0.00    +0.000 A 
ATOM     16  C   UNK A   2      -8.697   3.535 121.122  0.00  0.00    +0.000 A 
ATOM     17  C   UNK A   2      -8.193   3.080 122.319  0.00  0.00    +0.000 A 
ATOM     18  C   UNK A   2      -8.972   2.522 123.457  0.00  0.00    +0.000 C 
ENDBRANCH   4  10
BRANCH   1  19
ATOM     19  C   UNK A   0      -7.013   0.811 129.306  0.00  0.00    +0.000 C 
BRANCH  19  20
ATOM     20  C   UNK A   0      -8.252   0.658 130.306  0.00  0.00    +0.000 C 
ATOM     21  O   UNK A   0      -8.573  -0.447 130.762  0.00  0.00    +0.000 OA
ATOM     22  N   UNK A   0      -8.943   1.741 130.811  0.00  0.00    +0.000 N 
ATOM     23  C   UNK A   0      -9.468   2.891 130.120  0.00  0.00    +0.000 C 
ATOM     24  C   UNK A   0      -9.014   4.173 130.822  0.00  0.00    +0.000 C 
ATOM     25  O   UNK A   0      -9.613   4.158 132.136  0.00  0.00    +0.000 OA
ATOM     26  C   UNK A   0      -9.210   2.974 132.859  0.00  0.00    +0.000 C 
ATOM     27  C   UNK A   0      -9.555   1.670 132.119  0.00  0.00    +0.000 C 
ENDBRANCH  19  20
BRANCH  19  31
ATOM     28  C   UNK A   0      -3.451  -2.932 129.562  0.00  0.00    +0.000 C 
ATOM     29  C   UNK A   0      -4.276  -1.700 129.856  0.00  0.00    +0.000 A 
ATOM     30  N   UNK A   0      -4.728  -0.687 129.109  0.00  0.00    +0.000 NA
ATOM     31  C   UNK A   0      -5.772  -0.078 129.888  0.00  0.00    +0.000 A 
ATOM     32  C   UNK A   0      -5.619  -0.604 131.157  0.00  0.00    +0.000 A 
ATOM     33  O   UNK A   0      -4.774  -1.669 131.125  0.00  0.00    +0.000 OA
ENDBRANCH  19  31
ENDBRANCH   1  19
BRANCH   8  34
ATOM     34  CB  LEU A   1      -7.499  -1.863 127.895  0.00  0.00    +0.000 C 
BRANCH  34  35
ATOM     35  CG  LEU A   1      -8.232  -2.883 128.759  0.00  0.00    +0.000 C 
ATOM     36  CD1 LEU A   1      -8.901  -3.960 127.882  0.00  0.00    +0.000 C 
ATOM     37  CD2 LEU A   1      -7.305  -3.647 129.654  0.00  0.00    +0.000 C 
ENDBRANCH  34  35
ENDBRANCH   8  34
TORSDOF 6
ENDMDL
MODEL 2
REMARK VINA RESULT:      -9.0      1.734      2.395
REMARK  Name = CHEMBL271039
REMARK  9 active torsions:
REMARK  status: ('A' for Active; 'I' for Inactive)
REMARK    1  A    between atoms: C_1  and  C_2
REMARK    2  A    between atoms: C_4  and  C_5
REMARK    3  A    between atoms: C_5  and  C_6
REMARK    4  A    between atoms: C_5  and  N_14
REMARK    5  A    between atoms: C_17  and  C_18
REMARK    6  A    between atoms: CA_30  and  CB_31
REMARK    7  A    between atoms: CB_31  and  CG_32
REMARK    8  A    between atoms: CG_32  and  CD1_33
REMARK    9  A    between atoms: CG_32  and  CD2_34
REMARK                            x       y       z     vdW  Elec       q    Type
REMARK                         _______ _______ _______ _____ _____    ______ ____
ROOT
ATOM      1  N   LEU A   1      -7.641   0.659 126.040  0.00  0.00    +0.000 N 
ATOM      2  C   UNK A   2      -7.206   1.654 125.166  0.00  0.00    +0.000 C 
ATOM      3  O   UNK A   2      -6.240   2.364 125.437  0.00  0.00    +0.000 OA
ATOM      4  C   UNK A   2      -8.181   1.923 123.969  0.00  0.00    +0.000 C 
ATOM      5  N   UNK A   2      -8.166   0.711 123.225  0.00  0.00    +0.000 N 
ATOM      6  C   LEU A   1      -8.571  -0.411 123.850  0.00  0.00    +0.000 C 
ATOM      7  O   LEU A   1      -8.905  -1.371 123.138  0.00  0.00    +0.000 OA
ATOM      8  CA  LEU A   1      -8.540  -0.380 125.420  0.00  0.00    +0.000 C 
ATOM      9  H   UNK A   2      -8.031   0.659 122.221  0.00  0.00    +0.000 HD
ENDROOT
BRANCH   4  10
ATOM     10  C   UNK A   2      -7.858   3.093 123.070  0.00  0.00    +0.000 C 
ATOM     11  C   UNK A   2      -6.362   3.188 122.740  0.00  0.00    +0.000 C 
ATOM     12  C   UNK A   2      -6.398   3.825 121.401  0.00  0.00    +0.000 A 
ATOM     13  C   UNK A   2      -5.337   4.364 120.704  0.00  0.00    +0.000 A 
ATOM     14  C   UNK A   2      -5.601   4.916 119.454  0.00  0.00    +0.000 A 
ATOM     15  C   UNK A   2      -6.895   4.871 118.907  0.00  0.00    +0.000 A 
ATOM     16  C   UNK A   2      -7.943   4.266 119.595  0.00  0.00    +0.000 A 
ATOM     17  C   UNK A   2      -7.681   3.764 120.849  0.00  0.00    +0.000 A 
ATOM     18  C   UNK A   2      -8.639   3.062 121.745  0.00  0.00    +0.000 C 
ENDBRANCH   4  10
BRANCH   1  19
ATOM     19  C   UNK A   0      -7.101   0.653 127.516  0.00  0.00    +0.000 C 
BRANCH  19  20
ATOM     20  C   UNK A   0      -8.062   1.529 128.448  0.00  0.00    +0.000 C 
ATOM     21  O   UNK A   0      -9.115   2.008 128.009  0.00  0.00    +0.000 OA
ATOM     22  N   UNK A   0      -7.842   1.694 129.801  0.00  0.00    +0.000 N 
ATOM     23  C   UNK A   0      -6.627   2.041 130.494  0.00  0.00    +0.000 C 
ATOM     24  C   UNK A   0      -6.373   1.047 131.629  0.00  0.00    +0.000 C 
ATOM     25  O   UNK A   0      -7.457   1.208 132.569  0.00  0.00    +0.000 OA
ATOM     26  C   UNK A   0      -8.725   0.973 131.919  0.00  0.00    +0.000 C 
ATOM     27  C   UNK A   0      -8.957   1.884 130.702  0.00  0.00    +0.000 C 
ENDBRANCH  19  20
BRANCH  19  31
ATOM     28  C   UNK A   0      -7.106  -2.945 131.233  0.00  0.00    +0.000 C 
ATOM     29  C   UNK A   0      -6.950  -2.239 129.906  0.00  0.00    +0.000 A 
ATOM     30  N   UNK A   0      -7.730  -1.417 129.196  0.00  0.00    +0.000 NA
ATOM     31  C   UNK A   0      -6.853  -0.787 128.247  0.00  0.00    +0.000 A 
ATOM     32  C   UNK A   0      -5.692  -1.535 128.288  0.00  0.00    +0.000 A 
ATOM     33  O   UNK A   0      -5.704  -2.362 129.367  0.00  0.00    +0.000 OA
ENDBRANCH  19  31
ENDBRANCH   1  19
BRANCH   8  34
ATOM     34  CB  LEU A   1      -7.990  -1.728 125.806  0.00  0.00    +0.000 C 
BRANCH  34  35
ATOM     35  CG  LEU A   1      -8.861  -2.978 125.771  0.00  0.00    +0.000 C 
ATOM     36  CD1 LEU A   1      -8.217  -4.067 124.891  0.00  0.00    +0.000 C 
ATOM     37  CD2 LEU A   1      -9.001  -3.617 127.119  0.00  0.00    +0.000 C 
ENDBRANCH  34  35
ENDBRANCH   8  34
TORSDOF 6
ENDMDL
MODEL 3
REMARK VINA RESULT:      -9.0      2.442      4.733
REMARK  Name = CHEMBL271039
REMARK  9 active torsions:
REMARK  status: ('A' for Active; 'I' for Inactive)
REMARK    1  A    between atoms: C_1  and  C_2
REMARK    2  A    between atoms: C_4  and  C_5
REMARK    3  A    between atoms: C_5  and  C_6
REMARK    4  A    between atoms: C_5  and  N_14
REMARK    5  A    between atoms: C_17  and  C_18
REMARK    6  A    between atoms: CA_30  and  CB_31
REMARK    7  A    between atoms: CB_31  and  CG_32
REMARK    8  A    between atoms: CG_32  and  CD1_33
REMARK    9  A    between atoms: CG_32  and  CD2_34
REMARK                            x       y       z     vdW  Elec       q    Type
REMARK                         _______ _______ _______ _____ _____    ______ ____
ROOT
ATOM      1  N   LEU A   1      -8.158   2.903 128.740  0.00  0.00    +0.000 N 
ATOM      2  C   UNK A   2      -7.705   3.627 127.639  0.00  0.00    +0.000 C 
ATOM      3  O   UNK A   2      -7.323   4.790 127.752  0.00  0.00    +0.000 OA
ATOM      4  C   UNK A   2      -7.950   2.917 126.263  0.00  0.00    +0.000 C 
ATOM      5  N   UNK A   2      -7.145   1.746 126.324  0.00  0.00    +0.000 N 
ATOM      6  C   LEU A   1      -7.405   0.860 127.304  0.00  0.00    +0.000 C 
ATOM      7  O   LEU A   1      -6.976  -0.295 127.155  0.00  0.00    +0.000 OA
ATOM      8  CA  LEU A   1      -8.197   1.409 128.544  0.00  0.00    +0.000 C 
ATOM      9  H   UNK A   2      -6.506   1.455 125.593  0.00  0.00    +0.000 HD
ENDROOT
BRANCH   4  10
ATOM     10  C   UNK A   2      -7.631   3.708 125.016  0.00  0.00    +0.000 C 
ATOM     11  C   UNK A   2      -6.122   3.883 124.800  0.00  0.00    +0.000 C 
ATOM     12  C   UNK A   2      -6.047   3.971 123.321  0.00  0.00    +0.000 A 
ATOM     13  C   UNK A   2      -4.964   4.360 122.561  0.00  0.00    +0.000 A 
ATOM     14  C   UNK A   2      -5.118   4.371 121.178  0.00  0.00    +0.000 A 
ATOM     15  C   UNK A   2      -6.319   3.947 120.584  0.00  0.00    +0.000 A 
ATOM     16  C   UNK A   2      -7.382   3.496 121.362  0.00  0.00    +0.000 A 
ATOM     17  C   UNK A   2      -7.236   3.532 122.730  0.00  0.00    +0.000 A 
ATOM     18  C   UNK A   2      -8.227   3.082 123.743  0.00  0.00    +0.000 C 
ENDBRANCH   4  10
BRANCH   1  19
ATOM     19  C   UNK A   0      -8.488   3.670 130.072  0.00  0.00    +0.000 C 
BRANCH  19  20
ATOM     20  C   UNK A   0      -7.174   3.774 130.977  0.00  0.00    +0.000 C 
ATOM     21  O   UNK A   0      -6.052   3.881 130.466  0.00  0.00    +0.000 OA
ATOM     22  N   UNK A   0      -7.221   3.877 132.353  0.00  0.00    +0.000 N 
ATOM     23  C   UNK A   0      -7.978   3.099 133.302  0.00  0.00    +0.000 C 
ATOM     24  C   UNK A   0      -8.745   4.029 134.244  0.00  0.00    +0.000 C 
ATOM     25  O   UNK A   0      -7.754   4.764 134.994  0.00  0.00    +0.000 OA
ATOM     26  C   UNK A   0      -6.888   5.496 134.100  0.00  0.00    +0.000 C 
ATOM     27  C   UNK A   0      -6.189   4.596 133.066  0.00  0.00    +0.000 C 
ENDBRANCH  19  20
BRANCH  19  31
ATOM     28  C   UNK A   0     -10.766   7.808 127.964  0.00  0.00    +0.000 C 
ATOM     29  C   UNK A   0     -10.163   6.839 128.954  0.00  0.00    +0.000 A 
ATOM     30  N   UNK A   0     -10.285   5.522 129.154  0.00  0.00    +0.000 NA
ATOM     31  C   UNK A   0      -9.157   5.156 129.968  0.00  0.00    +0.000 A 
ATOM     32  C   UNK A   0      -8.650   6.356 130.427  0.00  0.00    +0.000 A 
ATOM     33  O   UNK A   0      -9.193   7.393 129.735  0.00  0.00    +0.000 OA
ENDBRANCH  19  31
ENDBRANCH   1  19
BRANCH   8  34
ATOM     34  CB  LEU A   1      -7.504   0.790 129.729  0.00  0.00    +0.000 C 
BRANCH  34  35
ATOM     35  CG  LEU A   1      -8.142  -0.350 130.514  0.00  0.00    +0.000 C 
ATOM     36  CD1 LEU A   1      -7.069  -1.170 131.256  0.00  0.00    +0.000 C 
ATOM     37  CD2 LEU A   1      -9.057   0.140 131.594  0.00  0.00    +0.000 C 
ENDBRANCH  34  35
ENDBRANCH   8  34
TORSDOF 6
ENDMDL
MODEL 4
REMARK VINA RESULT:      -8.8      2.134      5.276
REMARK  Name = CHEMBL271039
REMARK  9 active torsions:
REMARK  status: ('A' for Active; 'I' for Inactive)
REMARK    1  A    between atoms: C_1  and  C_2
REMARK    2  A    between atoms: C_4  and  C_5
REMARK    3  A    between atoms: C_5  and  C_6
REMARK    4  A    between atoms: C_5  and  N_14
REMARK    5  A    between atoms: C_17  and  C_18
REMARK    6  A    between atoms: CA_30  and  CB_31
REMARK    7  A    between atoms: CB_31  and  CG_32
REMARK    8  A    between atoms: CG_32  and  CD1_33
REMARK    9  A    between atoms: CG_32  and  CD2_34
REMARK                            x       y       z     vdW  Elec       q    Type
REMARK                         _______ _______ _______ _____ _____    ______ ____
ROOT
ATOM      1  N   LEU A   1      -6.763   2.155 126.617  0.00  0.00    +0.000 N 
ATOM      2  C   UNK A   2      -7.245   2.119 125.310  0.00  0.00    +0.000 C 
ATOM      3  O   UNK A   2      -8.206   1.416 125.002  0.00  0.00    +0.000 OA
ATOM      4  C   UNK A   2      -6.327   2.848 124.270  0.00  0.00    +0.000 C 
ATOM      5  N   UNK A   2      -6.363   4.214 124.667  0.00  0.00    +0.000 N 
ATOM      6  C   LEU A   1      -5.920   4.517 125.902  0.00  0.00    +0.000 C 
ATOM      7  O   LEU A   1      -5.609   5.699 126.120  0.00  0.00    +0.000 OA
ATOM      8  CA  LEU A   1      -5.882   3.335 126.935  0.00  0.00    +0.000 C 
ATOM      9  H   UNK A   2      -6.541   4.986 124.035  0.00  0.00    +0.000 HD
ENDROOT
BRANCH   4  10
ATOM     10  C   UNK A   2      -6.701   2.716 122.812  0.00  0.00    +0.000 C 
ATOM     11  C   UNK A   2      -8.162   3.095 122.542  0.00  0.00    +0.000 C 
ATOM     12  C   UNK A   2      -8.082   3.593 121.147  0.00  0.00    +0.000 A 
ATOM     13  C   UNK A   2      -9.132   3.861 120.294  0.00  0.00    +0.000 A 
ATOM     14  C   UNK A   2      -8.824   4.323 119.018  0.00  0.00    +0.000 A 
ATOM     15  C   UNK A   2      -7.491   4.557 118.640  0.00  0.00    +0.000 A 
ATOM     16  C   UNK A   2      -6.445   4.343 119.534  0.00  0.00    +0.000 A 
ATOM     17  C   UNK A   2      -6.757   3.844 120.778  0.00  0.00    +0.000 A 
ATOM     18  C   UNK A   2      -5.808   3.563 121.888  0.00  0.00    +0.000 C 
ENDBRANCH   4  10
BRANCH   1  19
ATOM     19  C   UNK A   0      -7.238   1.054 127.633  0.00  0.00    +0.000 C 
BRANCH  19  20
ATOM     20  C   UNK A   0      -5.967   0.313 128.263  0.00  0.00    +0.000 C 
ATOM     21  O   UNK A   0      -4.944   0.942 128.564  0.00  0.00    +0.000 OA
ATOM     22  N   UNK A   0      -5.980  -1.020 128.618  0.00  0.00    +0.000 N 
ATOM     23  C   UNK A   0      -6.444  -2.161 127.869  0.00  0.00    +0.000 C 
ATOM     24  C   UNK A   0      -7.399  -2.993 128.727  0.00  0.00    +0.000 C 
ATOM     25  O   UNK A   0      -6.623  -3.501 129.834  0.00  0.00    +0.000 OA
ATOM     26  C   UNK A   0      -6.039  -2.412 130.580  0.00  0.00    +0.000 C 
ATOM     27  C   UNK A   0      -5.161  -1.491 129.714  0.00  0.00    +0.000 C 
ENDBRANCH  19  20
BRANCH  19  31
ATOM     28  C   UNK A   0     -10.024   4.127 130.723  0.00  0.00    +0.000 C 
ATOM     29  C   UNK A   0      -9.405   2.913 130.072  0.00  0.00    +0.000 A 
ATOM     30  N   UNK A   0      -9.225   2.532 128.802  0.00  0.00    +0.000 NA
ATOM     31  C   UNK A   0      -8.228   1.497 128.854  0.00  0.00    +0.000 A 
ATOM     32  C   UNK A   0      -8.144   1.154 130.190  0.00  0.00    +0.000 A 
ATOM     33  O   UNK A   0      -8.784   2.080 130.954  0.00  0.00    +0.000 OA
ENDBRANCH  19  31
ENDBRANCH   1  19
BRANCH   8  34
ATOM     34  CB  LEU A   1      -6.402   3.943 128.211  0.00  0.00    +0.000 C 
BRANCH  34  35
ATOM     35  CG  LEU A   1      -5.453   4.477 129.278  0.00  0.00    +0.000 C 
ATOM     36  CD1 LEU A   1      -5.690   3.765 130.624  0.00  0.00    +0.000 C 
ATOM     37  CD2 LEU A   1      -4.016   4.206 128.955  0.00  0.00    +0.000 C 
ENDBRANCH  34  35
ENDBRANCH   8  34
TORSDOF 6
ENDMDL
MODEL 5
REMARK VINA RESULT:      -8.8      3.285      5.521
REMARK  Name = CHEMBL271039
REMARK  9 active torsions:
REMARK  status: ('A' for Active; 'I' for Inactive)
REMARK    1  A    between atoms: C_1  and  C_2
REMARK    2  A    between atoms: C_4  and  C_5
REMARK    3  A    between atoms: C_5  and  C_6
REMARK    4  A    between atoms: C_5  and  N_14
REMARK    5  A    between atoms: C_17  and  C_18
REMARK    6  A    between atoms: CA_30  and  CB_31
REMARK    7  A    between atoms: CB_31  and  CG_32
REMARK    8  A    between atoms: CG_32  and  CD1_33
REMARK    9  A    between atoms: CG_32  and  CD2_34
REMARK                            x       y       z     vdW  Elec       q    Type
REMARK                         _______ _______ _______ _____ _____    ______ ____
ROOT
ATOM      1  N   LEU A   1      -6.772   3.087 128.376  0.00  0.00    +0.000 N 
ATOM      2  C   UNK A   2      -7.768   2.389 127.696  0.00  0.00    +0.000 C 
ATOM      3  O   UNK A   2      -8.938   2.414 128.074  0.00  0.00    +0.000 OA
ATOM      4  C   UNK A   2      -7.228   1.416 126.593  0.00  0.00    +0.000 C 
ATOM      5  N   UNK A   2      -6.623   2.275 125.633  0.00  0.00    +0.000 N 
ATOM      6  C   LEU A   1      -5.602   3.051 126.045  0.00  0.00    +0.000 C 
ATOM      7  O   LEU A   1      -4.851   3.514 125.172  0.00  0.00    +0.000 OA
ATOM      8  CA  LEU A   1      -5.504   3.306 127.592  0.00  0.00    +0.000 C 
ATOM      9  H   UNK A   2      -6.795   2.226 124.635  0.00  0.00    +0.000 HD
ENDROOT
BRANCH   4  10
ATOM     10  C   UNK A   2      -8.233   0.510 125.923  0.00  0.00    +0.000 C 
ATOM     11  C   UNK A   2      -7.946   0.311 124.430  0.00  0.00    +0.000 C 
ATOM     12  C   UNK A   2      -8.497  -1.048 124.204  0.00  0.00    +0.000 A 
ATOM     13  C   UNK A   2      -8.725  -1.666 122.992  0.00  0.00    +0.000 A 
ATOM     14  C   UNK A   2      -9.255  -2.952 123.015  0.00  0.00    +0.000 A 
ATOM     15  C   UNK A   2      -9.494  -3.611 124.233  0.00  0.00    +0.000 A 
ATOM     16  C   UNK A   2      -9.198  -2.998 125.448  0.00  0.00    +0.000 A 
ATOM     17  C   UNK A   2      -8.717  -1.709 125.416  0.00  0.00    +0.000 A 
ATOM     18  C   UNK A   2      -8.318  -0.878 126.583  0.00  0.00    +0.000 C 
ENDBRANCH   4  10
BRANCH   1  19
ATOM     19  C   UNK A   0      -7.080   3.647 129.812  0.00  0.00    +0.000 C 
BRANCH  19  20
ATOM     20  C   UNK A   0      -7.987   4.959 129.700  0.00  0.00    +0.000 C 
ATOM     21  O   UNK A   0      -8.454   5.323 128.613  0.00  0.00    +0.000 OA
ATOM     22  N   UNK A   0      -8.401   5.677 130.804  0.00  0.00    +0.000 N 
ATOM     23  C   UNK A   0      -7.634   6.140 131.933  0.00  0.00    +0.000 C 
ATOM     24  C   UNK A   0      -8.325   5.729 133.235  0.00  0.00    +0.000 C 
ATOM     25  O   UNK A   0      -9.589   6.426 133.268  0.00  0.00    +0.000 OA
ATOM     26  C   UNK A   0     -10.380   6.089 132.108  0.00  0.00    +0.000 C 
ATOM     27  C   UNK A   0      -9.661   6.387 130.781  0.00  0.00    +0.000 C 
ENDBRANCH  19  20
BRANCH  19  31
ATOM     28  C   UNK A   0      -8.256  -0.754 132.264  0.00  0.00    +0.000 C 
ATOM     29  C   UNK A   0      -8.151   0.705 131.885  0.00  0.00    +0.000 A 
ATOM     30  N   UNK A   0      -7.140   1.494 131.504  0.00  0.00    +0.000 NA
ATOM     31  C   UNK A   0      -7.762   2.645 130.907  0.00  0.00    +0.000 A 
ATOM     32  C   UNK A   0      -9.090   2.561 131.279  0.00  0.00    +0.000 A 
ATOM     33  O   UNK A   0      -9.358   1.330 131.790  0.00  0.00    +0.000 OA
ENDBRANCH  19  31
ENDBRANCH   1  19
BRANCH   8  34
ATOM     34  CB  LEU A   1      -5.161   4.768 127.704  0.00  0.00    +0.000 C 
BRANCH  34  35
ATOM     35  CG  LEU A   1      -3.879   5.231 128.386  0.00  0.00    +0.000 C 
ATOM     36  CD1 LEU A   1      -2.665   4.446 127.855  0.00  0.00    +0.000 C 
ATOM     37  CD2 LEU A   1      -3.560   6.665 128.092  0.00  0.00    +0.000 C 
ENDBRANCH  34  35
ENDBRANCH   8  34
TORSDOF 6
ENDMDL
MODEL 6
REMARK VINA RESULT:      -8.8      2.932      5.303
REMARK  Name = CHEMBL271039
REMARK  9 active torsions:
REMARK  status: ('A' for Active; 'I' for Inactive)
REMARK    1  A    between atoms: C_1  and  C_2
REMARK    2  A    between atoms: C_4  and  C_5
REMARK    3  A    between atoms: C_5  and  C_6
REMARK    4  A    between atoms: C_5  and  N_14
REMARK    5  A    between atoms: C_17  and  C_18
REMARK    6  A    between atoms: CA_30  and  CB_31
REMARK    7  A    between atoms: CB_31  and  CG_32
REMARK    8  A    between atoms: CG_32  and  CD1_33
REMARK    9  A    between atoms: CG_32  and  CD2_34
REMARK                            x       y       z     vdW  Elec       q    Type
REMARK                         _______ _______ _______ _____ _____    ______ ____
ROOT
ATOM      1  N   LEU A   1      -8.567   3.924 128.663  0.00  0.00    +0.000 N 
ATOM      2  C   UNK A   2      -7.996   3.813 127.397  0.00  0.00    +0.000 C 
ATOM      3  O   UNK A   2      -7.623   4.806 126.774  0.00  0.00    +0.000 OA
ATOM      4  C   UNK A   2      -8.096   2.378 126.774  0.00  0.00    +0.000 C 
ATOM      5  N   UNK A   2      -7.307   1.566 127.635  0.00  0.00    +0.000 N 
ATOM      6  C   LEU A   1      -7.673   1.488 128.929  0.00  0.00    +0.000 C 
ATOM      7  O   LEU A   1      -7.235   0.531 129.587  0.00  0.00    +0.000 OA
ATOM      8  CA  LEU A   1      -8.590   2.646 129.462  0.00  0.00    +0.000 C 
ATOM      9  H   UNK A   2      -6.595   0.920 127.315  0.00  0.00    +0.000 HD
ENDROOT
BRANCH   4  10
ATOM     10  C   UNK A   2      -7.643   2.218 125.342  0.00  0.00    +0.000 C 
ATOM     11  C   UNK A   2      -8.753   2.538 124.333  0.00  0.00    +0.000 C 
ATOM     12  C   UNK A   2      -7.964   3.024 123.175  0.00  0.00    +0.000 A 
ATOM     13  C   UNK A   2      -8.414   3.244 121.890  0.00  0.00    +0.000 A 
ATOM     14  C   UNK A   2      -7.493   3.703 120.954  0.00  0.00    +0.000 A 
ATOM     15  C   UNK A   2      -6.167   3.984 121.327  0.00  0.00    +0.000 A 
ATOM     16  C   UNK A   2      -5.744   3.819 122.643  0.00  0.00    +0.000 A 
ATOM     17  C   UNK A   2      -6.650   3.321 123.550  0.00  0.00    +0.000 A 
ATOM     18  C   UNK A   2      -6.421   3.088 125.001  0.00  0.00    +0.000 C 
ENDBRANCH   4  10
BRANCH   1  19
ATOM     19  C   UNK A   0      -9.033   5.338 129.167  0.00  0.00    +0.000 C 
BRANCH  19  20
ATOM     20  C   UNK A   0     -10.598   5.306 129.497  0.00  0.00    +0.000 C 
ATOM     21  O   UNK A   0     -11.107   4.347 130.092  0.00  0.00    +0.000 OA
ATOM     22  N   UNK A   0     -11.434   6.379 129.258  0.00  0.00    +0.000 N 
ATOM     23  C   UNK A   0     -11.562   7.190 128.074  0.00  0.00    +0.000 C 
ATOM     24  C   UNK A   0     -11.476   8.672 128.447  0.00  0.00    +0.000 C 
ATOM     25  O   UNK A   0     -12.622   8.954 129.280  0.00  0.00    +0.000 OA
ATOM     26  C   UNK A   0     -12.617   8.103 130.446  0.00  0.00    +0.000 C 
ATOM     27  C   UNK A   0     -12.588   6.604 130.099  0.00  0.00    +0.000 C 
ENDBRANCH  19  20
BRANCH  19  31
ATOM     28  C   UNK A   0      -5.319   6.162 132.671  0.00  0.00    +0.000 C 
ATOM     29  C   UNK A   0      -6.581   6.282 131.848  0.00  0.00    +0.000 A 
ATOM     30  N   UNK A   0      -6.840   6.239 130.537  0.00  0.00    +0.000 NA
ATOM     31  C   UNK A   0      -8.255   6.007 130.437  0.00  0.00    +0.000 A 
ATOM     32  C   UNK A   0      -8.743   6.247 131.708  0.00  0.00    +0.000 A 
ATOM     33  O   UNK A   0      -7.718   6.317 132.599  0.00  0.00    +0.000 OA
ENDBRANCH  19  31
ENDBRANCH   1  19
BRANCH   8  34
ATOM     34  CB  LEU A   1      -8.029   2.965 130.823  0.00  0.00    +0.000 C 
BRANCH  34  35
ATOM     35  CG  LEU A   1      -8.877   2.826 132.082  0.00  0.00    +0.000 C 
ATOM     36  CD1 LEU A   1      -9.591   1.460 132.110  0.00  0.00    +0.000 C 
ATOM     37  CD2 LEU A   1      -8.053   2.847 133.333  0.00  0.00    +0.000 C 
ENDBRANCH  34  35
ENDBRANCH   8  34
TORSDOF 6
ENDMDL
MODEL 7
REMARK VINA RESULT:      -8.6      3.662      7.108
REMARK  Name = CHEMBL271039
REMARK  9 active torsions:
REMARK  status: ('A' for Active; 'I' for Inactive)
REMARK    1  A    between atoms: C_1  and  C_2
REMARK    2  A    between atoms: C_4  and  C_5
REMARK    3  A    between atoms: C_5  and  C_6
REMARK    4  A    between atoms: C_5  and  N_14
REMARK    5  A    between atoms: C_17  and  C_18
REMARK    6  A    between atoms: CA_30  and  CB_31
REMARK    7  A    between atoms: CB_31  and  CG_32
REMARK    8  A    between atoms: CG_32  and  CD1_33
REMARK    9  A    between atoms: CG_32  and  CD2_34
REMARK                            x       y       z     vdW  Elec       q    Type
REMARK                         _______ _______ _______ _____ _____    ______ ____
ROOT
ATOM      1  N   LEU A   1      -7.881   2.687 130.878  0.00  0.00    +0.000 N 
ATOM      2  C   UNK A   2      -9.020   3.258 130.314  0.00  0.00    +0.000 C 
ATOM      3  O   UNK A   2      -9.517   2.810 129.283  0.00  0.00    +0.000 OA
ATOM      4  C   UNK A   2      -9.442   4.619 130.967  0.00  0.00    +0.000 C 
ATOM      5  N   UNK A   2      -9.793   4.274 132.302  0.00  0.00    +0.000 N 
ATOM      6  C   LEU A   1      -8.840   3.717 133.074  0.00  0.00    +0.000 C 
ATOM      7  O   LEU A   1      -9.013   3.750 134.303  0.00  0.00    +0.000 OA
ATOM      8  CA  LEU A   1      -7.632   3.057 132.317  0.00  0.00    +0.000 C 
ATOM      9  H   UNK A   2     -10.650   4.565 132.760  0.00  0.00    +0.000 HD
ENDROOT
BRANCH   4  10
ATOM     10  C   UNK A   2     -10.571   5.376 130.308  0.00  0.00    +0.000 C 
ATOM     11  C   UNK A   2     -11.412   6.173 131.314  0.00  0.00    +0.000 C 
ATOM     12  C   UNK A   2     -11.881   7.302 130.473  0.00  0.00    +0.000 A 
ATOM     13  C   UNK A   2     -12.862   8.222 130.780  0.00  0.00    +0.000 A 
ATOM     14  C   UNK A   2     -13.144   9.203 129.835  0.00  0.00    +0.000 A 
ATOM     15  C   UNK A   2     -12.413   9.279 128.637  0.00  0.00    +0.000 A 
ATOM     16  C   UNK A   2     -11.382   8.383 128.369  0.00  0.00    +0.000 A 
ATOM     17  C   UNK A   2     -11.142   7.389 129.290  0.00  0.00    +0.000 A 
ATOM     18  C   UNK A   2     -10.084   6.346 129.217  0.00  0.00    +0.000 C 
ENDBRANCH   4  10
BRANCH   1  19
ATOM     19  C   UNK A   0      -7.037   1.672 130.025  0.00  0.00    +0.000 C 
BRANCH  19  20
ATOM     20  C   UNK A   0      -5.510   2.143 129.975  0.00  0.00    +0.000 C 
ATOM     21  O   UNK A   0      -4.676   1.698 130.774  0.00  0.00    +0.000 OA
ATOM     22  N   UNK A   0      -5.013   2.961 128.980  0.00  0.00    +0.000 N 
ATOM     23  C   UNK A   0      -5.552   4.190 128.453  0.00  0.00    +0.000 C 
ATOM     24  C   UNK A   0      -5.618   4.118 126.926  0.00  0.00    +0.000 C 
ATOM     25  O   UNK A   0      -4.255   4.019 126.459  0.00  0.00    +0.000 OA
ATOM     26  C   UNK A   0      -3.612   2.857 127.027  0.00  0.00    +0.000 C 
ATOM     27  C   UNK A   0      -3.632   2.849 128.566  0.00  0.00    +0.000 C 
ENDBRANCH  19  20
BRANCH  19  31
ATOM     28  C   UNK A   0      -6.095  -3.410 129.788  0.00  0.00    +0.000 C 
ATOM     29  C   UNK A   0      -6.563  -2.047 130.244  0.00  0.00    +0.000 A 
ATOM     30  N   UNK A   0      -5.986  -0.842 130.307  0.00  0.00    +0.000 NA
ATOM     31  C   UNK A   0      -7.071   0.092 130.440  0.00  0.00    +0.000 A 
ATOM     32  C   UNK A   0      -8.169  -0.686 130.755  0.00  0.00    +0.000 A 
ATOM     33  O   UNK A   0      -7.893  -1.999 130.540  0.00  0.00    +0.000 OA
ENDBRANCH  19  31
ENDBRANCH   1  19
BRANCH   8  34
ATOM     34  CB  LEU A   1      -7.383   1.775 133.067  0.00  0.00    +0.000 C 
BRANCH  34  35
ATOM     35  CG  LEU A   1      -6.294   1.677 134.129  0.00  0.00    +0.000 C 
ATOM     36  CD1 LEU A   1      -5.458   0.396 133.936  0.00  0.00    +0.000 C 
ATOM     37  CD2 LEU A   1      -5.300   2.794 134.036  0.00  0.00    +0.000 C 
ENDBRANCH  34  35
ENDBRANCH   8  34
TORSDOF 6
ENDMDL
MODEL 8
REMARK VINA RESULT:      -8.6      2.886      7.742
REMARK  Name = CHEMBL271039
REMARK  9 active torsions:
REMARK  status: ('A' for Active; 'I' for Inactive)
REMARK    1  A    between atoms: C_1  and  C_2
REMARK    2  A    between atoms: C_4  and  C_5
REMARK    3  A    between atoms: C_5  and  C_6
REMARK    4  A    between atoms: C_5  and  N_14
REMARK    5  A    between atoms: C_17  and  C_18
REMARK    6  A    between atoms: CA_30  and  CB_31
REMARK    7  A    between atoms: CB_31  and  CG_32
REMARK    8  A    between atoms: CG_32  and  CD1_33
REMARK    9  A    between atoms: CG_32  and  CD2_34
REMARK                            x       y       z     vdW  Elec       q    Type
REMARK                         _______ _______ _______ _____ _____    ______ ____
ROOT
ATOM      1  N   LEU A   1      -7.278   0.142 125.321  0.00  0.00    +0.000 N 
ATOM      2  C   UNK A   2      -7.302  -0.272 126.651  0.00  0.00    +0.000 C 
ATOM      3  O   UNK A   2      -8.089   0.217 127.459  0.00  0.00    +0.000 OA
ATOM      4  C   UNK A   2      -6.111  -1.210 127.050  0.00  0.00    +0.000 C 
ATOM      5  N   UNK A   2      -6.311  -2.382 126.268  0.00  0.00    +0.000 N 
ATOM      6  C   LEU A   1      -6.307  -2.247 124.929  0.00  0.00    +0.000 C 
ATOM      7  O   LEU A   1      -6.115  -3.271 124.254  0.00  0.00    +0.000 OA
ATOM      8  CA  LEU A   1      -6.581  -0.803 124.376  0.00  0.00    +0.000 C 
ATOM      9  H   UNK A   2      -6.291  -3.325 126.640  0.00  0.00    +0.000 HD
ENDROOT
BRANCH   4  10
ATOM     10  C   UNK A   2      -5.981  -1.572 128.511  0.00  0.00    +0.000 C 
ATOM     11  C   UNK A   2      -6.681  -2.893 128.856  0.00  0.00    +0.000 C 
ATOM     12  C   UNK A   2      -5.854  -3.374 129.990  0.00  0.00    +0.000 A 
ATOM     13  C   UNK A   2      -6.144  -4.408 130.856  0.00  0.00    +0.000 A 
ATOM     14  C   UNK A   2      -5.218  -4.688 131.857  0.00  0.00    +0.000 A 
ATOM     15  C   UNK A   2      -4.010  -3.975 131.940  0.00  0.00    +0.000 A 
ATOM     16  C   UNK A   2      -3.702  -2.978 131.019  0.00  0.00    +0.000 A 
ATOM     17  C   UNK A   2      -4.644  -2.677 130.061  0.00  0.00    +0.000 A 
ATOM     18  C   UNK A   2      -4.517  -1.671 128.974  0.00  0.00    +0.000 C 
ENDBRANCH   4  10
BRANCH   1  19
ATOM     19  C   UNK A   0      -8.032   1.461 124.921  0.00  0.00    +0.000 C 
BRANCH  19  20
ATOM     20  C   UNK A   0      -7.702   2.616 125.978  0.00  0.00    +0.000 C 
ATOM     21  O   UNK A   0      -8.602   3.311 126.468  0.00  0.00    +0.000 OA
ATOM     22  N   UNK A   0      -6.437   2.818 126.492  0.00  0.00    +0.000 N 
ATOM     23  C   UNK A   0      -5.174   2.900 125.804  0.00  0.00    +0.000 C 
ATOM     24  C   UNK A   0      -4.161   1.959 126.460  0.00  0.00    +0.000 C 
ATOM     25  O   UNK A   0      -3.946   2.455 127.800  0.00  0.00    +0.000 OA
ATOM     26  C   UNK A   0      -5.193   2.498 128.526  0.00  0.00    +0.000 C 
ATOM     27  C   UNK A   0      -6.269   3.348 127.827  0.00  0.00    +0.000 C 
ENDBRANCH  19  20
BRANCH  19  31
ATOM     28  C   UNK A   0      -5.847   4.117 121.057  0.00  0.00    +0.000 C 
ATOM     29  C   UNK A   0      -6.752   3.205 121.852  0.00  0.00    +0.000 A 
ATOM     30  N   UNK A   0      -6.538   2.253 122.766  0.00  0.00    +0.000 NA
ATOM     31  C   UNK A   0      -7.805   2.062 123.419  0.00  0.00    +0.000 A 
ATOM     32  C   UNK A   0      -8.720   2.706 122.609  0.00  0.00    +0.000 A 
ATOM     33  O   UNK A   0      -8.077   3.491 121.704  0.00  0.00    +0.000 OA
ENDBRANCH  19  31
ENDBRANCH   1  19
BRANCH   8  34
ATOM     34  CB  LEU A   1      -7.507  -1.023 123.209  0.00  0.00    +0.000 C 
BRANCH  34  35
ATOM     35  CG  LEU A   1      -8.954  -1.456 123.416  0.00  0.00    +0.000 C 
ATOM     36  CD1 LEU A   1      -9.895  -0.688 122.467  0.00  0.00    +0.000 C 
ATOM     37  CD2 LEU A   1      -9.174  -2.899 123.078  0.00  0.00    +0.000 C 
ENDBRANCH  34  35
ENDBRANCH   8  34
TORSDOF 6
ENDMDL
MODEL 9
REMARK VINA RESULT:      -8.4      4.420      7.158
REMARK  Name = CHEMBL271039
REMARK  9 active torsions:
REMARK  status: ('A' for Active; 'I' for Inactive)
REMARK    1  A    between atoms: C_1  and  C_2
REMARK    2  A    between atoms: C_4  and  C_5
REMARK    3  A    between atoms: C_5  and  C_6
REMARK    4  A    between atoms: C_5  and  N_14
REMARK    5  A    between atoms: C_17  and  C_18
REMARK    6  A    between atoms: CA_30  and  CB_31
REMARK    7  A    between atoms: CB_31  and  CG_32
REMARK    8  A    between atoms: CG_32  and  CD1_33
REMARK    9  A    between atoms: CG_32  and  CD2_34
REMARK                            x       y       z     vdW  Elec       q    Type
REMARK                         _______ _______ _______ _____ _____    ______ ____
ROOT
ATOM      1  N   LEU A   1      -6.751   3.152 131.012  0.00  0.00    +0.000 N 
ATOM      2  C   UNK A   2      -6.470   2.041 130.219  0.00  0.00    +0.000 C 
ATOM      3  O   UNK A   2      -5.876   2.153 129.149  0.00  0.00    +0.000 OA
ATOM      4  C   UNK A   2      -7.172   0.723 130.695  0.00  0.00    +0.000 C 
ATOM      5  N   UNK A   2      -6.593   0.456 131.967  0.00  0.00    +0.000 N 
ATOM      6  C   LEU A   1      -6.748   1.385 132.930  0.00  0.00    +0.000 C 
ATOM      7  O   LEU A   1      -6.578   1.020 134.104  0.00  0.00    +0.000 OA
ATOM      8  CA  LEU A   1      -7.096   2.838 132.445  0.00  0.00    +0.000 C 
ATOM      9  H   UNK A   2      -6.219  -0.443 132.246  0.00  0.00    +0.000 HD
ENDROOT
BRANCH   4  10
ATOM     10  C   UNK A   2      -7.044  -0.486 129.798  0.00  0.00    +0.000 C 
ATOM     11  C   UNK A   2      -7.791  -1.708 130.346  0.00  0.00    +0.000 C 
ATOM     12  C   UNK A   2      -8.146  -2.420 129.094  0.00  0.00    +0.000 A 
ATOM     13  C   UNK A   2      -8.631  -3.705 128.972  0.00  0.00    +0.000 A 
ATOM     14  C   UNK A   2      -8.896  -4.175 127.689  0.00  0.00    +0.000 A 
ATOM     15  C   UNK A   2      -8.725  -3.343 126.569  0.00  0.00    +0.000 A 
ATOM     16  C   UNK A   2      -8.296  -2.027 126.713  0.00  0.00    +0.000 A 
ATOM     17  C   UNK A   2      -7.993  -1.587 127.981  0.00  0.00    +0.000 A 
ATOM     18  C   UNK A   2      -7.542  -0.223 128.366  0.00  0.00    +0.000 C 
ENDBRANCH   4  10
BRANCH   1  19
ATOM     19  C   UNK A   0      -6.597   4.588 130.391  0.00  0.00    +0.000 C 
BRANCH  19  20
ATOM     20  C   UNK A   0      -7.609   5.599 131.107  0.00  0.00    +0.000 C 
ATOM     21  O   UNK A   0      -7.199   6.617 131.679  0.00  0.00    +0.000 OA
ATOM     22  N   UNK A   0      -8.981   5.467 131.023  0.00  0.00    +0.000 N 
ATOM     23  C   UNK A   0      -9.800   4.297 131.215  0.00  0.00    +0.000 C 
ATOM     24  C   UNK A   0     -10.752   4.127 130.029  0.00  0.00    +0.000 C 
ATOM     25  O   UNK A   0     -11.636   5.269 130.043  0.00  0.00    +0.000 OA
ATOM     26  C   UNK A   0     -10.876   6.494 129.954  0.00  0.00    +0.000 C 
ATOM     27  C   UNK A   0      -9.830   6.637 131.073  0.00  0.00    +0.000 C 
ENDBRANCH  19  20
BRANCH  19  31
ATOM     28  C   UNK A   0      -2.257   6.673 128.501  0.00  0.00    +0.000 C 
ATOM     29  C   UNK A   0      -3.332   6.180 129.441  0.00  0.00    +0.000 A 
ATOM     30  N   UNK A   0      -4.665   6.295 129.467  0.00  0.00    +0.000 NA
ATOM     31  C   UNK A   0      -5.115   5.274 130.375  0.00  0.00    +0.000 A 
ATOM     32  C   UNK A   0      -3.974   4.860 131.035  0.00  0.00    +0.000 A 
ATOM     33  O   UNK A   0      -2.867   5.334 130.404  0.00  0.00    +0.000 OA
ENDBRANCH  19  31
ENDBRANCH   1  19
BRANCH   8  34
ATOM     34  CB  LEU A   1      -6.245   3.730 133.310  0.00  0.00    +0.000 C 
BRANCH  34  35
ATOM     35  CG  LEU A   1      -6.764   4.277 134.635  0.00  0.00    +0.000 C 
ATOM     36  CD1 LEU A   1      -6.199   5.685 134.903  0.00  0.00    +0.000 C 
ATOM     37  CD2 LEU A   1      -8.251   4.460 134.636  0.00  0.00    +0.000 C 
ENDBRANCH  34  35
ENDBRANCH   8  34
TORSDOF 6
ENDMDL
