MODEL 1
REMARK VINA RESULT:      -8.2      0.000      0.000
REMARK  Name = CHEMBL1092497
REMARK  7 active torsions:
REMARK  status: ('A' for Active; 'I' for Inactive)
REMARK    1  A    between atoms: C_1  and  O_2
REMARK    2  A    between atoms: O_2  and  C_3
REMARK    3  A    between atoms: C_6  and  N_7
REMARK    4  A    between atoms: N_7  and  C_8
REMARK    5  A    between atoms: C_13  and  O_14
REMARK    6  A    between atoms: O_14  and  C_15
REMARK    7  A    between atoms: C_21  and  C_22
REMARK                            x       y       z     vdW  Elec       q    Type
REMARK                         _______ _______ _______ _____ _____    ______ ____
ROOT
ATOM      1  N   UNL     1      -6.338   3.787 126.229  0.00  0.00    +0.000 N 
ATOM      2  C   UNL     1      -5.139   3.515 127.025  0.00  0.00    +0.000 C 
ATOM      3  C   UNL     1      -7.605   4.038 126.883  0.00  0.00    +0.000 C 
ATOM      4  O   UNL     1      -8.653   4.284 126.318  0.00  0.00    +0.000 OA
ATOM      5  N   UNL     1      -7.608   3.889 128.283  0.00  0.00    +0.000 N 
ATOM      6  C   UNL     1      -8.769   3.954 129.192  0.00  0.00    +0.000 C 
ATOM      7  C   UNL     1      -8.107   5.162 129.911  0.00  0.00    +0.000 C 
ATOM      8  C   UNL     1      -6.811   4.649 129.229  0.00  0.00    +0.000 C 
ENDROOT
BRANCH   1  12
ATOM      9  C   UNL     1      -5.959   3.558 121.953  0.00  0.00    +0.000 A 
ATOM     10  C   UNL     1      -6.651   2.573 122.627  0.00  0.00    +0.000 A 
ATOM     11  C   UNL     1      -6.790   2.654 124.021  0.00  0.00    +0.000 A 
ATOM     12  C   UNL     1      -6.212   3.684 124.764  0.00  0.00    +0.000 A 
ATOM     13  C   UNL     1      -5.479   4.587 123.966  0.00  0.00    +0.000 A 
ATOM     14  N   UNL     1      -5.340   4.553 122.604  0.00  0.00    +0.000 NA
BRANCH   9  16
ATOM     15  C   UNL     1      -6.943   4.105 119.911  0.00  0.00    +0.000 C 
ATOM     16  O   UNL     1      -5.813   3.560 120.590  0.00  0.00    +0.000 OA
ENDBRANCH   9  16
ENDBRANCH   1  12
BRANCH   7  17
ATOM     17  O   UNL     1      -8.650   6.493 129.612  0.00  0.00    +0.000 OA
BRANCH  17  18
ATOM     18  C   UNL     1      -9.884   6.837 130.149  0.00  0.00    +0.000 A 
ATOM     19  C   UNL     1     -10.289   6.263 131.364  0.00  0.00    +0.000 A 
ATOM     20  C   UNL     1     -11.573   6.524 131.884  0.00  0.00    +0.000 A 
ATOM     21  C   UNL     1     -12.455   7.356 131.197  0.00  0.00    +0.000 A 
ATOM     22  C   UNL     1     -12.057   7.901 129.995  0.00  0.00    +0.000 A 
ATOM     23  F   UNL     1     -12.899   8.712 129.336  0.00  0.00    +0.000 F 
ATOM     24  C   UNL     1     -10.801   7.635 129.451  0.00  0.00    +0.000 A 
ATOM     25  C   UNL     1     -10.497   8.278 128.155  0.00  0.00    +0.000 C 
ENDBRANCH  17  18
ENDBRANCH   7  17
TORSDOF 4
ENDMDL
MODEL 2
REMARK VINA RESULT:      -7.8      2.609      3.042
REMARK  Name = CHEMBL1092497
REMARK  7 active torsions:
REMARK  status: ('A' for Active; 'I' for Inactive)
REMARK    1  A    between atoms: C_1  and  O_2
REMARK    2  A    between atoms: O_2  and  C_3
REMARK    3  A    between atoms: C_6  and  N_7
REMARK    4  A    between atoms: N_7  and  C_8
REMARK    5  A    between atoms: C_13  and  O_14
REMARK    6  A    between atoms: O_14  and  C_15
REMARK    7  A    between atoms: C_21  and  C_22
REMARK                            x       y       z     vdW  Elec       q    Type
REMARK                         _______ _______ _______ _____ _____    ______ ____
ROOT
ATOM      1  N   UNL     1      -6.728   2.097 127.369  0.00  0.00    +0.000 N 
ATOM      2  C   UNL     1      -5.510   2.775 127.818  0.00  0.00    +0.000 C 
ATOM      3  C   UNL     1      -7.982   2.321 128.057  0.00  0.00    +0.000 C 
ATOM      4  O   UNL     1      -9.049   1.818 127.758  0.00  0.00    +0.000 OA
ATOM      5  N   UNL     1      -7.908   3.119 129.213  0.00  0.00    +0.000 N 
ATOM      6  C   UNL     1      -8.988   3.408 130.177  0.00  0.00    +0.000 C 
ATOM      7  C   UNL     1      -8.852   4.918 129.838  0.00  0.00    +0.000 C 
ATOM      8  C   UNL     1      -7.468   4.501 129.276  0.00  0.00    +0.000 C 
ENDROOT
BRANCH   1  12
ATOM      9  C   UNL     1      -6.384  -0.741 124.158  0.00  0.00    +0.000 A 
ATOM     10  C   UNL     1      -5.719  -0.974 125.344  0.00  0.00    +0.000 A 
ATOM     11  C   UNL     1      -5.842  -0.057 126.399  0.00  0.00    +0.000 A 
ATOM     12  C   UNL     1      -6.589   1.116 126.277  0.00  0.00    +0.000 A 
ATOM     13  C   UNL     1      -7.163   1.266 124.998  0.00  0.00    +0.000 A 
ATOM     14  N   UNL     1      -7.083   0.384 123.953  0.00  0.00    +0.000 NA
BRANCH   9  16
ATOM     15  C   UNL     1      -5.484  -2.730 123.337  0.00  0.00    +0.000 C 
ATOM     16  O   UNL     1      -6.335  -1.610 123.099  0.00  0.00    +0.000 OA
ENDBRANCH   9  16
ENDBRANCH   1  12
BRANCH   7  17
ATOM     17  O   UNL     1      -9.884   5.502 128.970  0.00  0.00    +0.000 OA
BRANCH  17  18
ATOM     18  C   UNL     1     -10.789   6.392 129.530  0.00  0.00    +0.000 A 
ATOM     19  C   UNL     1     -11.383   6.084 130.765  0.00  0.00    +0.000 A 
ATOM     20  C   UNL     1     -12.373   6.926 131.311  0.00  0.00    +0.000 A 
ATOM     21  C   UNL     1     -12.774   8.074 130.632  0.00  0.00    +0.000 A 
ATOM     22  C   UNL     1     -12.201   8.361 129.410  0.00  0.00    +0.000 A 
ATOM     23  F   UNL     1     -12.575   9.471 128.758  0.00  0.00    +0.000 F 
ATOM     24  C   UNL     1     -11.238   7.527 128.841  0.00  0.00    +0.000 A 
ATOM     25  C   UNL     1     -10.703   7.944 127.527  0.00  0.00    +0.000 C 
ENDBRANCH  17  18
ENDBRANCH   7  17
TORSDOF 4
ENDMDL
MODEL 3
REMARK VINA RESULT:      -7.7      4.360      7.096
REMARK  Name = CHEMBL1092497
REMARK  7 active torsions:
REMARK  status: ('A' for Active; 'I' for Inactive)
REMARK    1  A    between atoms: C_1  and  O_2
REMARK    2  A    between atoms: O_2  and  C_3
REMARK    3  A    between atoms: C_6  and  N_7
REMARK    4  A    between atoms: N_7  and  C_8
REMARK    5  A    between atoms: C_13  and  O_14
REMARK    6  A    between atoms: O_14  and  C_15
REMARK    7  A    between atoms: C_21  and  C_22
REMARK                            x       y       z     vdW  Elec       q    Type
REMARK                         _______ _______ _______ _____ _____    ______ ____
ROOT
ATOM      1  N   UNL     1      -4.908   5.160 131.820  0.00  0.00    +0.000 N 
ATOM      2  C   UNL     1      -5.531   4.287 132.818  0.00  0.00    +0.000 C 
ATOM      3  C   UNL     1      -5.553   5.381 130.543  0.00  0.00    +0.000 C 
ATOM      4  O   UNL     1      -5.128   6.094 129.654  0.00  0.00    +0.000 OA
ATOM      5  N   UNL     1      -6.718   4.627 130.310  0.00  0.00    +0.000 N 
ATOM      6  C   UNL     1      -7.506   4.550 129.064  0.00  0.00    +0.000 C 
ATOM      7  C   UNL     1      -8.732   5.115 129.833  0.00  0.00    +0.000 C 
ATOM      8  C   UNL     1      -7.941   4.672 131.092  0.00  0.00    +0.000 C 
ENDROOT
BRANCH   1  12
ATOM      9  C   UNL     1      -1.035   6.792 132.721  0.00  0.00    +0.000 A 
ATOM     10  C   UNL     1      -1.150   5.453 132.406  0.00  0.00    +0.000 A 
ATOM     11  C   UNL     1      -2.412   4.922 132.097  0.00  0.00    +0.000 A 
ATOM     12  C   UNL     1      -3.572   5.697 132.135  0.00  0.00    +0.000 A 
ATOM     13  C   UNL     1      -3.325   7.027 132.532  0.00  0.00    +0.000 A 
ATOM     14  N   UNL     1      -2.108   7.587 132.821  0.00  0.00    +0.000 NA
BRANCH   9  16
ATOM     15  C   UNL     1       0.379   7.587 134.397  0.00  0.00    +0.000 C 
ATOM     16  O   UNL     1       0.170   7.384 133.000  0.00  0.00    +0.000 OA
ENDBRANCH   9  16
ENDBRANCH   1  12
BRANCH   7  17
ATOM     17  O   UNL     1      -9.071   6.525 129.602  0.00  0.00    +0.000 OA
BRANCH  17  18
ATOM     18  C   UNL     1     -10.309   6.983 130.031  0.00  0.00    +0.000 A 
ATOM     19  C   UNL     1     -10.875   6.445 131.198  0.00  0.00    +0.000 A 
ATOM     20  C   UNL     1     -12.169   6.827 131.605  0.00  0.00    +0.000 A 
ATOM     21  C   UNL     1     -12.903   7.742 130.854  0.00  0.00    +0.000 A 
ATOM     22  C   UNL     1     -12.349   8.253 129.698  0.00  0.00    +0.000 A 
ATOM     23  F   UNL     1     -13.046   9.143 128.979  0.00  0.00    +0.000 F 
ATOM     24  C   UNL     1     -11.080   7.869 129.265  0.00  0.00    +0.000 A 
ATOM     25  C   UNL     1     -10.600   8.486 128.010  0.00  0.00    +0.000 C 
ENDBRANCH  17  18
ENDBRANCH   7  17
TORSDOF 4
ENDMDL
MODEL 4
REMARK VINA RESULT:      -7.7      6.026      8.581
REMARK  Name = CHEMBL1092497
REMARK  7 active torsions:
REMARK  status: ('A' for Active; 'I' for Inactive)
REMARK    1  A    between atoms: C_1  and  O_2
REMARK    2  A    between atoms: O_2  and  C_3
REMARK    3  A    between atoms: C_6  and  N_7
REMARK    4  A    between atoms: N_7  and  C_8
REMARK    5  A    between atoms: C_13  and  O_14
REMARK    6  A    between atoms: O_14  and  C_15
REMARK    7  A    between atoms: C_21  and  C_22
REMARK                            x       y       z     vdW  Elec       q    Type
REMARK                         _______ _______ _______ _____ _____    ______ ____
ROOT
ATOM      1  N   UNL     1     -10.060   5.612 130.712  0.00  0.00    +0.000 N 
ATOM      2  C   UNL     1     -10.534   4.247 130.467  0.00  0.00    +0.000 C 
ATOM      3  C   UNL     1      -8.821   5.835 131.427  0.00  0.00    +0.000 C 
ATOM      4  O   UNL     1      -8.335   6.922 131.672  0.00  0.00    +0.000 OA
ATOM      5  N   UNL     1      -8.200   4.682 131.944  0.00  0.00    +0.000 N 
ATOM      6  C   UNL     1      -7.010   4.615 132.815  0.00  0.00    +0.000 C 
ATOM      7  C   UNL     1      -6.281   3.799 131.713  0.00  0.00    +0.000 C 
ATOM      8  C   UNL     1      -7.715   3.550 131.175  0.00  0.00    +0.000 C 
ENDROOT
BRANCH   1  12
ATOM      9  C   UNL     1     -12.584   8.864 129.475  0.00  0.00    +0.000 A 
ATOM     10  C   UNL     1     -12.923   8.129 130.593  0.00  0.00    +0.000 A 
ATOM     11  C   UNL     1     -12.092   7.077 131.008  0.00  0.00    +0.000 A 
ATOM     12  C   UNL     1     -10.944   6.717 130.300  0.00  0.00    +0.000 A 
ATOM     13  C   UNL     1     -10.748   7.501 129.145  0.00  0.00    +0.000 A 
ATOM     14  N   UNL     1     -11.523   8.548 128.720  0.00  0.00    +0.000 NA
BRANCH   9  16
ATOM     15  C   UNL     1     -13.481  10.948 130.016  0.00  0.00    +0.000 C 
ATOM     16  O   UNL     1     -13.331   9.925 129.033  0.00  0.00    +0.000 OA
ENDBRANCH   9  16
ENDBRANCH   1  12
BRANCH   7  17
ATOM     17  O   UNL     1      -5.278   4.511 130.910  0.00  0.00    +0.000 OA
BRANCH  17  18
ATOM     18  C   UNL     1      -3.976   4.576 131.388  0.00  0.00    +0.000 A 
ATOM     19  C   UNL     1      -3.535   3.617 132.314  0.00  0.00    +0.000 A 
ATOM     20  C   UNL     1      -2.250   3.713 132.884  0.00  0.00    +0.000 A 
ATOM     21  C   UNL     1      -1.401   4.761 132.534  0.00  0.00    +0.000 A 
ATOM     22  C   UNL     1      -1.847   5.710 131.638  0.00  0.00    +0.000 A 
ATOM     23  F   UNL     1      -1.029   6.713 131.289  0.00  0.00    +0.000 F 
ATOM     24  C   UNL     1      -3.125   5.646 131.083  0.00  0.00    +0.000 A 
ATOM     25  C   UNL     1      -3.484   6.725 130.137  0.00  0.00    +0.000 C 
ENDBRANCH  17  18
ENDBRANCH   7  17
TORSDOF 4
ENDMDL
MODEL 5
REMARK VINA RESULT:      -7.6      5.305      8.630
REMARK  Name = CHEMBL1092497
REMARK  7 active torsions:
REMARK  status: ('A' for Active; 'I' for Inactive)
REMARK    1  A    between atoms: C_1  and  O_2
REMARK    2  A    between atoms: O_2  and  C_3
REMARK    3  A    between atoms: C_6  and  N_7
REMARK    4  A    between atoms: N_7  and  C_8
REMARK    5  A    between atoms: C_13  and  O_14
REMARK    6  A    between atoms: O_14  and  C_15
REMARK    7  A    between atoms: C_21  and  C_22
REMARK                            x       y       z     vdW  Elec       q    Type
REMARK                         _______ _______ _______ _____ _____    ______ ____
ROOT
ATOM      1  N   UNL     1      -9.459   5.894 130.804  0.00  0.00    +0.000 N 
ATOM      2  C   UNL     1      -8.916   6.112 132.147  0.00  0.00    +0.000 C 
ATOM      3  C   UNL     1      -8.913   4.854 129.957  0.00  0.00    +0.000 C 
ATOM      4  O   UNL     1      -9.298   4.584 128.836  0.00  0.00    +0.000 OA
ATOM      5  N   UNL     1      -7.790   4.179 130.470  0.00  0.00    +0.000 N 
ATOM      6  C   UNL     1      -6.954   3.174 129.784  0.00  0.00    +0.000 C 
ATOM      7  C   UNL     1      -7.340   2.142 130.880  0.00  0.00    +0.000 C 
ATOM      8  C   UNL     1      -7.740   3.401 131.695  0.00  0.00    +0.000 C 
ENDROOT
BRANCH   1  12
ATOM      9  C   UNL     1     -12.411   8.687 129.402  0.00  0.00    +0.000 A 
ATOM     10  C   UNL     1     -12.727   7.825 130.432  0.00  0.00    +0.000 A 
ATOM     11  C   UNL     1     -11.760   6.923 130.902  0.00  0.00    +0.000 A 
ATOM     12  C   UNL     1     -10.489   6.838 130.332  0.00  0.00    +0.000 A 
ATOM     13  C   UNL     1     -10.316   7.724 129.249  0.00  0.00    +0.000 A 
ATOM     14  N   UNL     1     -11.227   8.632 128.777  0.00  0.00    +0.000 NA
BRANCH   9  16
ATOM     15  C   UNL     1     -13.439  10.748 129.773  0.00  0.00    +0.000 C 
ATOM     16  O   UNL     1     -13.295   9.616 128.917  0.00  0.00    +0.000 OA
ENDBRANCH   9  16
ENDBRANCH   1  12
BRANCH   7  17
ATOM     17  O   UNL     1      -8.332   1.123 130.515  0.00  0.00    +0.000 OA
BRANCH  17  18
ATOM     18  C   UNL     1      -8.091  -0.193 130.885  0.00  0.00    +0.000 A 
ATOM     19  C   UNL     1      -8.071  -0.533 132.247  0.00  0.00    +0.000 A 
ATOM     20  C   UNL     1      -7.739  -1.841 132.652  0.00  0.00    +0.000 A 
ATOM     21  C   UNL     1      -7.426  -2.813 131.705  0.00  0.00    +0.000 A 
ATOM     22  C   UNL     1      -7.428  -2.469 130.370  0.00  0.00    +0.000 A 
ATOM     23  F   UNL     1      -7.139  -3.404 129.454  0.00  0.00    +0.000 F 
ATOM     24  C   UNL     1      -7.730  -1.173 129.950  0.00  0.00    +0.000 A 
ATOM     25  C   UNL     1      -7.695  -0.931 128.492  0.00  0.00    +0.000 C 
ENDBRANCH  17  18
ENDBRANCH   7  17
TORSDOF 4
ENDMDL
MODEL 6
REMARK VINA RESULT:      -7.6      5.663      7.713
REMARK  Name = CHEMBL1092497
REMARK  7 active torsions:
REMARK  status: ('A' for Active; 'I' for Inactive)
REMARK    1  A    between atoms: C_1  and  O_2
REMARK    2  A    between atoms: O_2  and  C_3
REMARK    3  A    between atoms: C_6  and  N_7
REMARK    4  A    between atoms: N_7  and  C_8
REMARK    5  A    between atoms: C_13  and  O_14
REMARK    6  A    between atoms: O_14  and  C_15
REMARK    7  A    between atoms: C_21  and  C_22
REMARK                            x       y       z     vdW  Elec       q    Type
REMARK                         _______ _______ _______ _____ _____    ______ ____
ROOT
ATOM      1  N   UNL     1      -7.251   2.407 124.620  0.00  0.00    +0.000 N 
ATOM      2  C   UNL     1      -8.688   2.630 124.798  0.00  0.00    +0.000 C 
ATOM      3  C   UNL     1      -6.523   1.569 125.550  0.00  0.00    +0.000 C 
ATOM      4  O   UNL     1      -5.337   1.311 125.485  0.00  0.00    +0.000 OA
ATOM      5  N   UNL     1      -7.260   1.105 126.656  0.00  0.00    +0.000 N 
ATOM      6  C   UNL     1      -6.755   0.349 127.819  0.00  0.00    +0.000 C 
ATOM      7  C   UNL     1      -7.706  -0.820 127.440  0.00  0.00    +0.000 C 
ATOM      8  C   UNL     1      -8.442   0.263 126.608  0.00  0.00    +0.000 C 
ENDROOT
BRANCH   1  12
ATOM      9  C   UNL     1      -5.301   4.630 121.500  0.00  0.00    +0.000 A 
ATOM     10  C   UNL     1      -6.066   3.530 121.173  0.00  0.00    +0.000 A 
ATOM     11  C   UNL     1      -6.717   2.812 122.188  0.00  0.00    +0.000 A 
ATOM     12  C   UNL     1      -6.584   3.149 123.536  0.00  0.00    +0.000 A 
ATOM     13  C   UNL     1      -5.725   4.250 123.740  0.00  0.00    +0.000 A 
ATOM     14  N   UNL     1      -5.091   4.987 122.775  0.00  0.00    +0.000 NA
BRANCH   9  16
ATOM     15  C   UNL     1      -5.437   5.571 119.370  0.00  0.00    +0.000 C 
ATOM     16  O   UNL     1      -4.666   5.397 120.558  0.00  0.00    +0.000 OA
ENDBRANCH   9  16
ENDBRANCH   1  12
BRANCH   7  17
ATOM     17  O   UNL     1      -7.097  -1.992 126.797  0.00  0.00    +0.000 OA
BRANCH  17  18
ATOM     18  C   UNL     1      -7.395  -2.241 125.464  0.00  0.00    +0.000 A 
ATOM     19  C   UNL     1      -6.505  -1.809 124.468  0.00  0.00    +0.000 A 
ATOM     20  C   UNL     1      -6.828  -1.968 123.105  0.00  0.00    +0.000 A 
ATOM     21  C   UNL     1      -8.034  -2.556 122.731  0.00  0.00    +0.000 A 
ATOM     22  C   UNL     1      -8.912  -2.961 123.714  0.00  0.00    +0.000 A 
ATOM     23  F   UNL     1     -10.069  -3.539 123.358  0.00  0.00    +0.000 F 
ATOM     24  C   UNL     1      -8.622  -2.790 125.067  0.00  0.00    +0.000 A 
ATOM     25  C   UNL     1      -9.647  -3.264 126.023  0.00  0.00    +0.000 C 
ENDBRANCH  17  18
ENDBRANCH   7  17
TORSDOF 4
ENDMDL
MODEL 7
REMARK VINA RESULT:      -7.4      5.224      7.082
REMARK  Name = CHEMBL1092497
REMARK  7 active torsions:
REMARK  status: ('A' for Active; 'I' for Inactive)
REMARK    1  A    between atoms: C_1  and  O_2
REMARK    2  A    between atoms: O_2  and  C_3
REMARK    3  A    between atoms: C_6  and  N_7
REMARK    4  A    between atoms: N_7  and  C_8
REMARK    5  A    between atoms: C_13  and  O_14
REMARK    6  A    between atoms: O_14  and  C_15
REMARK    7  A    between atoms: C_21  and  C_22
REMARK                            x       y       z     vdW  Elec       q    Type
REMARK                         _______ _______ _______ _____ _____    ______ ____
ROOT
ATOM      1  N   UNL     1      -6.950   2.917 124.894  0.00  0.00    +0.000 N 
ATOM      2  C   UNL     1      -8.383   3.097 125.141  0.00  0.00    +0.000 C 
ATOM      3  C   UNL     1      -6.098   2.361 125.924  0.00  0.00    +0.000 C 
ATOM      4  O   UNL     1      -4.903   2.160 125.817  0.00  0.00    +0.000 OA
ATOM      5  N   UNL     1      -6.717   2.127 127.166  0.00  0.00    +0.000 N 
ATOM      6  C   UNL     1      -6.076   1.692 128.423  0.00  0.00    +0.000 C 
ATOM      7  C   UNL     1      -6.964   0.417 128.405  0.00  0.00    +0.000 C 
ATOM      8  C   UNL     1      -7.835   1.235 127.414  0.00  0.00    +0.000 C 
ENDROOT
BRANCH   1  12
ATOM      9  C   UNL     1      -5.381   4.450 121.198  0.00  0.00    +0.000 A 
ATOM     10  C   UNL     1      -6.321   3.441 121.169  0.00  0.00    +0.000 A 
ATOM     11  C   UNL     1      -6.846   2.950 122.374  0.00  0.00    +0.000 A 
ATOM     12  C   UNL     1      -6.418   3.422 123.616  0.00  0.00    +0.000 A 
ATOM     13  C   UNL     1      -5.411   4.403 123.508  0.00  0.00    +0.000 A 
ATOM     14  N   UNL     1      -4.890   4.922 122.352  0.00  0.00    +0.000 NA
BRANCH   9  16
ATOM     15  C   UNL     1      -5.841   5.325 119.085  0.00  0.00    +0.000 C 
ATOM     16  O   UNL     1      -4.850   5.000 120.059  0.00  0.00    +0.000 OA
ENDBRANCH   9  16
ENDBRANCH   1  12
BRANCH   7  17
ATOM     17  O   UNL     1      -6.319  -0.838 127.996  0.00  0.00    +0.000 OA
BRANCH  17  18
ATOM     18  C   UNL     1      -7.094  -1.802 127.366  0.00  0.00    +0.000 A 
ATOM     19  C   UNL     1      -7.114  -1.861 125.963  0.00  0.00    +0.000 A 
ATOM     20  C   UNL     1      -7.962  -2.770 125.299  0.00  0.00    +0.000 A 
ATOM     21  C   UNL     1      -8.791  -3.621 126.026  0.00  0.00    +0.000 A 
ATOM     22  C   UNL     1      -8.781  -3.545 127.404  0.00  0.00    +0.000 A 
ATOM     23  F   UNL     1      -9.568  -4.370 128.108  0.00  0.00    +0.000 F 
ATOM     24  C   UNL     1      -7.968  -2.635 128.079  0.00  0.00    +0.000 A 
ATOM     25  C   UNL     1      -8.051  -2.651 129.555  0.00  0.00    +0.000 C 
ENDBRANCH  17  18
ENDBRANCH   7  17
TORSDOF 4
ENDMDL
MODEL 8
REMARK VINA RESULT:      -7.2      8.686     11.789
REMARK  Name = CHEMBL1092497
REMARK  7 active torsions:
REMARK  status: ('A' for Active; 'I' for Inactive)
REMARK    1  A    between atoms: C_1  and  O_2
REMARK    2  A    between atoms: O_2  and  C_3
REMARK    3  A    between atoms: C_6  and  N_7
REMARK    4  A    between atoms: N_7  and  C_8
REMARK    5  A    between atoms: C_13  and  O_14
REMARK    6  A    between atoms: O_14  and  C_15
REMARK    7  A    between atoms: C_21  and  C_22
REMARK                            x       y       z     vdW  Elec       q    Type
REMARK                         _______ _______ _______ _____ _____    ______ ____
ROOT
ATOM      1  N   UNL     1      -5.781  -2.824 131.495  0.00  0.00    +0.000 N 
ATOM      2  C   UNL     1      -6.155  -1.440 131.797  0.00  0.00    +0.000 C 
ATOM      3  C   UNL     1      -6.472  -3.554 130.453  0.00  0.00    +0.000 C 
ATOM      4  O   UNL     1      -6.233  -4.698 130.117  0.00  0.00    +0.000 OA
ATOM      5  N   UNL     1      -7.560  -2.887 129.861  0.00  0.00    +0.000 N 
ATOM      6  C   UNL     1      -8.518  -3.426 128.874  0.00  0.00    +0.000 C 
ATOM      7  C   UNL     1      -8.059  -2.334 127.869  0.00  0.00    +0.000 C 
ATOM      8  C   UNL     1      -7.506  -1.629 129.137  0.00  0.00    +0.000 C 
ENDROOT
BRANCH   1  12
ATOM      9  C   UNL     1      -2.776  -4.620 133.990  0.00  0.00    +0.000 A 
ATOM     10  C   UNL     1      -3.984  -5.264 133.812  0.00  0.00    +0.000 A 
ATOM     11  C   UNL     1      -4.960  -4.687 132.985  0.00  0.00    +0.000 A 
ATOM     12  C   UNL     1      -4.768  -3.453 132.362  0.00  0.00    +0.000 A 
ATOM     13  C   UNL     1      -3.523  -2.871 132.677  0.00  0.00    +0.000 A 
ATOM     14  N   UNL     1      -2.538  -3.413 133.460  0.00  0.00    +0.000 NA
BRANCH   9  16
ATOM     15  C   UNL     1      -1.990  -6.503 135.120  0.00  0.00    +0.000 C 
ATOM     16  O   UNL     1      -1.766  -5.142 134.756  0.00  0.00    +0.000 OA
ENDBRANCH   9  16
ENDBRANCH   1  12
BRANCH   7  17
ATOM     17  O   UNL     1      -7.166  -2.761 126.784  0.00  0.00    +0.000 OA
BRANCH  17  18
ATOM     18  C   UNL     1      -7.604  -2.615 125.475  0.00  0.00    +0.000 A 
ATOM     19  C   UNL     1      -8.883  -3.075 125.123  0.00  0.00    +0.000 A 
ATOM     20  C   UNL     1      -9.316  -3.023 123.783  0.00  0.00    +0.000 A 
ATOM     21  C   UNL     1      -8.481  -2.514 122.791  0.00  0.00    +0.000 A 
ATOM     22  C   UNL     1      -7.218  -2.081 123.141  0.00  0.00    +0.000 A 
ATOM     23  F   UNL     1      -6.415  -1.580 122.192  0.00  0.00    +0.000 F 
ATOM     24  C   UNL     1      -6.762  -2.148 124.457  0.00  0.00    +0.000 A 
ATOM     25  C   UNL     1      -5.389  -1.655 124.701  0.00  0.00    +0.000 C 
ENDBRANCH  17  18
ENDBRANCH   7  17
TORSDOF 4
ENDMDL
MODEL 9
REMARK VINA RESULT:      -7.2      5.451      8.619
REMARK  Name = CHEMBL1092497
REMARK  7 active torsions:
REMARK  status: ('A' for Active; 'I' for Inactive)
REMARK    1  A    between atoms: C_1  and  O_2
REMARK    2  A    between atoms: O_2  and  C_3
REMARK    3  A    between atoms: C_6  and  N_7
REMARK    4  A    between atoms: N_7  and  C_8
REMARK    5  A    between atoms: C_13  and  O_14
REMARK    6  A    between atoms: O_14  and  C_15
REMARK    7  A    between atoms: C_21  and  C_22
REMARK                            x       y       z     vdW  Elec       q    Type
REMARK                         _______ _______ _______ _____ _____    ______ ____
ROOT
ATOM      1  N   UNL     1      -5.500   3.899 125.370  0.00  0.00    +0.000 N 
ATOM      2  C   UNL     1      -5.636   4.626 124.105  0.00  0.00    +0.000 C 
ATOM      3  C   UNL     1      -6.355   2.764 125.652  0.00  0.00    +0.000 C 
ATOM      4  O   UNL     1      -6.316   2.088 126.662  0.00  0.00    +0.000 OA
ATOM      5  N   UNL     1      -7.359   2.506 124.701  0.00  0.00    +0.000 N 
ATOM      6  C   UNL     1      -8.444   1.508 124.786  0.00  0.00    +0.000 C 
ATOM      7  C   UNL     1      -7.880   0.823 123.511  0.00  0.00    +0.000 C 
ATOM      8  C   UNL     1      -7.152   2.178 123.302  0.00  0.00    +0.000 C 
ENDROOT
BRANCH   1  12
ATOM      9  C   UNL     1      -2.756   5.533 128.246  0.00  0.00    +0.000 A 
ATOM     10  C   UNL     1      -2.411   4.392 127.552  0.00  0.00    +0.000 A 
ATOM     11  C   UNL     1      -3.299   3.865 126.601  0.00  0.00    +0.000 A 
ATOM     12  C   UNL     1      -4.549   4.437 126.358  0.00  0.00    +0.000 A 
ATOM     13  C   UNL     1      -4.804   5.557 127.176  0.00  0.00    +0.000 A 
ATOM     14  N   UNL     1      -3.955   6.111 128.098  0.00  0.00    +0.000 NA
BRANCH   9  16
ATOM     15  C   UNL     1      -2.629   6.749 130.233  0.00  0.00    +0.000 C 
ATOM     16  O   UNL     1      -1.924   6.120 129.163  0.00  0.00    +0.000 OA
ENDBRANCH   9  16
ENDBRANCH   1  12
BRANCH   7  17
ATOM     17  O   UNL     1      -7.128  -0.424 123.702  0.00  0.00    +0.000 OA
BRANCH  17  18
ATOM     18  C   UNL     1      -7.841  -1.596 123.919  0.00  0.00    +0.000 A 
ATOM     19  C   UNL     1      -8.683  -2.086 122.908  0.00  0.00    +0.000 A 
ATOM     20  C   UNL     1      -9.486  -3.221 123.137  0.00  0.00    +0.000 A 
ATOM     21  C   UNL     1      -9.454  -3.871 124.368  0.00  0.00    +0.000 A 
ATOM     22  C   UNL     1      -8.639  -3.373 125.363  0.00  0.00    +0.000 A 
ATOM     23  F   UNL     1      -8.595  -4.003 126.547  0.00  0.00    +0.000 F 
ATOM     24  C   UNL     1      -7.856  -2.236 125.166  0.00  0.00    +0.000 A 
ATOM     25  C   UNL     1      -7.027  -1.803 126.312  0.00  0.00    +0.000 C 
ENDBRANCH  17  18
ENDBRANCH   7  17
TORSDOF 4
ENDMDL
