MODEL 1
REMARK VINA RESULT:      -9.9      0.000      0.000
REMARK  Name = CHEMBL338522
REMARK  8 active torsions:
REMARK  status: ('A' for Active; 'I' for Inactive)
REMARK    1  A    between atoms: C_1  and  C_2
REMARK    2  A    between atoms: C_2  and  C_3
REMARK    3  A    between atoms: C_7  and  C_8
REMARK    4  A    between atoms: C_8  and  S_9
REMARK    5  A    between atoms: S_9  and  N_12
REMARK    6  A    between atoms: C_26  and  N_27
REMARK    7  A    between atoms: C_28  and  C_30
REMARK    8  A    between atoms: C_30  and  C_31
REMARK                            x       y       z     vdW  Elec       q    Type
REMARK                         _______ _______ _______ _____ _____    ______ ____
ROOT
ATOM      1  C   UNL     1      -9.217  -2.385 125.769  0.00  0.00    +0.000 C 
ATOM      2  C   UNL     1      -8.282  -2.486 124.554  0.00  0.00    +0.000 C 
ATOM      3  C   UNL     1      -7.820  -3.947 124.521  0.00  0.00    +0.000 C 
ATOM      4  C   UNL     1      -8.938  -2.057 123.238  0.00  0.00    +0.000 C 
ATOM      5  C   UNL     1      -7.778  -2.117 122.208  0.00  0.00    +0.000 C 
ATOM      6  C   UNL     1      -6.534  -1.748 123.044  0.00  0.00    +0.000 C 
ATOM      7  C   UNL     1      -7.145  -1.401 124.436  0.00  0.00    +0.000 C 
ATOM      8  C   UNL     1      -7.970  -0.063 124.202  0.00  0.00    +0.000 C 
ATOM      9  C   UNL     1      -9.231  -0.581 123.464  0.00  0.00    +0.000 C 
ENDROOT
BRANCH   8  10
ATOM     10  N   UNL     1      -7.199   0.928 123.430  0.00  0.00    +0.000 N 
ATOM     11  C   UNL     1      -7.263   2.285 123.629  0.00  0.00    +0.000 C 
ATOM     12  O   UNL     1      -7.941   2.769 124.530  0.00  0.00    +0.000 OA
ATOM     13  H   UNL     1      -6.341   0.596 122.996  0.00  0.00    +0.000 HD
BRANCH  11  14
ATOM     14  C   UNL     1      -6.409   3.137 122.706  0.00  0.00    +0.000 C 
BRANCH  14  15
ATOM     15  C   UNL     1      -7.177   3.509 121.475  0.00  0.00    +0.000 A 
ATOM     16  C   UNL     1      -6.708   4.035 120.293  0.00  0.00    +0.000 A 
ATOM     17  N   UNL     1      -7.821   4.274 119.534  0.00  0.00    +0.000 N 
ATOM     18  C   UNL     1      -8.912   3.906 120.261  0.00  0.00    +0.000 A 
ATOM     19  N   UNL     1      -8.548   3.365 121.394  0.00  0.00    +0.000 NA
ATOM     20  H   UNL     1      -7.842   4.654 118.600  0.00  0.00    +0.000 HD
ENDBRANCH  14  15
ENDBRANCH  11  14
ENDBRANCH   8  10
BRANCH   7  21
ATOM     21  C   UNL     1      -6.105  -1.413 125.596  0.00  0.00    +0.000 C 
BRANCH  21  22
ATOM     22  S   UNL     1      -6.176   0.117 126.613  0.00  0.00    +0.000 S 
ATOM     23  O   UNL     1      -5.255   1.090 126.021  0.00  0.00    +0.000 OA
ATOM     24  O   UNL     1      -7.558   0.459 126.741  0.00  0.00    +0.000 OA
BRANCH  22  25
ATOM     25  N   UNL     1      -5.674  -0.266 128.201  0.00  0.00    +0.000 NA
ATOM     26  C   UNL     1      -6.299   0.371 129.460  0.00  0.00    +0.000 C 
ATOM     27  C   UNL     1      -7.621  -0.327 130.072  0.00  0.00    +0.000 C 
ATOM     28  C   UNL     1      -7.499  -1.971 130.589  0.00  0.00    +0.000 C 
ATOM     29  C   UNL     1      -6.121  -2.132 130.961  0.00  0.00    +0.000 C 
ATOM     30  C   UNL     1      -6.550  -3.652 130.410  0.00  0.00    +0.000 C 
ATOM     31  C   UNL     1      -6.355  -4.092 131.665  0.00  0.00    +0.000 A 
ATOM     32  C   UNL     1      -5.256  -5.059 131.805  0.00  0.00    +0.000 A 
ATOM     33  C   UNL     1      -4.856  -5.438 133.004  0.00  0.00    +0.000 A 
ATOM     34  C   UNL     1      -5.519  -4.664 133.932  0.00  0.00    +0.000 A 
ATOM     35  C   UNL     1      -6.580  -3.451 133.522  0.00  0.00    +0.000 A 
ATOM     36  C   UNL     1      -7.255  -3.162 132.231  0.00  0.00    +0.000 A 
ATOM     37  C   UNL     1      -7.055  -2.290 128.781  0.00  0.00    +0.000 C 
ATOM     38  C   UNL     1      -5.607  -1.737 128.343  0.00  0.00    +0.000 C 
ENDBRANCH  22  25
ENDBRANCH  21  22
ENDBRANCH   7  21
TORSDOF 6
ENDMDL
MODEL 2
REMARK VINA RESULT:      -9.5      1.459      2.057
REMARK  Name = CHEMBL338522
REMARK  8 active torsions:
REMARK  status: ('A' for Active; 'I' for Inactive)
REMARK    1  A    between atoms: C_1  and  C_2
REMARK    2  A    between atoms: C_2  and  C_3
REMARK    3  A    between atoms: C_7  and  C_8
REMARK    4  A    between atoms: C_8  and  S_9
REMARK    5  A    between atoms: S_9  and  N_12
REMARK    6  A    between atoms: C_26  and  N_27
REMARK    7  A    between atoms: C_28  and  C_30
REMARK    8  A    between atoms: C_30  and  C_31
REMARK                            x       y       z     vdW  Elec       q    Type
REMARK                         _______ _______ _______ _____ _____    ______ ____
ROOT
ATOM      1  C   UNL     1      -9.355  -3.437 124.253  0.00  0.00    +0.000 C 
ATOM      2  C   UNL     1      -7.972  -2.781 124.110  0.00  0.00    +0.000 C 
ATOM      3  C   UNL     1      -6.966  -3.926 124.265  0.00  0.00    +0.000 C 
ATOM      4  C   UNL     1      -7.787  -2.022 122.792  0.00  0.00    +0.000 C 
ATOM      5  C   UNL     1      -6.396  -1.352 122.943  0.00  0.00    +0.000 C 
ATOM      6  C   UNL     1      -6.296  -1.065 124.456  0.00  0.00    +0.000 C 
ATOM      7  C   UNL     1      -7.698  -1.498 124.982  0.00  0.00    +0.000 C 
ATOM      8  C   UNL     1      -8.713  -0.441 124.367  0.00  0.00    +0.000 C 
ATOM      9  C   UNL     1      -8.813  -0.903 122.891  0.00  0.00    +0.000 C 
ENDROOT
BRANCH   8  10
ATOM     10  N   UNL     1      -8.226   0.941 124.522  0.00  0.00    +0.000 N 
ATOM     11  C   UNL     1      -9.038   2.041 124.640  0.00  0.00    +0.000 C 
ATOM     12  O   UNL     1     -10.260   1.933 124.686  0.00  0.00    +0.000 OA
ATOM     13  H   UNL     1      -7.292   1.051 124.912  0.00  0.00    +0.000 HD
BRANCH  11  14
ATOM     14  C   UNL     1      -8.336   3.382 124.761  0.00  0.00    +0.000 C 
BRANCH  14  15
ATOM     15  C   UNL     1      -7.298   3.530 123.690  0.00  0.00    +0.000 A 
ATOM     16  C   UNL     1      -6.018   4.025 123.793  0.00  0.00    +0.000 A 
ATOM     17  N   UNL     1      -5.525   4.026 122.517  0.00  0.00    +0.000 N 
ATOM     18  C   UNL     1      -6.498   3.555 121.690  0.00  0.00    +0.000 A 
ATOM     19  N   UNL     1      -7.540   3.170 122.380  0.00  0.00    +0.000 NA
ATOM     20  H   UNL     1      -4.605   4.322 122.228  0.00  0.00    +0.000 HD
ENDBRANCH  14  15
ENDBRANCH  11  14
ENDBRANCH   8  10
BRANCH   7  21
ATOM     21  C   UNL     1      -7.744  -1.730 126.522  0.00  0.00    +0.000 C 
BRANCH  21  22
ATOM     22  S   UNL     1      -6.689  -0.538 127.441  0.00  0.00    +0.000 S 
ATOM     23  O   UNL     1      -5.327  -0.646 126.912  0.00  0.00    +0.000 OA
ATOM     24  O   UNL     1      -7.356   0.725 127.385  0.00  0.00    +0.000 OA
BRANCH  22  25
ATOM     25  N   UNL     1      -6.705  -0.965 129.095  0.00  0.00    +0.000 NA
ATOM     26  C   UNL     1      -7.816  -1.824 129.733  0.00  0.00    +0.000 C 
ATOM     27  C   UNL     1      -7.649  -3.429 129.670  0.00  0.00    +0.000 C 
ATOM     28  C   UNL     1      -6.256  -4.126 130.417  0.00  0.00    +0.000 C 
ATOM     29  C   UNL     1      -5.914  -3.210 131.468  0.00  0.00    +0.000 C 
ATOM     30  C   UNL     1      -4.433  -3.842 131.012  0.00  0.00    +0.000 C 
ATOM     31  C   UNL     1      -4.364  -4.393 132.236  0.00  0.00    +0.000 A 
ATOM     32  C   UNL     1      -3.265  -3.882 133.071  0.00  0.00    +0.000 A 
ATOM     33  C   UNL     1      -3.190  -4.218 134.345  0.00  0.00    +0.000 A 
ATOM     34  C   UNL     1      -4.336  -4.913 134.664  0.00  0.00    +0.000 A 
ATOM     35  C   UNL     1      -5.571  -5.188 133.586  0.00  0.00    +0.000 A 
ATOM     36  C   UNL     1      -5.597  -5.069 132.105  0.00  0.00    +0.000 A 
ATOM     37  C   UNL     1      -5.312  -3.062 129.174  0.00  0.00    +0.000 C 
ATOM     38  C   UNL     1      -5.369  -1.480 129.472  0.00  0.00    +0.000 C 
ENDBRANCH  22  25
ENDBRANCH  21  22
ENDBRANCH   7  21
TORSDOF 6
ENDMDL
MODEL 3
REMARK VINA RESULT:      -9.2      5.513      8.665
REMARK  Name = CHEMBL338522
REMARK  8 active torsions:
REMARK  status: ('A' for Active; 'I' for Inactive)
REMARK    1  A    between atoms: C_1  and  C_2
REMARK    2  A    between atoms: C_2  and  C_3
REMARK    3  A    between atoms: C_7  and  C_8
REMARK    4  A    between atoms: C_8  and  S_9
REMARK    5  A    between atoms: S_9  and  N_12
REMARK    6  A    between atoms: C_26  and  N_27
REMARK    7  A    between atoms: C_28  and  C_30
REMARK    8  A    between atoms: C_30  and  C_31
REMARK                            x       y       z     vdW  Elec       q    Type
REMARK                         _______ _______ _______ _____ _____    ______ ____
ROOT
ATOM      1  C   UNL     1      -5.698   4.357 132.652  0.00  0.00    +0.000 C 
ATOM      2  C   UNL     1      -7.052   3.696 132.955  0.00  0.00    +0.000 C 
ATOM      3  C   UNL     1      -6.710   2.409 133.713  0.00  0.00    +0.000 C 
ATOM      4  C   UNL     1      -8.011   4.594 133.742  0.00  0.00    +0.000 C 
ATOM      5  C   UNL     1      -9.325   3.771 133.804  0.00  0.00    +0.000 C 
ATOM      6  C   UNL     1      -9.319   2.984 132.475  0.00  0.00    +0.000 C 
ATOM      7  C   UNL     1      -8.056   3.541 131.750  0.00  0.00    +0.000 C 
ATOM      8  C   UNL     1      -8.412   5.051 131.403  0.00  0.00    +0.000 C 
ATOM      9  C   UNL     1      -8.273   5.745 132.782  0.00  0.00    +0.000 C 
ENDROOT
BRANCH   8  10
ATOM     10  N   UNL     1      -9.756   5.174 130.813  0.00  0.00    +0.000 N 
ATOM     11  C   UNL     1     -10.167   6.229 130.036  0.00  0.00    +0.000 C 
ATOM     12  O   UNL     1      -9.398   7.134 129.726  0.00  0.00    +0.000 OA
ATOM     13  H   UNL     1     -10.269   4.308 130.668  0.00  0.00    +0.000 HD
BRANCH  11  14
ATOM     14  C   UNL     1     -11.604   6.180 129.548  0.00  0.00    +0.000 C 
BRANCH  14  15
ATOM     15  C   UNL     1     -12.144   7.565 129.363  0.00  0.00    +0.000 A 
ATOM     16  C   UNL     1     -12.205   8.320 128.214  0.00  0.00    +0.000 A 
ATOM     17  N   UNL     1     -12.700   9.535 128.603  0.00  0.00    +0.000 N 
ATOM     18  C   UNL     1     -12.912   9.492 129.947  0.00  0.00    +0.000 A 
ATOM     19  N   UNL     1     -12.667   8.295 130.412  0.00  0.00    +0.000 NA
ATOM     20  H   UNL     1     -12.881  10.329 128.008  0.00  0.00    +0.000 HD
ENDBRANCH  14  15
ENDBRANCH  11  14
ENDBRANCH   8  10
BRANCH   7  21
ATOM     21  C   UNL     1      -7.551   2.634 130.589  0.00  0.00    +0.000 C 
BRANCH  21  22
ATOM     22  S   UNL     1      -7.467   3.533 128.987  0.00  0.00    +0.000 S 
ATOM     23  O   UNL     1      -8.826   3.614 128.448  0.00  0.00    +0.000 OA
ATOM     24  O   UNL     1      -6.745   4.742 129.234  0.00  0.00    +0.000 OA
BRANCH  22  25
ATOM     25  N   UNL     1      -6.472   2.644 127.919  0.00  0.00    +0.000 NA
ATOM     26  C   UNL     1      -5.428   1.614 128.400  0.00  0.00    +0.000 C 
ATOM     27  C   UNL     1      -5.931   0.101 128.652  0.00  0.00    +0.000 C 
ATOM     28  C   UNL     1      -6.612  -0.756 127.315  0.00  0.00    +0.000 C 
ATOM     29  C   UNL     1      -5.986  -0.178 126.159  0.00  0.00    +0.000 C 
ATOM     30  C   UNL     1      -7.498  -0.622 125.596  0.00  0.00    +0.000 C 
ATOM     31  C   UNL     1      -6.872  -1.503 124.798  0.00  0.00    +0.000 A 
ATOM     32  C   UNL     1      -7.024  -1.235 123.359  0.00  0.00    +0.000 A 
ATOM     33  C   UNL     1      -6.324  -1.925 122.479  0.00  0.00    +0.000 A 
ATOM     34  C   UNL     1      -5.426  -2.706 123.175  0.00  0.00    +0.000 A 
ATOM     35  C   UNL     1      -5.281  -2.679 124.831  0.00  0.00    +0.000 A 
ATOM     36  C   UNL     1      -6.198  -2.135 125.866  0.00  0.00    +0.000 A 
ATOM     37  C   UNL     1      -7.883   0.641 127.333  0.00  0.00    +0.000 C 
ATOM     38  C   UNL     1      -7.313   2.067 126.846  0.00  0.00    +0.000 C 
ENDBRANCH  22  25
ENDBRANCH  21  22
ENDBRANCH   7  21
TORSDOF 6
ENDMDL
MODEL 4
REMARK VINA RESULT:      -9.2      5.182      8.323
REMARK  Name = CHEMBL338522
REMARK  8 active torsions:
REMARK  status: ('A' for Active; 'I' for Inactive)
REMARK    1  A    between atoms: C_1  and  C_2
REMARK    2  A    between atoms: C_2  and  C_3
REMARK    3  A    between atoms: C_7  and  C_8
REMARK    4  A    between atoms: C_8  and  S_9
REMARK    5  A    between atoms: S_9  and  N_12
REMARK    6  A    between atoms: C_26  and  N_27
REMARK    7  A    between atoms: C_28  and  C_30
REMARK    8  A    between atoms: C_30  and  C_31
REMARK                            x       y       z     vdW  Elec       q    Type
REMARK                         _______ _______ _______ _____ _____    ______ ____
ROOT
ATOM      1  C   UNL     1      -3.975   5.567 130.277  0.00  0.00    +0.000 C 
ATOM      2  C   UNL     1      -4.927   4.489 130.819  0.00  0.00    +0.000 C 
ATOM      3  C   UNL     1      -4.152   3.172 130.703  0.00  0.00    +0.000 C 
ATOM      4  C   UNL     1      -5.404   4.755 132.251  0.00  0.00    +0.000 C 
ATOM      5  C   UNL     1      -6.435   3.626 132.514  0.00  0.00    +0.000 C 
ATOM      6  C   UNL     1      -7.059   3.376 131.124  0.00  0.00    +0.000 C 
ATOM      7  C   UNL     1      -6.394   4.478 130.245  0.00  0.00    +0.000 C 
ATOM      8  C   UNL     1      -6.985   5.851 130.788  0.00  0.00    +0.000 C 
ATOM      9  C   UNL     1      -6.206   6.041 132.114  0.00  0.00    +0.000 C 
ENDROOT
BRANCH   8  10
ATOM     10  N   UNL     1      -8.446   5.785 130.967  0.00  0.00    +0.000 N 
ATOM     11  C   UNL     1      -9.321   6.767 130.572  0.00  0.00    +0.000 C 
ATOM     12  O   UNL     1      -8.934   7.766 129.973  0.00  0.00    +0.000 OA
ATOM     13  H   UNL     1      -8.852   4.855 131.048  0.00  0.00    +0.000 HD
BRANCH  11  14
ATOM     14  C   UNL     1     -10.788   6.518 130.875  0.00  0.00    +0.000 C 
BRANCH  14  15
ATOM     15  C   UNL     1     -11.651   7.073 129.784  0.00  0.00    +0.000 A 
ATOM     16  C   UNL     1     -12.460   8.186 129.807  0.00  0.00    +0.000 A 
ATOM     17  N   UNL     1     -13.095   8.199 128.595  0.00  0.00    +0.000 N 
ATOM     18  C   UNL     1     -12.674   7.114 127.888  0.00  0.00    +0.000 A 
ATOM     19  N   UNL     1     -11.744   6.471 128.545  0.00  0.00    +0.000 NA
ATOM     20  H   UNL     1     -13.759   8.886 128.271  0.00  0.00    +0.000 HD
ENDBRANCH  14  15
ENDBRANCH  11  14
ENDBRANCH   8  10
BRANCH   7  21
ATOM     21  C   UNL     1      -6.497   4.205 128.715  0.00  0.00    +0.000 C 
BRANCH  21  22
ATOM     22  S   UNL     1      -8.237   3.998 128.157  0.00  0.00    +0.000 S 
ATOM     23  O   UNL     1      -9.002   3.442 129.275  0.00  0.00    +0.000 OA
ATOM     24  O   UNL     1      -8.638   5.252 127.598  0.00  0.00    +0.000 OA
BRANCH  22  25
ATOM     25  N   UNL     1      -8.257   2.910 126.841  0.00  0.00    +0.000 NA
ATOM     26  C   UNL     1      -7.175   2.896 125.741  0.00  0.00    +0.000 C 
ATOM     27  C   UNL     1      -5.847   2.017 126.010  0.00  0.00    +0.000 C 
ATOM     28  C   UNL     1      -6.042   0.320 126.268  0.00  0.00    +0.000 C 
ATOM     29  C   UNL     1      -7.237  -0.021 125.548  0.00  0.00    +0.000 C 
ATOM     30  C   UNL     1      -7.238  -1.100 126.827  0.00  0.00    +0.000 C 
ATOM     31  C   UNL     1      -7.086  -2.078 125.918  0.00  0.00    +0.000 A 
ATOM     32  C   UNL     1      -8.214  -3.019 125.844  0.00  0.00    +0.000 A 
ATOM     33  C   UNL     1      -8.262  -3.921 124.882  0.00  0.00    +0.000 A 
ATOM     34  C   UNL     1      -7.230  -3.658 124.008  0.00  0.00    +0.000 A 
ATOM     35  C   UNL     1      -6.187  -2.375 124.181  0.00  0.00    +0.000 A 
ATOM     36  C   UNL     1      -5.924  -1.504 125.357  0.00  0.00    +0.000 A 
ATOM     37  C   UNL     1      -7.082   0.874 127.745  0.00  0.00    +0.000 C 
ATOM     38  C   UNL     1      -8.494   1.541 127.352  0.00  0.00    +0.000 C 
ENDBRANCH  22  25
ENDBRANCH  21  22
ENDBRANCH   7  21
TORSDOF 6
ENDMDL
MODEL 5
REMARK VINA RESULT:      -9.2      3.347      5.179
REMARK  Name = CHEMBL338522
REMARK  8 active torsions:
REMARK  status: ('A' for Active; 'I' for Inactive)
REMARK    1  A    between atoms: C_1  and  C_2
REMARK    2  A    between atoms: C_2  and  C_3
REMARK    3  A    between atoms: C_7  and  C_8
REMARK    4  A    between atoms: C_8  and  S_9
REMARK    5  A    between atoms: S_9  and  N_12
REMARK    6  A    between atoms: C_26  and  N_27
REMARK    7  A    between atoms: C_28  and  C_30
REMARK    8  A    between atoms: C_30  and  C_31
REMARK                            x       y       z     vdW  Elec       q    Type
REMARK                         _______ _______ _______ _____ _____    ______ ____
ROOT
ATOM      1  C   UNL     1      -9.536  -3.300 124.022  0.00  0.00    +0.000 C 
ATOM      2  C   UNL     1      -8.077  -2.842 124.178  0.00  0.00    +0.000 C 
ATOM      3  C   UNL     1      -7.282  -4.121 124.459  0.00  0.00    +0.000 C 
ATOM      4  C   UNL     1      -7.540  -2.080 122.963  0.00  0.00    +0.000 C 
ATOM      5  C   UNL     1      -6.128  -1.618 123.410  0.00  0.00    +0.000 C 
ATOM      6  C   UNL     1      -6.287  -1.389 124.928  0.00  0.00    +0.000 C 
ATOM      7  C   UNL     1      -7.809  -1.635 125.156  0.00  0.00    +0.000 C 
ATOM      8  C   UNL     1      -8.536  -0.428 124.418  0.00  0.00    +0.000 C 
ATOM      9  C   UNL     1      -8.407  -0.830 122.927  0.00  0.00    +0.000 C 
ENDROOT
BRANCH   8  10
ATOM     10  N   UNL     1      -7.908   0.866 124.738  0.00  0.00    +0.000 N 
ATOM     11  C   UNL     1      -8.592   2.049 124.864  0.00  0.00    +0.000 C 
ATOM     12  O   UNL     1      -9.816   2.094 124.776  0.00  0.00    +0.000 OA
ATOM     13  H   UNL     1      -7.018   0.829 125.229  0.00  0.00    +0.000 HD
BRANCH  11  14
ATOM     14  C   UNL     1      -7.754   3.278 125.168  0.00  0.00    +0.000 C 
BRANCH  14  15
ATOM     15  C   UNL     1      -6.825   3.575 124.031  0.00  0.00    +0.000 A 
ATOM     16  C   UNL     1      -5.705   4.374 124.019  0.00  0.00    +0.000 A 
ATOM     17  N   UNL     1      -5.274   4.378 122.720  0.00  0.00    +0.000 N 
ATOM     18  C   UNL     1      -6.128   3.608 121.992  0.00  0.00    +0.000 A 
ATOM     19  N   UNL     1      -7.017   3.046 122.770  0.00  0.00    +0.000 NA
ATOM     20  H   UNL     1      -4.467   4.860 122.356  0.00  0.00    +0.000 HD
ENDBRANCH  14  15
ENDBRANCH  11  14
ENDBRANCH   8  10
BRANCH   7  21
ATOM     21  C   UNL     1      -8.185  -1.901 126.644  0.00  0.00    +0.000 C 
BRANCH  21  22
ATOM     22  S   UNL     1      -6.899  -1.293 127.809  0.00  0.00    +0.000 S 
ATOM     23  O   UNL     1      -7.332  -1.628 129.167  0.00  0.00    +0.000 OA
ATOM     24  O   UNL     1      -5.648  -1.798 127.335  0.00  0.00    +0.000 OA
BRANCH  22  25
ATOM     25  N   UNL     1      -6.775   0.402 127.640  0.00  0.00    +0.000 NA
ATOM     26  C   UNL     1      -7.649   1.395 128.435  0.00  0.00    +0.000 C 
ATOM     27  C   UNL     1      -7.130   1.843 129.897  0.00  0.00    +0.000 C 
ATOM     28  C   UNL     1      -5.597   2.632 130.003  0.00  0.00    +0.000 C 
ATOM     29  C   UNL     1      -5.439   3.286 128.734  0.00  0.00    +0.000 C 
ATOM     30  C   UNL     1      -3.868   2.915 129.174  0.00  0.00    +0.000 C 
ATOM     31  C   UNL     1      -3.644   4.238 129.249  0.00  0.00    +0.000 A 
ATOM     32  C   UNL     1      -2.665   4.745 128.275  0.00  0.00    +0.000 A 
ATOM     33  C   UNL     1      -2.483   6.044 128.133  0.00  0.00    +0.000 A 
ATOM     34  C   UNL     1      -3.436   6.687 128.893  0.00  0.00    +0.000 A 
ATOM     35  C   UNL     1      -4.608   5.888 129.761  0.00  0.00    +0.000 A 
ATOM     36  C   UNL     1      -4.699   4.460 130.161  0.00  0.00    +0.000 A 
ATOM     37  C   UNL     1      -4.948   1.021 129.261  0.00  0.00    +0.000 C 
ATOM     38  C   UNL     1      -5.348   0.791 127.717  0.00  0.00    +0.000 C 
ENDBRANCH  22  25
ENDBRANCH  21  22
ENDBRANCH   7  21
TORSDOF 6
ENDMDL
MODEL 6
REMARK VINA RESULT:      -8.9      4.591      8.810
REMARK  Name = CHEMBL338522
REMARK  8 active torsions:
REMARK  status: ('A' for Active; 'I' for Inactive)
REMARK    1  A    between atoms: C_1  and  C_2
REMARK    2  A    between atoms: C_2  and  C_3
REMARK    3  A    between atoms: C_7  and  C_8
REMARK    4  A    between atoms: C_8  and  S_9
REMARK    5  A    between atoms: S_9  and  N_12
REMARK    6  A    between atoms: C_26  and  N_27
REMARK    7  A    between atoms: C_28  and  C_30
REMARK    8  A    between atoms: C_30  and  C_31
REMARK                            x       y       z     vdW  Elec       q    Type
REMARK                         _______ _______ _______ _____ _____    ______ ____
ROOT
ATOM      1  C   UNL     1      -3.539   6.720 127.978  0.00  0.00    +0.000 C 
ATOM      2  C   UNL     1      -3.451   5.422 128.797  0.00  0.00    +0.000 C 
ATOM      3  C   UNL     1      -2.443   4.542 128.050  0.00  0.00    +0.000 C 
ATOM      4  C   UNL     1      -3.052   5.646 130.259  0.00  0.00    +0.000 C 
ATOM      5  C   UNL     1      -3.162   4.234 130.894  0.00  0.00    +0.000 C 
ATOM      6  C   UNL     1      -4.315   3.574 130.107  0.00  0.00    +0.000 C 
ATOM      7  C   UNL     1      -4.812   4.731 129.189  0.00  0.00    +0.000 C 
ATOM      8  C   UNL     1      -5.463   5.792 130.178  0.00  0.00    +0.000 C 
ATOM      9  C   UNL     1      -4.215   6.455 130.815  0.00  0.00    +0.000 C 
ENDROOT
BRANCH   8  10
ATOM     10  N   UNL     1      -6.355   5.149 131.159  0.00  0.00    +0.000 N 
ATOM     11  C   UNL     1      -7.391   5.785 131.798  0.00  0.00    +0.000 C 
ATOM     12  O   UNL     1      -7.686   6.948 131.538  0.00  0.00    +0.000 OA
ATOM     13  H   UNL     1      -6.444   4.138 131.097  0.00  0.00    +0.000 HD
BRANCH  11  14
ATOM     14  C   UNL     1      -8.173   4.951 132.797  0.00  0.00    +0.000 C 
BRANCH  14  15
ATOM     15  C   UNL     1      -9.232   4.152 132.100  0.00  0.00    +0.000 A 
ATOM     16  C   UNL     1      -9.556   2.824 132.263  0.00  0.00    +0.000 A 
ATOM     17  N   UNL     1     -10.525   2.570 131.331  0.00  0.00    +0.000 N 
ATOM     18  C   UNL     1     -10.752   3.718 130.636  0.00  0.00    +0.000 A 
ATOM     19  N   UNL     1     -10.051   4.703 131.135  0.00  0.00    +0.000 NA
ATOM     20  H   UNL     1     -10.996   1.691 131.177  0.00  0.00    +0.000 HD
ENDBRANCH  14  15
ENDBRANCH  11  14
ENDBRANCH   8  10
BRANCH   7  21
ATOM     21  C   UNL     1      -5.672   4.248 127.983  0.00  0.00    +0.000 C 
BRANCH  21  22
ATOM     22  S   UNL     1      -7.388   3.813 128.479  0.00  0.00    +0.000 S 
ATOM     23  O   UNL     1      -7.307   2.945 129.655  0.00  0.00    +0.000 OA
ATOM     24  O   UNL     1      -8.111   5.043 128.572  0.00  0.00    +0.000 OA
BRANCH  22  25
ATOM     25  N   UNL     1      -8.127   2.972 127.187  0.00  0.00    +0.000 NA
ATOM     26  C   UNL     1      -7.776   3.226 125.706  0.00  0.00    +0.000 C 
ATOM     27  C   UNL     1      -6.533   2.406 125.081  0.00  0.00    +0.000 C 
ATOM     28  C   UNL     1      -6.621   0.680 125.085  0.00  0.00    +0.000 C 
ATOM     29  C   UNL     1      -8.027   0.390 125.038  0.00  0.00    +0.000 C 
ATOM     30  C   UNL     1      -7.399  -0.894 125.907  0.00  0.00    +0.000 C 
ATOM     31  C   UNL     1      -7.774  -1.685 124.888  0.00  0.00    +0.000 A 
ATOM     32  C   UNL     1      -8.807  -2.673 125.235  0.00  0.00    +0.000 A 
ATOM     33  C   UNL     1      -9.379  -3.394 124.290  0.00  0.00    +0.000 A 
ATOM     34  C   UNL     1      -8.944  -2.912 123.074  0.00  0.00    +0.000 A 
ATOM     35  C   UNL     1      -7.921  -1.611 122.917  0.00  0.00    +0.000 A 
ATOM     36  C   UNL     1      -7.056  -0.943 123.924  0.00  0.00    +0.000 A 
ATOM     37  C   UNL     1      -6.721   0.895 126.959  0.00  0.00    +0.000 C 
ATOM     38  C   UNL     1      -8.109   1.522 127.484  0.00  0.00    +0.000 C 
ENDBRANCH  22  25
ENDBRANCH  21  22
ENDBRANCH   7  21
TORSDOF 6
ENDMDL
MODEL 7
REMARK VINA RESULT:      -8.9      5.058      8.550
REMARK  Name = CHEMBL338522
REMARK  8 active torsions:
REMARK  status: ('A' for Active; 'I' for Inactive)
REMARK    1  A    between atoms: C_1  and  C_2
REMARK    2  A    between atoms: C_2  and  C_3
REMARK    3  A    between atoms: C_7  and  C_8
REMARK    4  A    between atoms: C_8  and  S_9
REMARK    5  A    between atoms: S_9  and  N_12
REMARK    6  A    between atoms: C_26  and  N_27
REMARK    7  A    between atoms: C_28  and  C_30
REMARK    8  A    between atoms: C_30  and  C_31
REMARK                            x       y       z     vdW  Elec       q    Type
REMARK                         _______ _______ _______ _____ _____    ______ ____
ROOT
ATOM      1  C   UNL     1      -9.501   3.070 132.631  0.00  0.00    +0.000 C 
ATOM      2  C   UNL     1      -9.512   4.238 131.633  0.00  0.00    +0.000 C 
ATOM      3  C   UNL     1     -10.609   3.892 130.621  0.00  0.00    +0.000 C 
ATOM      4  C   UNL     1      -9.739   5.603 132.289  0.00  0.00    +0.000 C 
ATOM      5  C   UNL     1      -9.575   6.609 131.119  0.00  0.00    +0.000 C 
ATOM      6  C   UNL     1      -8.528   5.934 130.207  0.00  0.00    +0.000 C 
ATOM      7  C   UNL     1      -8.124   4.670 131.024  0.00  0.00    +0.000 C 
ATOM      8  C   UNL     1      -7.351   5.230 132.295  0.00  0.00    +0.000 C 
ATOM      9  C   UNL     1      -8.510   5.772 133.171  0.00  0.00    +0.000 C 
ENDROOT
BRANCH   8  10
ATOM     10  N   UNL     1      -6.361   6.257 131.925  0.00  0.00    +0.000 N 
ATOM     11  C   UNL     1      -5.017   6.022 131.779  0.00  0.00    +0.000 C 
ATOM     12  O   UNL     1      -4.549   4.892 131.891  0.00  0.00    +0.000 OA
ATOM     13  H   UNL     1      -6.715   7.065 131.416  0.00  0.00    +0.000 HD
BRANCH  11  14
ATOM     14  C   UNL     1      -4.161   7.224 131.421  0.00  0.00    +0.000 C 
BRANCH  14  15
ATOM     15  C   UNL     1      -3.432   6.986 130.134  0.00  0.00    +0.000 A 
ATOM     16  C   UNL     1      -2.229   6.351 129.931  0.00  0.00    +0.000 A 
ATOM     17  N   UNL     1      -1.970   6.483 128.594  0.00  0.00    +0.000 N 
ATOM     18  C   UNL     1      -2.992   7.187 128.035  0.00  0.00    +0.000 A 
ATOM     19  N   UNL     1      -3.923   7.426 128.921  0.00  0.00    +0.000 NA
ATOM     20  H   UNL     1      -1.167   6.125 128.098  0.00  0.00    +0.000 HD
ENDBRANCH  14  15
ENDBRANCH  11  14
ENDBRANCH   8  10
BRANCH   7  21
ATOM     21  C   UNL     1      -7.413   3.575 130.173  0.00  0.00    +0.000 C 
BRANCH  21  22
ATOM     22  S   UNL     1      -7.104   4.124 128.446  0.00  0.00    +0.000 S 
ATOM     23  O   UNL     1      -8.360   4.656 127.914  0.00  0.00    +0.000 OA
ATOM     24  O   UNL     1      -5.954   4.973 128.487  0.00  0.00    +0.000 OA
BRANCH  22  25
ATOM     25  N   UNL     1      -6.611   2.770 127.528  0.00  0.00    +0.000 NA
ATOM     26  C   UNL     1      -5.941   1.527 128.152  0.00  0.00    +0.000 C 
ATOM     27  C   UNL     1      -6.906   0.364 128.721  0.00  0.00    +0.000 C 
ATOM     28  C   UNL     1      -7.993  -0.396 127.615  0.00  0.00    +0.000 C 
ATOM     29  C   UNL     1      -7.344  -0.287 126.338  0.00  0.00    +0.000 C 
ATOM     30  C   UNL     1      -8.971  -0.239 125.948  0.00  0.00    +0.000 C 
ATOM     31  C   UNL     1      -8.787  -1.407 125.310  0.00  0.00    +0.000 A 
ATOM     32  C   UNL     1      -9.003  -1.346 123.857  0.00  0.00    +0.000 A 
ATOM     33  C   UNL     1      -8.694  -2.380 123.097  0.00  0.00    +0.000 A 
ATOM     34  C   UNL     1      -8.049  -3.305 123.889  0.00  0.00    +0.000 A 
ATOM     35  C   UNL     1      -7.712  -3.057 125.498  0.00  0.00    +0.000 A 
ATOM     36  C   UNL     1      -8.256  -2.053 126.449  0.00  0.00    +0.000 A 
ATOM     37  C   UNL     1      -8.688   1.349 127.418  0.00  0.00    +0.000 C 
ATOM     38  C   UNL     1      -7.718   2.367 126.632  0.00  0.00    +0.000 C 
ENDBRANCH  22  25
ENDBRANCH  21  22
ENDBRANCH   7  21
TORSDOF 6
ENDMDL
MODEL 8
REMARK VINA RESULT:      -8.9      4.676      7.030
REMARK  Name = CHEMBL338522
REMARK  8 active torsions:
REMARK  status: ('A' for Active; 'I' for Inactive)
REMARK    1  A    between atoms: C_1  and  C_2
REMARK    2  A    between atoms: C_2  and  C_3
REMARK    3  A    between atoms: C_7  and  C_8
REMARK    4  A    between atoms: C_8  and  S_9
REMARK    5  A    between atoms: S_9  and  N_12
REMARK    6  A    between atoms: C_26  and  N_27
REMARK    7  A    between atoms: C_28  and  C_30
REMARK    8  A    between atoms: C_30  and  C_31
REMARK                            x       y       z     vdW  Elec       q    Type
REMARK                         _______ _______ _______ _____ _____    ______ ____
ROOT
ATOM      1  C   UNL     1      -7.803  -2.668 127.927  0.00  0.00    +0.000 C 
ATOM      2  C   UNL     1      -6.592  -1.830 127.490  0.00  0.00    +0.000 C 
ATOM      3  C   UNL     1      -5.376  -2.521 128.117  0.00  0.00    +0.000 C 
ATOM      4  C   UNL     1      -6.459  -1.690 125.970  0.00  0.00    +0.000 C 
ATOM      5  C   UNL     1      -5.268  -0.711 125.791  0.00  0.00    +0.000 C 
ATOM      6  C   UNL     1      -5.372   0.213 127.023  0.00  0.00    +0.000 C 
ATOM      7  C   UNL     1      -6.686  -0.272 127.707  0.00  0.00    +0.000 C 
ATOM      8  C   UNL     1      -7.849   0.144 126.706  0.00  0.00    +0.000 C 
ATOM      9  C   UNL     1      -7.710  -0.915 125.584  0.00  0.00    +0.000 C 
ENDROOT
BRANCH   8  10
ATOM     10  N   UNL     1      -7.693   1.531 126.232  0.00  0.00    +0.000 N 
ATOM     11  C   UNL     1      -8.631   2.207 125.491  0.00  0.00    +0.000 C 
ATOM     12  O   UNL     1      -9.717   1.703 125.220  0.00  0.00    +0.000 OA
ATOM     13  H   UNL     1      -7.055   2.121 126.760  0.00  0.00    +0.000 HD
BRANCH  11  14
ATOM     14  C   UNL     1      -8.264   3.620 125.076  0.00  0.00    +0.000 C 
BRANCH  14  15
ATOM     15  C   UNL     1      -7.435   3.603 123.828  0.00  0.00    +0.000 A 
ATOM     16  C   UNL     1      -7.716   3.018 122.615  0.00  0.00    +0.000 A 
ATOM     17  N   UNL     1      -6.600   3.217 121.848  0.00  0.00    +0.000 N 
ATOM     18  C   UNL     1      -5.689   3.892 122.600  0.00  0.00    +0.000 A 
ATOM     19  N   UNL     1      -6.197   4.211 123.762  0.00  0.00    +0.000 NA
ATOM     20  H   UNL     1      -6.466   2.921 120.893  0.00  0.00    +0.000 HD
ENDBRANCH  14  15
ENDBRANCH  11  14
ENDBRANCH   8  10
BRANCH   7  21
ATOM     21  C   UNL     1      -6.820   0.176 129.193  0.00  0.00    +0.000 C 
BRANCH  21  22
ATOM     22  S   UNL     1      -6.671   1.998 129.390  0.00  0.00    +0.000 S 
ATOM     23  O   UNL     1      -6.122   2.260 130.723  0.00  0.00    +0.000 OA
ATOM     24  O   UNL     1      -5.965   2.476 128.243  0.00  0.00    +0.000 OA
BRANCH  22  25
ATOM     25  N   UNL     1      -8.229   2.686 129.259  0.00  0.00    +0.000 NA
ATOM     26  C   UNL     1      -9.338   2.467 130.309  0.00  0.00    +0.000 C 
ATOM     27  C   UNL     1      -9.375   3.466 131.578  0.00  0.00    +0.000 C 
ATOM     28  C   UNL     1      -9.573   5.154 131.270  0.00  0.00    +0.000 C 
ATOM     29  C   UNL     1     -10.305   5.213 130.035  0.00  0.00    +0.000 C 
ATOM     30  C   UNL     1      -9.365   6.596 129.990  0.00  0.00    +0.000 C 
ATOM     31  C   UNL     1     -10.509   7.299 130.049  0.00  0.00    +0.000 A 
ATOM     32  C   UNL     1     -10.784   8.113 128.855  0.00  0.00    +0.000 A 
ATOM     33  C   UNL     1     -11.950   8.715 128.718  0.00  0.00    +0.000 A 
ATOM     34  C   UNL     1     -12.766   8.289 129.744  0.00  0.00    +0.000 A 
ATOM     35  C   UNL     1     -12.300   7.168 130.880  0.00  0.00    +0.000 A 
ATOM     36  C   UNL     1     -10.946   6.666 131.234  0.00  0.00    +0.000 A 
ATOM     37  C   UNL     1      -7.958   4.959 130.310  0.00  0.00    +0.000 C 
ATOM     38  C   UNL     1      -8.095   4.124 128.939  0.00  0.00    +0.000 C 
ENDBRANCH  22  25
ENDBRANCH  21  22
ENDBRANCH   7  21
TORSDOF 6
ENDMDL
MODEL 9
REMARK VINA RESULT:      -8.8      4.231      6.385
REMARK  Name = CHEMBL338522
REMARK  8 active torsions:
REMARK  status: ('A' for Active; 'I' for Inactive)
REMARK    1  A    between atoms: C_1  and  C_2
REMARK    2  A    between atoms: C_2  and  C_3
REMARK    3  A    between atoms: C_7  and  C_8
REMARK    4  A    between atoms: C_8  and  S_9
REMARK    5  A    between atoms: S_9  and  N_12
REMARK    6  A    between atoms: C_26  and  N_27
REMARK    7  A    between atoms: C_28  and  C_30
REMARK    8  A    between atoms: C_30  and  C_31
REMARK                            x       y       z     vdW  Elec       q    Type
REMARK                         _______ _______ _______ _____ _____    ______ ____
ROOT
ATOM      1  C   UNL     1      -8.017  -2.770 127.582  0.00  0.00    +0.000 C 
ATOM      2  C   UNL     1      -6.865  -2.099 126.817  0.00  0.00    +0.000 C 
ATOM      3  C   UNL     1      -5.598  -2.462 127.598  0.00  0.00    +0.000 C 
ATOM      4  C   UNL     1      -6.779  -2.519 125.346  0.00  0.00    +0.000 C 
ATOM      5  C   UNL     1      -5.650  -1.624 124.770  0.00  0.00    +0.000 C 
ATOM      6  C   UNL     1      -5.773  -0.319 125.586  0.00  0.00    +0.000 C 
ATOM      7  C   UNL     1      -7.041  -0.575 126.456  0.00  0.00    +0.000 C 
ATOM      8  C   UNL     1      -8.250  -0.603 125.425  0.00  0.00    +0.000 C 
ATOM      9  C   UNL     1      -8.081  -1.993 124.760  0.00  0.00    +0.000 C 
ENDROOT
BRANCH   8  10
ATOM     10  N   UNL     1      -8.184   0.520 124.473  0.00  0.00    +0.000 N 
ATOM     11  C   UNL     1      -9.280   1.147 123.936  0.00  0.00    +0.000 C 
ATOM     12  O   UNL     1     -10.421   0.843 124.273  0.00  0.00    +0.000 OA
ATOM     13  H   UNL     1      -7.333   1.078 124.489  0.00  0.00    +0.000 HD
BRANCH  11  14
ATOM     14  C   UNL     1      -8.995   2.265 122.949  0.00  0.00    +0.000 C 
BRANCH  14  15
ATOM     15  C   UNL     1      -7.836   3.093 123.412  0.00  0.00    +0.000 A 
ATOM     16  C   UNL     1      -7.804   4.061 124.389  0.00  0.00    +0.000 A 
ATOM     17  N   UNL     1      -6.534   4.569 124.356  0.00  0.00    +0.000 N 
ATOM     18  C   UNL     1      -5.847   3.919 123.377  0.00  0.00    +0.000 A 
ATOM     19  N   UNL     1      -6.579   2.970 122.854  0.00  0.00    +0.000 NA
ATOM     20  H   UNL     1      -6.161   5.295 124.949  0.00  0.00    +0.000 HD
ENDBRANCH  14  15
ENDBRANCH  11  14
ENDBRANCH   8  10
BRANCH   7  21
ATOM     21  C   UNL     1      -7.161   0.378 127.682  0.00  0.00    +0.000 C 
BRANCH  21  22
ATOM     22  S   UNL     1      -6.509   2.060 127.327  0.00  0.00    +0.000 S 
ATOM     23  O   UNL     1      -5.760   1.993 126.070  0.00  0.00    +0.000 OA
ATOM     24  O   UNL     1      -7.617   2.958 127.426  0.00  0.00    +0.000 OA
BRANCH  22  25
ATOM     25  N   UNL     1      -5.465   2.516 128.601  0.00  0.00    +0.000 NA
ATOM     26  C   UNL     1      -3.955   2.199 128.608  0.00  0.00    +0.000 C 
ATOM     27  C   UNL     1      -2.968   3.247 127.877  0.00  0.00    +0.000 C 
ATOM     28  C   UNL     1      -2.942   4.873 128.461  0.00  0.00    +0.000 C 
ATOM     29  C   UNL     1      -3.301   4.765 129.847  0.00  0.00    +0.000 C 
ATOM     30  C   UNL     1      -3.907   6.262 129.409  0.00  0.00    +0.000 C 
ATOM     31  C   UNL     1      -3.018   6.800 130.262  0.00  0.00    +0.000 A 
ATOM     32  C   UNL     1      -3.622   7.506 131.402  0.00  0.00    +0.000 A 
ATOM     33  C   UNL     1      -2.864   7.932 132.395  0.00  0.00    +0.000 A 
ATOM     34  C   UNL     1      -1.590   7.449 132.187  0.00  0.00    +0.000 A 
ATOM     35  C   UNL     1      -1.180   6.464 130.911  0.00  0.00    +0.000 A 
ATOM     36  C   UNL     1      -1.910   6.175 129.649  0.00  0.00    +0.000 A 
ATOM     37  C   UNL     1      -4.769   4.856 127.980  0.00  0.00    +0.000 C 
ATOM     38  C   UNL     1      -5.698   3.941 128.927  0.00  0.00    +0.000 C 
ENDBRANCH  22  25
ENDBRANCH  21  22
ENDBRANCH   7  21
TORSDOF 6
ENDMDL
