MODEL 1
REMARK VINA RESULT:      -8.0      0.000      0.000
REMARK  Name = CHEMBL194374
REMARK  12 active torsions:
REMARK  status: ('A' for Active; 'I' for Inactive)
REMARK    1  A    between atoms: CD1_1  and  CG_2
REMARK    2  A    between atoms: CG_2  and  CD2_3
REMARK    3  A    between atoms: CG_2  and  CB_4
REMARK    4  A    between atoms: CB_4  and  CA_5
REMARK    5  A    between atoms: C_9  and  C_10
REMARK    6  A    between atoms: N_21  and  C_22
REMARK    7  A    between atoms: C_22  and  C_23
REMARK    8  A    between atoms: C_22  and  C_30
REMARK    9  A    between atoms: N_25  and  C_26
REMARK   10  A    between atoms: C_26  and  C_27
REMARK   11  A    between atoms: C_26  and  C_28
REMARK   12  A    between atoms: C_26  and  C_29
REMARK                            x       y       z     vdW  Elec       q    Type
REMARK                         _______ _______ _______ _____ _____    ______ ____
ROOT
ATOM      1  CA  LEU A   2      -8.227   1.164 129.703  0.00  0.00    +0.000 C 
ATOM      2  C   LEU A   2      -7.666  -0.220 129.331  0.00  0.00    +0.000 C 
ATOM      3  O   LEU A   2      -7.630  -1.205 130.028  0.00  0.00    +0.000 OA
ATOM      4  N   UNK A   1      -7.276  -0.275 128.028  0.00  0.00    +0.000 N 
ATOM      5  C   UNK A   1      -7.404   0.850 127.125  0.00  0.00    +0.000 C 
ATOM      6  C   UNK A   1      -6.953   2.136 127.824  0.00  0.00    +0.000 C 
ATOM      7  O   UNK A   1      -6.425   2.998 127.138  0.00  0.00    +0.000 OA
ATOM      8  N   LEU A   2      -7.239   2.220 129.189  0.00  0.00    +0.000 N 
ATOM      9  H   UNK A   1      -6.948  -1.185 127.734  0.00  0.00    +0.000 HD
ENDROOT
BRANCH   5  10
ATOM     10  C   UNK A   1      -6.472   0.735 125.898  0.00  0.00    +0.000 C 
ATOM     11  C   UNK A   1      -7.221   0.849 124.571  0.00  0.00    +0.000 C 
ATOM     12  C   UNK A   1      -7.549  -0.587 124.305  0.00  0.00    +0.000 A 
ATOM     13  C   UNK A   1      -8.568  -1.082 123.519  0.00  0.00    +0.000 A 
ATOM     14  C   UNK A   1      -8.782  -2.460 123.516  0.00  0.00    +0.000 A 
ATOM     15  C   UNK A   1      -7.990  -3.317 124.300  0.00  0.00    +0.000 A 
ATOM     16  C   UNK A   1      -6.962  -2.809 125.092  0.00  0.00    +0.000 A 
ATOM     17  C   UNK A   1      -6.741  -1.444 125.068  0.00  0.00    +0.000 A 
ATOM     18  C   UNK A   1      -5.772  -0.659 125.894  0.00  0.00    +0.000 C 
ENDBRANCH   5  10
BRANCH   1  19
ATOM     19  CB  LEU A   2      -8.453   1.162 131.186  0.00  0.00    +0.000 C 
BRANCH  19  21
ATOM     20  CD1 LEU A   2      -9.217   2.677 133.034  0.00  0.00    +0.000 C 
ATOM     21  CG  LEU A   2      -9.660   1.752 131.881  0.00  0.00    +0.000 C 
ATOM     22  CD2 LEU A   2     -10.457   2.606 130.894  0.00  0.00    +0.000 C 
ENDBRANCH  19  21
ENDBRANCH   1  19
BRANCH   8  23
ATOM     23  C   UNK A   0      -6.568   3.310 130.065  0.00  0.00    +0.000 C 
BRANCH  23  24
ATOM     24  C   UNK A   0      -7.430   4.586 130.301  0.00  0.00    +0.000 A 
ATOM     25  C   UNK A   0      -8.492   4.955 129.464  0.00  0.00    +0.000 A 
ATOM     26  C   UNK A   0      -9.265   6.085 129.679  0.00  0.00    +0.000 A 
ATOM     27  C   UNK A   0      -9.122   6.782 130.860  0.00  0.00    +0.000 A 
ATOM     28  C   UNK A   0      -8.113   6.429 131.750  0.00  0.00    +0.000 A 
ATOM     29  C   UNK A   0      -7.213   5.403 131.429  0.00  0.00    +0.000 A 
ENDBRANCH  23  24
BRANCH  23  30
ATOM     30  C   UNK A   0      -4.999   3.679 129.733  0.00  0.00    +0.000 C 
ATOM     31  O   UNK A   0      -4.050   2.978 130.078  0.00  0.00    +0.000 OA
ATOM     32  N   UNK A   0      -4.659   4.776 128.959  0.00  0.00    +0.000 N 
ATOM     33  H   UNK A   0      -5.191   4.975 128.139  0.00  0.00    +0.000 HD
BRANCH  32  34
ATOM     34  C   UNK A   0      -3.312   5.251 128.736  0.00  0.00    +0.000 C 
ATOM     35  C   UNK A   0      -2.662   5.471 130.097  0.00  0.00    +0.000 C 
ATOM     36  C   UNK A   0      -2.637   4.235 127.816  0.00  0.00    +0.000 C 
ATOM     37  C   UNK A   0      -3.381   6.617 128.011  0.00  0.00    +0.000 C 
ENDBRANCH  32  34
ENDBRANCH  23  30
ENDBRANCH   8  23
TORSDOF 7
ENDMDL
MODEL 2
REMARK VINA RESULT:      -8.0      1.940      7.842
REMARK  Name = CHEMBL194374
REMARK  12 active torsions:
REMARK  status: ('A' for Active; 'I' for Inactive)
REMARK    1  A    between atoms: CD1_1  and  CG_2
REMARK    2  A    between atoms: CG_2  and  CD2_3
REMARK    3  A    between atoms: CG_2  and  CB_4
REMARK    4  A    between atoms: CB_4  and  CA_5
REMARK    5  A    between atoms: C_9  and  C_10
REMARK    6  A    between atoms: N_21  and  C_22
REMARK    7  A    between atoms: C_22  and  C_23
REMARK    8  A    between atoms: C_22  and  C_30
REMARK    9  A    between atoms: N_25  and  C_26
REMARK   10  A    between atoms: C_26  and  C_27
REMARK   11  A    between atoms: C_26  and  C_28
REMARK   12  A    between atoms: C_26  and  C_29
REMARK                            x       y       z     vdW  Elec       q    Type
REMARK                         _______ _______ _______ _____ _____    ______ ____
ROOT
ATOM      1  CA  LEU A   2      -5.480   2.560 127.597  0.00  0.00    +0.000 C 
ATOM      2  C   LEU A   2      -5.242   2.011 129.014  0.00  0.00    +0.000 C 
ATOM      3  O   LEU A   2      -4.187   1.704 129.512  0.00  0.00    +0.000 OA
ATOM      4  N   UNK A   1      -6.388   1.993 129.749  0.00  0.00    +0.000 N 
ATOM      5  C   UNK A   1      -7.658   2.457 129.230  0.00  0.00    +0.000 C 
ATOM      6  C   UNK A   1      -7.861   1.938 127.803  0.00  0.00    +0.000 C 
ATOM      7  O   UNK A   1      -9.003   1.692 127.447  0.00  0.00    +0.000 OA
ATOM      8  N   LEU A   2      -6.708   1.843 127.020  0.00  0.00    +0.000 N 
ATOM      9  H   UNK A   1      -6.261   1.685 130.704  0.00  0.00    +0.000 HD
ENDROOT
BRANCH   5  10
ATOM     10  C   UNK A   1      -8.863   1.893 130.016  0.00  0.00    +0.000 C 
ATOM     11  C   UNK A   1      -9.833   2.982 130.477  0.00  0.00    +0.000 C 
ATOM     12  C   UNK A   1      -9.267   3.318 131.820  0.00  0.00    +0.000 A 
ATOM     13  C   UNK A   1      -9.418   4.494 132.523  0.00  0.00    +0.000 A 
ATOM     14  C   UNK A   1      -8.690   4.652 133.702  0.00  0.00    +0.000 A 
ATOM     15  C   UNK A   1      -7.820   3.645 134.155  0.00  0.00    +0.000 A 
ATOM     16  C   UNK A   1      -7.672   2.458 133.439  0.00  0.00    +0.000 A 
ATOM     17  C   UNK A   1      -8.417   2.301 132.285  0.00  0.00    +0.000 A 
ATOM     18  C   UNK A   1      -8.362   1.172 131.305  0.00  0.00    +0.000 C 
ENDBRANCH   5  10
BRANCH   1  19
ATOM     19  CB  LEU A   2      -4.204   2.367 126.832  0.00  0.00    +0.000 C 
BRANCH  19  21
ATOM     20  CD1 LEU A   2      -3.428   4.690 127.375  0.00  0.00    +0.000 C 
ATOM     21  CG  LEU A   2      -3.250   3.475 126.441  0.00  0.00    +0.000 C 
ATOM     22  CD2 LEU A   2      -1.808   2.991 126.593  0.00  0.00    +0.000 C 
ENDBRANCH  19  21
ENDBRANCH   1  19
BRANCH   8  23
ATOM     23  C   UNK A   0      -6.729   1.048 125.688  0.00  0.00    +0.000 C 
BRANCH  23  24
ATOM     24  C   UNK A   0      -7.320   1.820 124.472  0.00  0.00    +0.000 A 
ATOM     25  C   UNK A   0      -6.531   2.558 123.579  0.00  0.00    +0.000 A 
ATOM     26  C   UNK A   0      -7.056   3.238 122.492  0.00  0.00    +0.000 A 
ATOM     27  C   UNK A   0      -8.375   3.037 122.147  0.00  0.00    +0.000 A 
ATOM     28  C   UNK A   0      -9.194   2.274 122.974  0.00  0.00    +0.000 A 
ATOM     29  C   UNK A   0      -8.697   1.750 124.175  0.00  0.00    +0.000 A 
ENDBRANCH  23  24
BRANCH  23  30
ATOM     30  C   UNK A   0      -7.263  -0.508 125.750  0.00  0.00    +0.000 C 
ATOM     31  O   UNK A   0      -7.071  -1.253 126.708  0.00  0.00    +0.000 OA
ATOM     32  N   UNK A   0      -8.048  -1.046 124.744  0.00  0.00    +0.000 N 
ATOM     33  H   UNK A   0      -8.782  -0.494 124.353  0.00  0.00    +0.000 HD
BRANCH  32  34
ATOM     34  C   UNK A   0      -8.442  -2.433 124.649  0.00  0.00    +0.000 C 
ATOM     35  C   UNK A   0      -7.173  -3.277 124.602  0.00  0.00    +0.000 C 
ATOM     36  C   UNK A   0      -9.393  -2.699 125.815  0.00  0.00    +0.000 C 
ATOM     37  C   UNK A   0      -9.207  -2.642 123.320  0.00  0.00    +0.000 C 
ENDBRANCH  32  34
ENDBRANCH  23  30
ENDBRANCH   8  23
TORSDOF 7
ENDMDL
MODEL 3
REMARK VINA RESULT:      -8.0      2.274      7.979
REMARK  Name = CHEMBL194374
REMARK  12 active torsions:
REMARK  status: ('A' for Active; 'I' for Inactive)
REMARK    1  A    between atoms: CD1_1  and  CG_2
REMARK    2  A    between atoms: CG_2  and  CD2_3
REMARK    3  A    between atoms: CG_2  and  CB_4
REMARK    4  A    between atoms: CB_4  and  CA_5
REMARK    5  A    between atoms: C_9  and  C_10
REMARK    6  A    between atoms: N_21  and  C_22
REMARK    7  A    between atoms: C_22  and  C_23
REMARK    8  A    between atoms: C_22  and  C_30
REMARK    9  A    between atoms: N_25  and  C_26
REMARK   10  A    between atoms: C_26  and  C_27
REMARK   11  A    between atoms: C_26  and  C_28
REMARK   12  A    between atoms: C_26  and  C_29
REMARK                            x       y       z     vdW  Elec       q    Type
REMARK                         _______ _______ _______ _____ _____    ______ ____
ROOT
ATOM      1  CA  LEU A   2      -7.496   1.755 126.221  0.00  0.00    +0.000 C 
ATOM      2  C   LEU A   2      -7.020   3.080 126.843  0.00  0.00    +0.000 C 
ATOM      3  O   LEU A   2      -6.354   3.936 126.316  0.00  0.00    +0.000 OA
ATOM      4  N   UNK A   1      -7.531   3.266 128.091  0.00  0.00    +0.000 N 
ATOM      5  C   UNK A   1      -8.425   2.316 128.720  0.00  0.00    +0.000 C 
ATOM      6  C   UNK A   1      -7.915   0.889 128.495  0.00  0.00    +0.000 C 
ATOM      7  O   UNK A   1      -8.125   0.067 129.375  0.00  0.00    +0.000 OA
ATOM      8  N   LEU A   2      -7.294   0.651 127.267  0.00  0.00    +0.000 N 
ATOM      9  H   UNK A   1      -7.280   4.150 128.512  0.00  0.00    +0.000 HD
ENDROOT
BRANCH   5  10
ATOM     10  C   UNK A   1      -8.468   2.469 130.257  0.00  0.00    +0.000 C 
ATOM     11  C   UNK A   1      -9.867   2.787 130.783  0.00  0.00    +0.000 C 
ATOM     12  C   UNK A   1      -9.848   4.283 130.756  0.00  0.00    +0.000 A 
ATOM     13  C   UNK A   1     -10.931   5.134 130.688  0.00  0.00    +0.000 A 
ATOM     14  C   UNK A   1     -10.684   6.498 130.534  0.00  0.00    +0.000 A 
ATOM     15  C   UNK A   1      -9.371   6.989 130.440  0.00  0.00    +0.000 A 
ATOM     16  C   UNK A   1      -8.280   6.123 130.510  0.00  0.00    +0.000 A 
ATOM     17  C   UNK A   1      -8.535   4.775 130.688  0.00  0.00    +0.000 A 
ATOM     18  C   UNK A   1      -7.550   3.650 130.697  0.00  0.00    +0.000 C 
ENDBRANCH   5  10
BRANCH   1  19
ATOM     19  CB  LEU A   2      -6.738   1.575 124.940  0.00  0.00    +0.000 C 
BRANCH  19  21
ATOM     20  CD1 LEU A   2      -8.441   0.370 123.545  0.00  0.00    +0.000 C 
ATOM     21  CG  LEU A   2      -7.366   1.477 123.566  0.00  0.00    +0.000 C 
ATOM     22  CD2 LEU A   2      -8.062   2.794 123.222  0.00  0.00    +0.000 C 
ENDBRANCH  19  21
ENDBRANCH   1  19
BRANCH   8  23
ATOM     23  C   UNK A   0      -6.466  -0.642 127.045  0.00  0.00    +0.000 C 
BRANCH  23  24
ATOM     24  C   UNK A   0      -7.198  -1.761 126.245  0.00  0.00    +0.000 A 
ATOM     25  C   UNK A   0      -8.560  -2.048 126.406  0.00  0.00    +0.000 A 
ATOM     26  C   UNK A   0      -9.213  -3.037 125.688  0.00  0.00    +0.000 A 
ATOM     27  C   UNK A   0      -8.563  -3.644 124.636  0.00  0.00    +0.000 A 
ATOM     28  C   UNK A   0      -7.220  -3.361 124.401  0.00  0.00    +0.000 A 
ATOM     29  C   UNK A   0      -6.518  -2.501 125.256  0.00  0.00    +0.000 A 
ENDBRANCH  23  24
BRANCH  23  30
ATOM     30  C   UNK A   0      -5.651  -1.244 128.342  0.00  0.00    +0.000 C 
ATOM     31  O   UNK A   0      -4.732  -0.651 128.901  0.00  0.00    +0.000 OA
ATOM     32  N   UNK A   0      -6.019  -2.438 128.941  0.00  0.00    +0.000 N 
ATOM     33  H   UNK A   0      -6.988  -2.632 129.081  0.00  0.00    +0.000 HD
BRANCH  32  34
ATOM     34  C   UNK A   0      -5.280  -3.106 129.987  0.00  0.00    +0.000 C 
ATOM     35  C   UNK A   0      -3.906  -3.466 129.433  0.00  0.00    +0.000 C 
ATOM     36  C   UNK A   0      -5.303  -2.177 131.200  0.00  0.00    +0.000 C 
ATOM     37  C   UNK A   0      -6.011  -4.422 130.349  0.00  0.00    +0.000 C 
ENDBRANCH  32  34
ENDBRANCH  23  30
ENDBRANCH   8  23
TORSDOF 7
ENDMDL
MODEL 4
REMARK VINA RESULT:      -7.9      2.714      6.880
REMARK  Name = CHEMBL194374
REMARK  12 active torsions:
REMARK  status: ('A' for Active; 'I' for Inactive)
REMARK    1  A    between atoms: CD1_1  and  CG_2
REMARK    2  A    between atoms: CG_2  and  CD2_3
REMARK    3  A    between atoms: CG_2  and  CB_4
REMARK    4  A    between atoms: CB_4  and  CA_5
REMARK    5  A    between atoms: C_9  and  C_10
REMARK    6  A    between atoms: N_21  and  C_22
REMARK    7  A    between atoms: C_22  and  C_23
REMARK    8  A    between atoms: C_22  and  C_30
REMARK    9  A    between atoms: N_25  and  C_26
REMARK   10  A    between atoms: C_26  and  C_27
REMARK   11  A    between atoms: C_26  and  C_28
REMARK   12  A    between atoms: C_26  and  C_29
REMARK                            x       y       z     vdW  Elec       q    Type
REMARK                         _______ _______ _______ _____ _____    ______ ____
ROOT
ATOM      1  CA  LEU A   2      -7.297   2.790 128.968  0.00  0.00    +0.000 C 
ATOM      2  C   LEU A   2      -8.031   3.986 128.336  0.00  0.00    +0.000 C 
ATOM      3  O   LEU A   2      -8.295   4.148 127.170  0.00  0.00    +0.000 OA
ATOM      4  N   UNK A   1      -8.478   4.861 129.278  0.00  0.00    +0.000 N 
ATOM      5  C   UNK A   1      -8.281   4.650 130.698  0.00  0.00    +0.000 C 
ATOM      6  C   UNK A   1      -6.849   4.175 130.962  0.00  0.00    +0.000 C 
ATOM      7  O   UNK A   1      -6.324   4.515 132.012  0.00  0.00    +0.000 OA
ATOM      8  N   LEU A   2      -6.292   3.346 129.986  0.00  0.00    +0.000 N 
ATOM      9  H   UNK A   1      -9.010   5.635 128.904  0.00  0.00    +0.000 HD
ENDROOT
BRANCH   5  10
ATOM     10  C   UNK A   1      -8.408   5.956 131.515  0.00  0.00    +0.000 C 
ATOM     11  C   UNK A   1      -9.662   5.990 132.388  0.00  0.00    +0.000 C 
ATOM     12  C   UNK A   1     -10.643   6.623 131.451  0.00  0.00    +0.000 A 
ATOM     13  C   UNK A   1     -12.018   6.524 131.484  0.00  0.00    +0.000 A 
ATOM     14  C   UNK A   1     -12.741   7.084 130.431  0.00  0.00    +0.000 A 
ATOM     15  C   UNK A   1     -12.086   7.721 129.363  0.00  0.00    +0.000 A 
ATOM     16  C   UNK A   1     -10.696   7.818 129.336  0.00  0.00    +0.000 A 
ATOM     17  C   UNK A   1      -9.989   7.282 130.397  0.00  0.00    +0.000 A 
ATOM     18  C   UNK A   1      -8.506   7.177 130.550  0.00  0.00    +0.000 C 
ENDBRANCH   5  10
BRANCH   1  19
ATOM     19  CB  LEU A   2      -6.701   1.998 127.843  0.00  0.00    +0.000 C 
BRANCH  19  21
ATOM     20  CD1 LEU A   2      -5.515  -0.122 127.212  0.00  0.00    +0.000 C 
ATOM     21  CG  LEU A   2      -6.854   0.504 127.657  0.00  0.00    +0.000 C 
ATOM     22  CD2 LEU A   2      -7.239  -0.144 128.988  0.00  0.00    +0.000 C 
ENDBRANCH  19  21
ENDBRANCH   1  19
BRANCH   8  23
ATOM     23  C   UNK A   0      -4.768   3.059 129.978  0.00  0.00    +0.000 C 
BRANCH  23  24
ATOM     24  C   UNK A   0      -4.249   2.231 131.191  0.00  0.00    +0.000 A 
ATOM     25  C   UNK A   0      -4.436   0.847 131.307  0.00  0.00    +0.000 A 
ATOM     26  C   UNK A   0      -3.967   0.109 132.381  0.00  0.00    +0.000 A 
ATOM     27  C   UNK A   0      -3.117   0.707 133.287  0.00  0.00    +0.000 A 
ATOM     28  C   UNK A   0      -2.858   2.071 133.191  0.00  0.00    +0.000 A 
ATOM     29  C   UNK A   0      -3.494   2.845 132.212  0.00  0.00    +0.000 A 
ENDBRANCH  23  24
BRANCH  23  30
ATOM     30  C   UNK A   0      -3.769   4.316 129.617  0.00  0.00    +0.000 C 
ATOM     31  O   UNK A   0      -2.761   4.205 128.923  0.00  0.00    +0.000 OA
ATOM     32  N   UNK A   0      -4.060   5.612 130.012  0.00  0.00    +0.000 N 
ATOM     33  H   UNK A   0      -4.998   5.944 129.934  0.00  0.00    +0.000 HD
BRANCH  32  34
ATOM     34  C   UNK A   0      -3.177   6.746 129.861  0.00  0.00    +0.000 C 
ATOM     35  C   UNK A   0      -1.913   6.464 130.665  0.00  0.00    +0.000 C 
ATOM     36  C   UNK A   0      -2.995   6.961 128.360  0.00  0.00    +0.000 C 
ATOM     37  C   UNK A   0      -3.863   7.993 130.468  0.00  0.00    +0.000 C 
ENDBRANCH  32  34
ENDBRANCH  23  30
ENDBRANCH   8  23
TORSDOF 7
ENDMDL
MODEL 5
REMARK VINA RESULT:      -7.9      1.977      5.041
REMARK  Name = CHEMBL194374
REMARK  12 active torsions:
REMARK  status: ('A' for Active; 'I' for Inactive)
REMARK    1  A    between atoms: CD1_1  and  CG_2
REMARK    2  A    between atoms: CG_2  and  CD2_3
REMARK    3  A    between atoms: CG_2  and  CB_4
REMARK    4  A    between atoms: CB_4  and  CA_5
REMARK    5  A    between atoms: C_9  and  C_10
REMARK    6  A    between atoms: N_21  and  C_22
REMARK    7  A    between atoms: C_22  and  C_23
REMARK    8  A    between atoms: C_22  and  C_30
REMARK    9  A    between atoms: N_25  and  C_26
REMARK   10  A    between atoms: C_26  and  C_27
REMARK   11  A    between atoms: C_26  and  C_28
REMARK   12  A    between atoms: C_26  and  C_29
REMARK                            x       y       z     vdW  Elec       q    Type
REMARK                         _______ _______ _______ _____ _____    ______ ____
ROOT
ATOM      1  CA  LEU A   2      -5.261   2.907 126.561  0.00  0.00    +0.000 C 
ATOM      2  C   LEU A   2      -6.066   2.712 125.264  0.00  0.00    +0.000 C 
ATOM      3  O   LEU A   2      -5.883   3.256 124.202  0.00  0.00    +0.000 OA
ATOM      4  N   UNK A   1      -7.006   1.736 125.392  0.00  0.00    +0.000 N 
ATOM      5  C   UNK A   1      -7.187   0.980 126.614  0.00  0.00    +0.000 C 
ATOM      6  C   UNK A   1      -7.141   1.920 127.822  0.00  0.00    +0.000 C 
ATOM      7  O   UNK A   1      -7.833   1.635 128.789  0.00  0.00    +0.000 OA
ATOM      8  N   LEU A   2      -6.263   3.001 127.720  0.00  0.00    +0.000 N 
ATOM      9  H   UNK A   1      -7.521   1.545 124.543  0.00  0.00    +0.000 HD
ENDROOT
BRANCH   5  10
ATOM     10  C   UNK A   1      -8.579   0.315 126.700  0.00  0.00    +0.000 C 
ATOM     11  C   UNK A   1      -8.503  -1.190 126.957  0.00  0.00    +0.000 C 
ATOM     12  C   UNK A   1      -8.471  -1.717 125.556  0.00  0.00    +0.000 A 
ATOM     13  C   UNK A   1      -7.970  -2.928 125.127  0.00  0.00    +0.000 A 
ATOM     14  C   UNK A   1      -7.915  -3.164 123.754  0.00  0.00    +0.000 A 
ATOM     15  C   UNK A   1      -8.346  -2.192 122.835  0.00  0.00    +0.000 A 
ATOM     16  C   UNK A   1      -8.851  -0.970 123.275  0.00  0.00    +0.000 A 
ATOM     17  C   UNK A   1      -8.926  -0.755 124.640  0.00  0.00    +0.000 A 
ATOM     18  C   UNK A   1      -9.336   0.496 125.349  0.00  0.00    +0.000 C 
ENDBRANCH   5  10
BRANCH   1  19
ATOM     19  CB  LEU A   2      -4.392   4.112 126.362  0.00  0.00    +0.000 C 
BRANCH  19  21
ATOM     20  CD1 LEU A   2      -2.673   5.281 127.767  0.00  0.00    +0.000 C 
ATOM     21  CG  LEU A   2      -2.920   4.188 126.707  0.00  0.00    +0.000 C 
ATOM     22  CD2 LEU A   2      -2.463   2.858 127.309  0.00  0.00    +0.000 C 
ENDBRANCH  19  21
ENDBRANCH   1  19
BRANCH   8  23
ATOM     23  C   UNK A   0      -6.352   4.182 128.723  0.00  0.00    +0.000 C 
BRANCH  23  24
ATOM     24  C   UNK A   0      -5.322   4.132 129.889  0.00  0.00    +0.000 A 
ATOM     25  C   UNK A   0      -4.712   2.946 130.321  0.00  0.00    +0.000 A 
ATOM     26  C   UNK A   0      -3.789   2.903 131.352  0.00  0.00    +0.000 A 
ATOM     27  C   UNK A   0      -3.293   4.085 131.860  0.00  0.00    +0.000 A 
ATOM     28  C   UNK A   0      -3.830   5.296 131.433  0.00  0.00    +0.000 A 
ATOM     29  C   UNK A   0      -4.900   5.316 130.529  0.00  0.00    +0.000 A 
ENDBRANCH  23  24
BRANCH  23  30
ATOM     30  C   UNK A   0      -7.853   4.612 129.244  0.00  0.00    +0.000 C 
ATOM     31  O   UNK A   0      -8.705   5.115 128.516  0.00  0.00    +0.000 OA
ATOM     32  N   UNK A   0      -8.276   4.348 130.536  0.00  0.00    +0.000 N 
ATOM     33  H   UNK A   0      -8.060   3.464 130.946  0.00  0.00    +0.000 HD
BRANCH  32  34
ATOM     34  C   UNK A   0      -9.516   4.811 131.116  0.00  0.00    +0.000 C 
ATOM     35  C   UNK A   0      -9.602   6.317 130.893  0.00  0.00    +0.000 C 
ATOM     36  C   UNK A   0     -10.630   3.968 130.499  0.00  0.00    +0.000 C 
ATOM     37  C   UNK A   0      -9.477   4.553 132.642  0.00  0.00    +0.000 C 
ENDBRANCH  32  34
ENDBRANCH  23  30
ENDBRANCH   8  23
TORSDOF 7
ENDMDL
MODEL 6
REMARK VINA RESULT:      -7.8      2.943      5.939
REMARK  Name = CHEMBL194374
REMARK  12 active torsions:
REMARK  status: ('A' for Active; 'I' for Inactive)
REMARK    1  A    between atoms: CD1_1  and  CG_2
REMARK    2  A    between atoms: CG_2  and  CD2_3
REMARK    3  A    between atoms: CG_2  and  CB_4
REMARK    4  A    between atoms: CB_4  and  CA_5
REMARK    5  A    between atoms: C_9  and  C_10
REMARK    6  A    between atoms: N_21  and  C_22
REMARK    7  A    between atoms: C_22  and  C_23
REMARK    8  A    between atoms: C_22  and  C_30
REMARK    9  A    between atoms: N_25  and  C_26
REMARK   10  A    between atoms: C_26  and  C_27
REMARK   11  A    between atoms: C_26  and  C_28
REMARK   12  A    between atoms: C_26  and  C_29
REMARK                            x       y       z     vdW  Elec       q    Type
REMARK                         _______ _______ _______ _____ _____    ______ ____
ROOT
ATOM      1  CA  LEU A   2      -4.403   2.064 128.658  0.00  0.00    +0.000 C 
ATOM      2  C   LEU A   2      -5.229   0.981 127.943  0.00  0.00    +0.000 C 
ATOM      3  O   LEU A   2      -5.222   0.714 126.766  0.00  0.00    +0.000 OA
ATOM      4  N   UNK A   1      -5.946   0.228 128.822  0.00  0.00    +0.000 N 
ATOM      5  C   UNK A   1      -5.899   0.441 130.254  0.00  0.00    +0.000 C 
ATOM      6  C   UNK A   1      -5.969   1.939 130.563  0.00  0.00    +0.000 C 
ATOM      7  O   UNK A   1      -6.530   2.280 131.594  0.00  0.00    +0.000 OA
ATOM      8  N   LEU A   2      -5.331   2.780 129.648  0.00  0.00    +0.000 N 
ATOM      9  H   UNK A   1      -6.463  -0.528 128.393  0.00  0.00    +0.000 HD
ENDROOT
BRANCH   5  10
ATOM     10  C   UNK A   1      -7.123  -0.157 130.984  0.00  0.00    +0.000 C 
ATOM     11  C   UNK A   1      -6.750  -0.863 132.287  0.00  0.00    +0.000 C 
ATOM     12  C   UNK A   1      -6.512  -2.257 131.799  0.00  0.00    +0.000 A 
ATOM     13  C   UNK A   1      -5.740  -3.233 132.392  0.00  0.00    +0.000 A 
ATOM     14  C   UNK A   1      -5.541  -4.425 131.696  0.00  0.00    +0.000 A 
ATOM     15  C   UNK A   1      -6.102  -4.621 130.423  0.00  0.00    +0.000 A 
ATOM     16  C   UNK A   1      -6.882  -3.630 129.828  0.00  0.00    +0.000 A 
ATOM     17  C   UNK A   1      -7.094  -2.462 130.537  0.00  0.00    +0.000 A 
ATOM     18  C   UNK A   1      -7.806  -1.229 130.080  0.00  0.00    +0.000 C 
ENDBRANCH   5  10
BRANCH   1  19
ATOM     19  CB  LEU A   2      -3.804   2.933 127.592  0.00  0.00    +0.000 C 
BRANCH  19  21
ATOM     20  CD1 LEU A   2      -1.616   3.118 126.379  0.00  0.00    +0.000 C 
ATOM     21  CG  LEU A   2      -2.413   3.526 127.635  0.00  0.00    +0.000 C 
ATOM     22  CD2 LEU A   2      -2.503   5.053 127.640  0.00  0.00    +0.000 C 
ENDBRANCH  19  21
ENDBRANCH   1  19
BRANCH   8  23
ATOM     23  C   UNK A   0      -5.594   4.309 129.673  0.00  0.00    +0.000 C 
BRANCH  23  24
ATOM     24  C   UNK A   0      -4.595   5.133 130.539  0.00  0.00    +0.000 A 
ATOM     25  C   UNK A   0      -3.506   4.555 131.205  0.00  0.00    +0.000 A 
ATOM     26  C   UNK A   0      -2.612   5.288 131.968  0.00  0.00    +0.000 A 
ATOM     27  C   UNK A   0      -2.667   6.665 131.929  0.00  0.00    +0.000 A 
ATOM     28  C   UNK A   0      -3.703   7.293 131.243  0.00  0.00    +0.000 A 
ATOM     29  C   UNK A   0      -4.712   6.535 130.635  0.00  0.00    +0.000 A 
ENDBRANCH  23  24
BRANCH  23  30
ATOM     30  C   UNK A   0      -7.150   4.800 129.890  0.00  0.00    +0.000 C 
ATOM     31  O   UNK A   0      -7.950   4.945 128.970  0.00  0.00    +0.000 OA
ATOM     32  N   UNK A   0      -7.678   4.999 131.155  0.00  0.00    +0.000 N 
ATOM     33  H   UNK A   0      -7.469   4.343 131.877  0.00  0.00    +0.000 HD
BRANCH  32  34
ATOM     34  C   UNK A   0      -8.980   5.560 131.434  0.00  0.00    +0.000 C 
ATOM     35  C   UNK A   0      -9.063   6.915 130.740  0.00  0.00    +0.000 C 
ATOM     36  C   UNK A   0     -10.008   4.513 131.007  0.00  0.00    +0.000 C 
ATOM     37  C   UNK A   0      -9.105   5.793 132.959  0.00  0.00    +0.000 C 
ENDBRANCH  32  34
ENDBRANCH  23  30
ENDBRANCH   8  23
TORSDOF 7
ENDMDL
MODEL 7
REMARK VINA RESULT:      -7.7      2.729      7.622
REMARK  Name = CHEMBL194374
REMARK  12 active torsions:
REMARK  status: ('A' for Active; 'I' for Inactive)
REMARK    1  A    between atoms: CD1_1  and  CG_2
REMARK    2  A    between atoms: CG_2  and  CD2_3
REMARK    3  A    between atoms: CG_2  and  CB_4
REMARK    4  A    between atoms: CB_4  and  CA_5
REMARK    5  A    between atoms: C_9  and  C_10
REMARK    6  A    between atoms: N_21  and  C_22
REMARK    7  A    between atoms: C_22  and  C_23
REMARK    8  A    between atoms: C_22  and  C_30
REMARK    9  A    between atoms: N_25  and  C_26
REMARK   10  A    between atoms: C_26  and  C_27
REMARK   11  A    between atoms: C_26  and  C_28
REMARK   12  A    between atoms: C_26  and  C_29
REMARK                            x       y       z     vdW  Elec       q    Type
REMARK                         _______ _______ _______ _____ _____    ______ ____
ROOT
ATOM      1  CA  LEU A   2      -6.675   5.984 132.167  0.00  0.00    +0.000 C 
ATOM      2  C   LEU A   2      -8.071   5.822 132.793  0.00  0.00    +0.000 C 
ATOM      3  O   LEU A   2      -8.342   5.748 133.966  0.00  0.00    +0.000 OA
ATOM      4  N   UNK A   1      -9.056   5.871 131.854  0.00  0.00    +0.000 N 
ATOM      5  C   UNK A   1      -8.784   6.070 130.446  0.00  0.00    +0.000 C 
ATOM      6  C   UNK A   1      -7.598   5.204 130.014  0.00  0.00    +0.000 C 
ATOM      7  O   UNK A   1      -7.599   4.770 128.872  0.00  0.00    +0.000 OA
ATOM      8  N   LEU A   2      -6.590   5.034 130.966  0.00  0.00    +0.000 N 
ATOM      9  H   UNK A   1      -9.992   5.818 132.234  0.00  0.00    +0.000 HD
ENDROOT
BRANCH   5  10
ATOM     10  C   UNK A   1      -9.949   5.600 129.544  0.00  0.00    +0.000 C 
ATOM     11  C   UNK A   1     -10.335   6.634 128.487  0.00  0.00    +0.000 C 
ATOM     12  C   UNK A   1     -11.379   7.416 129.221  0.00  0.00    +0.000 A 
ATOM     13  C   UNK A   1     -11.778   8.714 128.981  0.00  0.00    +0.000 A 
ATOM     14  C   UNK A   1     -12.674   9.300 129.874  0.00  0.00    +0.000 A 
ATOM     15  C   UNK A   1     -13.147   8.593 130.993  0.00  0.00    +0.000 A 
ATOM     16  C   UNK A   1     -12.739   7.281 131.230  0.00  0.00    +0.000 A 
ATOM     17  C   UNK A   1     -11.870   6.700 130.325  0.00  0.00    +0.000 A 
ATOM     18  C   UNK A   1     -11.222   5.355 130.411  0.00  0.00    +0.000 C 
ENDBRANCH   5  10
BRANCH   1  19
ATOM     19  CB  LEU A   2      -5.675   5.737 133.257  0.00  0.00    +0.000 C 
BRANCH  19  21
ATOM     20  CD1 LEU A   2      -4.102   6.833 134.875  0.00  0.00    +0.000 C 
ATOM     21  CG  LEU A   2      -4.351   6.456 133.400  0.00  0.00    +0.000 C 
ATOM     22  CD2 LEU A   2      -3.212   5.530 132.969  0.00  0.00    +0.000 C 
ENDBRANCH  19  21
ENDBRANCH   1  19
BRANCH   8  23
ATOM     23  C   UNK A   0      -5.506   3.941 130.772  0.00  0.00    +0.000 C 
BRANCH  23  24
ATOM     24  C   UNK A   0      -4.483   4.225 129.632  0.00  0.00    +0.000 A 
ATOM     25  C   UNK A   0      -3.994   5.508 129.347  0.00  0.00    +0.000 A 
ATOM     26  C   UNK A   0      -3.078   5.759 128.339  0.00  0.00    +0.000 A 
ATOM     27  C   UNK A   0      -2.468   4.698 127.705  0.00  0.00    +0.000 A 
ATOM     28  C   UNK A   0      -2.882   3.399 127.984  0.00  0.00    +0.000 A 
ATOM     29  C   UNK A   0      -3.946   3.169 128.867  0.00  0.00    +0.000 A 
ENDBRANCH  23  24
BRANCH  23  30
ATOM     30  C   UNK A   0      -6.010   2.374 130.773  0.00  0.00    +0.000 C 
ATOM     31  O   UNK A   0      -5.750   1.579 131.672  0.00  0.00    +0.000 OA
ATOM     32  N   UNK A   0      -6.841   1.879 129.782  0.00  0.00    +0.000 N 
ATOM     33  H   UNK A   0      -7.605   2.438 129.465  0.00  0.00    +0.000 HD
BRANCH  32  34
ATOM     34  C   UNK A   0      -7.217   0.492 129.627  0.00  0.00    +0.000 C 
ATOM     35  C   UNK A   0      -5.942  -0.343 129.654  0.00  0.00    +0.000 C 
ATOM     36  C   UNK A   0      -8.248   0.195 130.715  0.00  0.00    +0.000 C 
ATOM     37  C   UNK A   0      -7.882   0.309 128.242  0.00  0.00    +0.000 C 
ENDBRANCH  32  34
ENDBRANCH  23  30
ENDBRANCH   8  23
TORSDOF 7
ENDMDL
MODEL 8
REMARK VINA RESULT:      -7.6      2.622      7.562
REMARK  Name = CHEMBL194374
REMARK  12 active torsions:
REMARK  status: ('A' for Active; 'I' for Inactive)
REMARK    1  A    between atoms: CD1_1  and  CG_2
REMARK    2  A    between atoms: CG_2  and  CD2_3
REMARK    3  A    between atoms: CG_2  and  CB_4
REMARK    4  A    between atoms: CB_4  and  CA_5
REMARK    5  A    between atoms: C_9  and  C_10
REMARK    6  A    between atoms: N_21  and  C_22
REMARK    7  A    between atoms: C_22  and  C_23
REMARK    8  A    between atoms: C_22  and  C_30
REMARK    9  A    between atoms: N_25  and  C_26
REMARK   10  A    between atoms: C_26  and  C_27
REMARK   11  A    between atoms: C_26  and  C_28
REMARK   12  A    between atoms: C_26  and  C_29
REMARK                            x       y       z     vdW  Elec       q    Type
REMARK                         _______ _______ _______ _____ _____    ______ ____
ROOT
ATOM      1  CA  LEU A   2      -8.454   2.427 129.150  0.00  0.00    +0.000 C 
ATOM      2  C   LEU A   2      -7.987   3.777 128.579  0.00  0.00    +0.000 C 
ATOM      3  O   LEU A   2      -7.257   3.958 127.635  0.00  0.00    +0.000 OA
ATOM      4  N   UNK A   1      -8.585   4.827 129.206  0.00  0.00    +0.000 N 
ATOM      5  C   UNK A   1      -9.553   4.654 130.270  0.00  0.00    +0.000 C 
ATOM      6  C   UNK A   1      -9.070   3.577 131.246  0.00  0.00    +0.000 C 
ATOM      7  O   UNK A   1      -9.371   3.704 132.424  0.00  0.00    +0.000 OA
ATOM      8  N   LEU A   2      -8.365   2.513 130.679  0.00  0.00    +0.000 N 
ATOM      9  H   UNK A   1      -8.341   5.731 128.823  0.00  0.00    +0.000 HD
ENDROOT
BRANCH   5  10
ATOM     10  C   UNK A   1      -9.708   5.920 131.143  0.00  0.00    +0.000 C 
ATOM     11  C   UNK A   1     -11.161   6.206 131.521  0.00  0.00    +0.000 C 
ATOM     12  C   UNK A   1     -11.583   7.084 130.385  0.00  0.00    +0.000 A 
ATOM     13  C   UNK A   1     -12.864   7.301 129.925  0.00  0.00    +0.000 A 
ATOM     14  C   UNK A   1     -13.024   8.054 128.762  0.00  0.00    +0.000 A 
ATOM     15  C   UNK A   1     -11.911   8.566 128.073  0.00  0.00    +0.000 A 
ATOM     16  C   UNK A   1     -10.618   8.343 128.544  0.00  0.00    +0.000 A 
ATOM     17  C   UNK A   1     -10.472   7.617 129.712  0.00  0.00    +0.000 A 
ATOM     18  C   UNK A   1      -9.200   7.168 130.359  0.00  0.00    +0.000 C 
ENDBRANCH   5  10
BRANCH   1  19
ATOM     19  CB  LEU A   2      -7.606   1.366 128.514  0.00  0.00    +0.000 C 
BRANCH  19  21
ATOM     20  CD1 LEU A   2      -8.952   0.991 126.430  0.00  0.00    +0.000 C 
ATOM     21  CG  LEU A   2      -8.107   0.325 127.536  0.00  0.00    +0.000 C 
ATOM     22  CD2 LEU A   2      -6.919  -0.354 126.853  0.00  0.00    +0.000 C 
ENDBRANCH  19  21
ENDBRANCH   1  19
BRANCH   8  23
ATOM     23  C   UNK A   0      -7.562   1.537 131.579  0.00  0.00    +0.000 C 
BRANCH  23  24
ATOM     24  C   UNK A   0      -6.055   1.891 131.750  0.00  0.00    +0.000 A 
ATOM     25  C   UNK A   0      -5.383   2.795 130.915  0.00  0.00    +0.000 A 
ATOM     26  C   UNK A   0      -4.045   3.116 131.072  0.00  0.00    +0.000 A 
ATOM     27  C   UNK A   0      -3.379   2.689 132.201  0.00  0.00    +0.000 A 
ATOM     28  C   UNK A   0      -4.014   1.827 133.089  0.00  0.00    +0.000 A 
ATOM     29  C   UNK A   0      -5.305   1.354 132.817  0.00  0.00    +0.000 A 
ENDBRANCH  23  24
BRANCH  23  30
ATOM     30  C   UNK A   0      -7.793  -0.074 131.333  0.00  0.00    +0.000 C 
ATOM     31  O   UNK A   0      -8.860  -0.645 131.543  0.00  0.00    +0.000 OA
ATOM     32  N   UNK A   0      -6.804  -0.874 130.785  0.00  0.00    +0.000 N 
ATOM     33  H   UNK A   0      -6.271  -0.528 130.015  0.00  0.00    +0.000 HD
BRANCH  32  34
ATOM     34  C   UNK A   0      -6.870  -2.312 130.665  0.00  0.00    +0.000 C 
ATOM     35  C   UNK A   0      -7.027  -2.892 132.066  0.00  0.00    +0.000 C 
ATOM     36  C   UNK A   0      -7.991  -2.617 129.673  0.00  0.00    +0.000 C 
ATOM     37  C   UNK A   0      -5.530  -2.823 130.081  0.00  0.00    +0.000 C 
ENDBRANCH  32  34
ENDBRANCH  23  30
ENDBRANCH   8  23
TORSDOF 7
ENDMDL
MODEL 9
REMARK VINA RESULT:      -7.5      1.707      3.669
REMARK  Name = CHEMBL194374
REMARK  12 active torsions:
REMARK  status: ('A' for Active; 'I' for Inactive)
REMARK    1  A    between atoms: CD1_1  and  CG_2
REMARK    2  A    between atoms: CG_2  and  CD2_3
REMARK    3  A    between atoms: CG_2  and  CB_4
REMARK    4  A    between atoms: CB_4  and  CA_5
REMARK    5  A    between atoms: C_9  and  C_10
REMARK    6  A    between atoms: N_21  and  C_22
REMARK    7  A    between atoms: C_22  and  C_23
REMARK    8  A    between atoms: C_22  and  C_30
REMARK    9  A    between atoms: N_25  and  C_26
REMARK   10  A    between atoms: C_26  and  C_27
REMARK   11  A    between atoms: C_26  and  C_28
REMARK   12  A    between atoms: C_26  and  C_29
REMARK                            x       y       z     vdW  Elec       q    Type
REMARK                         _______ _______ _______ _____ _____    ______ ____
ROOT
ATOM      1  CA  LEU A   2      -8.156   1.472 128.917  0.00  0.00    +0.000 C 
ATOM      2  C   LEU A   2      -7.200   0.288 128.693  0.00  0.00    +0.000 C 
ATOM      3  O   LEU A   2      -6.666  -0.389 129.537  0.00  0.00    +0.000 OA
ATOM      4  N   UNK A   1      -7.073  -0.019 127.373  0.00  0.00    +0.000 N 
ATOM      5  C   UNK A   1      -7.782   0.696 126.332  0.00  0.00    +0.000 C 
ATOM      6  C   UNK A   1      -7.722   2.202 126.598  0.00  0.00    +0.000 C 
ATOM      7  O   UNK A   1      -7.695   2.948 125.630  0.00  0.00    +0.000 OA
ATOM      8  N   LEU A   2      -7.753   2.586 127.941  0.00  0.00    +0.000 N 
ATOM      9  H   UNK A   1      -6.491  -0.826 127.191  0.00  0.00    +0.000 HD
ENDROOT
BRANCH   5  10
ATOM     10  C   UNK A   1      -7.127   0.526 124.943  0.00  0.00    +0.000 C 
ATOM     11  C   UNK A   1      -8.147   0.277 123.832  0.00  0.00    +0.000 C 
ATOM     12  C   UNK A   1      -8.224  -1.218 123.845  0.00  0.00    +0.000 A 
ATOM     13  C   UNK A   1      -9.262  -2.008 123.400  0.00  0.00    +0.000 A 
ATOM     14  C   UNK A   1      -9.187  -3.381 123.631  0.00  0.00    +0.000 A 
ATOM     15  C   UNK A   1      -8.089  -3.941 124.307  0.00  0.00    +0.000 A 
ATOM     16  C   UNK A   1      -7.042  -3.137 124.754  0.00  0.00    +0.000 A 
ATOM     17  C   UNK A   1      -7.115  -1.779 124.498  0.00  0.00    +0.000 A 
ATOM     18  C   UNK A   1      -6.175  -0.710 124.955  0.00  0.00    +0.000 C 
ENDBRANCH   5  10
BRANCH   1  19
ATOM     19  CB  LEU A   2      -8.078   1.831 130.371  0.00  0.00    +0.000 C 
BRANCH  19  21
ATOM     20  CD1 LEU A   2      -9.225   0.135 131.820  0.00  0.00    +0.000 C 
ATOM     21  CG  LEU A   2      -9.185   1.613 131.379  0.00  0.00    +0.000 C 
ATOM     22  CD2 LEU A   2      -8.917   2.453 132.628  0.00  0.00    +0.000 C 
ENDBRANCH  19  21
ENDBRANCH   1  19
BRANCH   8  23
ATOM     23  C   UNK A   0      -7.385   4.036 128.350  0.00  0.00    +0.000 C 
BRANCH  23  24
ATOM     24  C   UNK A   0      -6.141   4.160 129.280  0.00  0.00    +0.000 A 
ATOM     25  C   UNK A   0      -6.097   5.018 130.387  0.00  0.00    +0.000 A 
ATOM     26  C   UNK A   0      -4.995   5.122 131.219  0.00  0.00    +0.000 A 
ATOM     27  C   UNK A   0      -3.963   4.218 131.083  0.00  0.00    +0.000 A 
ATOM     28  C   UNK A   0      -3.977   3.311 130.027  0.00  0.00    +0.000 A 
ATOM     29  C   UNK A   0      -5.007   3.346 129.078  0.00  0.00    +0.000 A 
ENDBRANCH  23  24
BRANCH  23  30
ATOM     30  C   UNK A   0      -8.616   5.015 128.834  0.00  0.00    +0.000 C 
ATOM     31  O   UNK A   0      -9.276   5.707 128.062  0.00  0.00    +0.000 OA
ATOM     32  N   UNK A   0      -9.041   5.050 130.152  0.00  0.00    +0.000 N 
ATOM     33  H   UNK A   0      -9.124   4.194 130.658  0.00  0.00    +0.000 HD
BRANCH  32  34
ATOM     34  C   UNK A   0     -10.013   5.976 130.688  0.00  0.00    +0.000 C 
ATOM     35  C   UNK A   0      -9.649   7.373 130.197  0.00  0.00    +0.000 C 
ATOM     36  C   UNK A   0     -11.388   5.448 130.283  0.00  0.00    +0.000 C 
ATOM     37  C   UNK A   0      -9.906   5.968 132.233  0.00  0.00    +0.000 C 
ENDBRANCH  32  34
ENDBRANCH  23  30
ENDBRANCH   8  23
TORSDOF 7
ENDMDL
