MODEL 1
REMARK VINA RESULT:      -8.0      0.000      0.000
REMARK  Name = CHEMBL273988
REMARK  11 active torsions:
REMARK  status: ('A' for Active; 'I' for Inactive)
REMARK    1  A    between atoms: CD1_1  and  CG_2
REMARK    2  A    between atoms: CG_2  and  CD2_3
REMARK    3  A    between atoms: CG_2  and  CB_4
REMARK    4  A    between atoms: CB_4  and  CA_5
REMARK    5  A    between atoms: C_9  and  C_10
REMARK    6  A    between atoms: N_21  and  C_22
REMARK    7  A    between atoms: C_22  and  C_23
REMARK    8  A    between atoms: C_22  and  C_29
REMARK    9  A    between atoms: N_25  and  C_26
REMARK   10  A    between atoms: C_26  and  C_27
REMARK   11  A    between atoms: C_26  and  C_28
REMARK                            x       y       z     vdW  Elec       q    Type
REMARK                         _______ _______ _______ _____ _____    ______ ____
ROOT
ATOM      1  CA  LEU A   2      -7.955   2.994 128.323  0.00  0.00    +0.000 C 
ATOM      2  C   LEU A   2      -8.307   4.436 127.902  0.00  0.00    +0.000 C 
ATOM      3  O   LEU A   2      -8.240   4.992 126.829  0.00  0.00    +0.000 OA
ATOM      4  N   UNK A   1      -8.911   5.162 128.839  0.00  0.00    +0.000 N 
ATOM      5  C   UNK A   1      -9.231   4.701 130.147  0.00  0.00    +0.000 C 
ATOM      6  C   UNK A   1      -8.049   3.849 130.666  0.00  0.00    +0.000 C 
ATOM      7  O   UNK A   1      -7.748   3.885 131.859  0.00  0.00    +0.000 OA
ATOM      8  N   LEU A   2      -7.418   3.007 129.723  0.00  0.00    +0.000 N 
ATOM      9  H   UNK A   1      -9.175   6.061 128.459  0.00  0.00    +0.000 HD
ENDROOT
BRANCH   5  10
ATOM     10  C   UNK A   1      -9.405   5.917 131.078  0.00  0.00    +0.000 C 
ATOM     11  C   UNK A   1     -10.860   6.095 131.571  0.00  0.00    +0.000 C 
ATOM     12  C   UNK A   1     -11.444   6.982 130.508  0.00  0.00    +0.000 A 
ATOM     13  C   UNK A   1     -12.772   7.105 130.137  0.00  0.00    +0.000 A 
ATOM     14  C   UNK A   1     -13.076   7.861 129.002  0.00  0.00    +0.000 A 
ATOM     15  C   UNK A   1     -12.058   8.466 128.247  0.00  0.00    +0.000 A 
ATOM     16  C   UNK A   1     -10.720   8.333 128.621  0.00  0.00    +0.000 A 
ATOM     17  C   UNK A   1     -10.429   7.607 129.765  0.00  0.00    +0.000 A 
ATOM     18  C   UNK A   1      -9.077   7.225 130.294  0.00  0.00    +0.000 C 
ENDBRANCH   5  10
BRANCH   1  19
ATOM     19  CB  LEU A   2      -7.010   2.428 127.271  0.00  0.00    +0.000 C 
BRANCH  19  21
ATOM     20  CD1 LEU A   2      -6.667   0.693 125.378  0.00  0.00    +0.000 C 
ATOM     21  CG  LEU A   2      -7.601   1.615 126.122  0.00  0.00    +0.000 C 
ATOM     22  CD2 LEU A   2      -8.774   0.827 126.654  0.00  0.00    +0.000 C 
ENDBRANCH  19  21
ENDBRANCH   1  19
BRANCH   8  23
ATOM     23  C   UNK A   0      -6.292   2.128 130.201  0.00  0.00    +0.000 C 
BRANCH  23  24
ATOM     24  C   UNK A   0      -6.374   0.673 129.693  0.00  0.00    +0.000 A 
ATOM     25  C   UNK A   0      -5.389   0.043 128.921  0.00  0.00    +0.000 A 
ATOM     26  C   UNK A   0      -5.639  -1.192 128.335  0.00  0.00    +0.000 A 
ATOM     27  C   UNK A   0      -6.780  -1.905 128.682  0.00  0.00    +0.000 A 
ATOM     28  C   UNK A   0      -7.706  -1.356 129.563  0.00  0.00    +0.000 A 
ATOM     29  C   UNK A   0      -7.523  -0.065 130.033  0.00  0.00    +0.000 A 
ENDBRANCH  23  24
BRANCH  23  30
ATOM     30  C   UNK A   0      -4.778   2.527 129.951  0.00  0.00    +0.000 C 
ATOM     31  O   UNK A   0      -3.885   2.036 130.648  0.00  0.00    +0.000 OA
ATOM     32  N   UNK A   0      -4.465   3.390 128.906  0.00  0.00    +0.000 N 
ATOM     33  H   UNK A   0      -5.176   3.607 128.213  0.00  0.00    +0.000 HD
BRANCH  32  34
ATOM     34  C   UNK A   0      -3.051   3.676 128.578  0.00  0.00    +0.000 C 
ATOM     35  C   UNK A   0      -2.625   3.113 127.234  0.00  0.00    +0.000 C 
ATOM     36  C   UNK A   0      -2.809   5.194 128.499  0.00  0.00    +0.000 C 
ENDBRANCH  32  34
ENDBRANCH  23  30
ENDBRANCH   8  23
TORSDOF 7
ENDMDL
MODEL 2
REMARK VINA RESULT:      -8.0      2.993      5.208
REMARK  Name = CHEMBL273988
REMARK  11 active torsions:
REMARK  status: ('A' for Active; 'I' for Inactive)
REMARK    1  A    between atoms: CD1_1  and  CG_2
REMARK    2  A    between atoms: CG_2  and  CD2_3
REMARK    3  A    between atoms: CG_2  and  CB_4
REMARK    4  A    between atoms: CB_4  and  CA_5
REMARK    5  A    between atoms: C_9  and  C_10
REMARK    6  A    between atoms: N_21  and  C_22
REMARK    7  A    between atoms: C_22  and  C_23
REMARK    8  A    between atoms: C_22  and  C_29
REMARK    9  A    between atoms: N_25  and  C_26
REMARK   10  A    between atoms: C_26  and  C_27
REMARK   11  A    between atoms: C_26  and  C_28
REMARK                            x       y       z     vdW  Elec       q    Type
REMARK                         _______ _______ _______ _____ _____    ______ ____
ROOT
ATOM      1  CA  LEU A   2      -7.983   3.784 130.151  0.00  0.00    +0.000 C 
ATOM      2  C   LEU A   2      -8.456   4.637 128.955  0.00  0.00    +0.000 C 
ATOM      3  O   LEU A   2      -8.231   4.542 127.770  0.00  0.00    +0.000 OA
ATOM      4  N   UNK A   1      -9.374   5.553 129.250  0.00  0.00    +0.000 N 
ATOM      5  C   UNK A   1      -9.913   5.780 130.547  0.00  0.00    +0.000 C 
ATOM      6  C   UNK A   1      -8.763   5.678 131.577  0.00  0.00    +0.000 C 
ATOM      7  O   UNK A   1      -8.761   6.412 132.565  0.00  0.00    +0.000 OA
ATOM      8  N   LEU A   2      -7.800   4.670 131.346  0.00  0.00    +0.000 N 
ATOM      9  H   UNK A   1      -9.684   6.011 128.403  0.00  0.00    +0.000 HD
ENDROOT
BRANCH   5  10
ATOM     10  C   UNK A   1     -10.498   7.205 130.604  0.00  0.00    +0.000 C 
ATOM     11  C   UNK A   1     -12.044   7.222 130.602  0.00  0.00    +0.000 C 
ATOM     12  C   UNK A   1     -12.353   7.289 129.132  0.00  0.00    +0.000 A 
ATOM     13  C   UNK A   1     -13.501   6.869 128.484  0.00  0.00    +0.000 A 
ATOM     14  C   UNK A   1     -13.509   6.863 127.087  0.00  0.00    +0.000 A 
ATOM     15  C   UNK A   1     -12.375   7.257 126.359  0.00  0.00    +0.000 A 
ATOM     16  C   UNK A   1     -11.216   7.673 127.018  0.00  0.00    +0.000 A 
ATOM     17  C   UNK A   1     -11.227   7.705 128.403  0.00  0.00    +0.000 A 
ATOM     18  C   UNK A   1     -10.078   7.993 129.325  0.00  0.00    +0.000 C 
ENDBRANCH   5  10
BRANCH   1  19
ATOM     19  CB  LEU A   2      -6.737   3.027 129.708  0.00  0.00    +0.000 C 
BRANCH  19  21
ATOM     20  CD1 LEU A   2      -5.962   1.040 131.179  0.00  0.00    +0.000 C 
ATOM     21  CG  LEU A   2      -6.679   1.520 129.941  0.00  0.00    +0.000 C 
ATOM     22  CD2 LEU A   2      -8.091   0.984 129.933  0.00  0.00    +0.000 C 
ENDBRANCH  19  21
ENDBRANCH   1  19
BRANCH   8  23
ATOM     23  C   UNK A   0      -6.689   4.510 132.352  0.00  0.00    +0.000 C 
BRANCH  23  24
ATOM     24  C   UNK A   0      -5.576   5.572 132.228  0.00  0.00    +0.000 A 
ATOM     25  C   UNK A   0      -5.564   6.606 131.282  0.00  0.00    +0.000 A 
ATOM     26  C   UNK A   0      -4.428   7.386 131.109  0.00  0.00    +0.000 A 
ATOM     27  C   UNK A   0      -3.375   7.288 132.011  0.00  0.00    +0.000 A 
ATOM     28  C   UNK A   0      -3.428   6.363 133.048  0.00  0.00    +0.000 A 
ATOM     29  C   UNK A   0      -4.500   5.488 133.132  0.00  0.00    +0.000 A 
ENDBRANCH  23  24
BRANCH  23  30
ATOM     30  C   UNK A   0      -6.991   4.465 133.907  0.00  0.00    +0.000 C 
ATOM     31  O   UNK A   0      -7.190   3.383 134.468  0.00  0.00    +0.000 OA
ATOM     32  N   UNK A   0      -6.976   5.648 134.639  0.00  0.00    +0.000 N 
ATOM     33  H   UNK A   0      -6.597   6.489 134.212  0.00  0.00    +0.000 HD
BRANCH  32  34
ATOM     34  C   UNK A   0      -7.132   5.614 136.109  0.00  0.00    +0.000 C 
ATOM     35  C   UNK A   0      -5.813   5.731 136.852  0.00  0.00    +0.000 C 
ATOM     36  C   UNK A   0      -7.997   6.791 136.591  0.00  0.00    +0.000 C 
ENDBRANCH  32  34
ENDBRANCH  23  30
ENDBRANCH   8  23
TORSDOF 7
ENDMDL
MODEL 3
REMARK VINA RESULT:      -8.0      4.743      7.350
REMARK  Name = CHEMBL273988
REMARK  11 active torsions:
REMARK  status: ('A' for Active; 'I' for Inactive)
REMARK    1  A    between atoms: CD1_1  and  CG_2
REMARK    2  A    between atoms: CG_2  and  CD2_3
REMARK    3  A    between atoms: CG_2  and  CB_4
REMARK    4  A    between atoms: CB_4  and  CA_5
REMARK    5  A    between atoms: C_9  and  C_10
REMARK    6  A    between atoms: N_21  and  C_22
REMARK    7  A    between atoms: C_22  and  C_23
REMARK    8  A    between atoms: C_22  and  C_29
REMARK    9  A    between atoms: N_25  and  C_26
REMARK   10  A    between atoms: C_26  and  C_27
REMARK   11  A    between atoms: C_26  and  C_28
REMARK                            x       y       z     vdW  Elec       q    Type
REMARK                         _______ _______ _______ _____ _____    ______ ____
ROOT
ATOM      1  CA  LEU A   2      -6.323  -1.782 126.487  0.00  0.00    +0.000 C 
ATOM      2  C   LEU A   2      -7.410  -2.350 127.425  0.00  0.00    +0.000 C 
ATOM      3  O   LEU A   2      -8.219  -3.235 127.264  0.00  0.00    +0.000 OA
ATOM      4  N   UNK A   1      -7.374  -1.884 128.670  0.00  0.00    +0.000 N 
ATOM      5  C   UNK A   1      -6.433  -0.934 129.159  0.00  0.00    +0.000 C 
ATOM      6  C   UNK A   1      -6.220   0.145 128.070  0.00  0.00    +0.000 C 
ATOM      7  O   UNK A   1      -6.036   1.316 128.399  0.00  0.00    +0.000 OA
ATOM      8  N   LEU A   2      -6.180  -0.311 126.733  0.00  0.00    +0.000 N 
ATOM      9  H   UNK A   1      -8.065  -2.360 129.234  0.00  0.00    +0.000 HD
ENDROOT
BRANCH   5  10
ATOM     10  C   UNK A   1      -7.014  -0.254 130.415  0.00  0.00    +0.000 C 
ATOM     11  C   UNK A   1      -5.948   0.009 131.504  0.00  0.00    +0.000 C 
ATOM     12  C   UNK A   1      -6.010  -1.257 132.313  0.00  0.00    +0.000 A 
ATOM     13  C   UNK A   1      -5.016  -1.813 133.100  0.00  0.00    +0.000 A 
ATOM     14  C   UNK A   1      -5.226  -3.089 133.627  0.00  0.00    +0.000 A 
ATOM     15  C   UNK A   1      -6.406  -3.798 133.351  0.00  0.00    +0.000 A 
ATOM     16  C   UNK A   1      -7.402  -3.236 132.549  0.00  0.00    +0.000 A 
ATOM     17  C   UNK A   1      -7.200  -1.957 132.056  0.00  0.00    +0.000 A 
ATOM     18  C   UNK A   1      -8.058  -1.200 131.084  0.00  0.00    +0.000 C 
ENDBRANCH   5  10
BRANCH   1  19
ATOM     19  CB  LEU A   2      -6.701  -2.169 125.063  0.00  0.00    +0.000 C 
BRANCH  19  21
ATOM     20  CD1 LEU A   2      -4.962  -3.744 123.964  0.00  0.00    +0.000 C 
ATOM     21  CG  LEU A   2      -5.585  -2.371 124.042  0.00  0.00    +0.000 C 
ATOM     22  CD2 LEU A   2      -6.109  -1.974 122.683  0.00  0.00    +0.000 C 
ENDBRANCH  19  21
ENDBRANCH   1  19
BRANCH   8  23
ATOM     23  C   UNK A   0      -5.930   0.704 125.648  0.00  0.00    +0.000 C 
BRANCH  23  24
ATOM     24  C   UNK A   0      -7.214   1.208 124.954  0.00  0.00    +0.000 A 
ATOM     25  C   UNK A   0      -8.465   1.314 125.576  0.00  0.00    +0.000 A 
ATOM     26  C   UNK A   0      -9.603   1.577 124.824  0.00  0.00    +0.000 A 
ATOM     27  C   UNK A   0      -9.481   1.944 123.489  0.00  0.00    +0.000 A 
ATOM     28  C   UNK A   0      -8.229   1.984 122.886  0.00  0.00    +0.000 A 
ATOM     29  C   UNK A   0      -7.111   1.583 123.601  0.00  0.00    +0.000 A 
ENDBRANCH  23  24
BRANCH  23  30
ATOM     30  C   UNK A   0      -5.117   2.033 125.939  0.00  0.00    +0.000 C 
ATOM     31  O   UNK A   0      -5.654   3.134 125.788  0.00  0.00    +0.000 OA
ATOM     32  N   UNK A   0      -3.813   1.943 126.418  0.00  0.00    +0.000 N 
ATOM     33  H   UNK A   0      -3.468   1.044 126.744  0.00  0.00    +0.000 HD
BRANCH  32  34
ATOM     34  C   UNK A   0      -3.082   3.165 126.814  0.00  0.00    +0.000 C 
ATOM     35  C   UNK A   0      -3.197   3.475 128.296  0.00  0.00    +0.000 C 
ATOM     36  C   UNK A   0      -1.577   3.015 126.527  0.00  0.00    +0.000 C 
ENDBRANCH  32  34
ENDBRANCH  23  30
ENDBRANCH   8  23
TORSDOF 7
ENDMDL
MODEL 4
REMARK VINA RESULT:      -7.9      4.397      5.936
REMARK  Name = CHEMBL273988
REMARK  11 active torsions:
REMARK  status: ('A' for Active; 'I' for Inactive)
REMARK    1  A    between atoms: CD1_1  and  CG_2
REMARK    2  A    between atoms: CG_2  and  CD2_3
REMARK    3  A    between atoms: CG_2  and  CB_4
REMARK    4  A    between atoms: CB_4  and  CA_5
REMARK    5  A    between atoms: C_9  and  C_10
REMARK    6  A    between atoms: N_21  and  C_22
REMARK    7  A    between atoms: C_22  and  C_23
REMARK    8  A    between atoms: C_22  and  C_29
REMARK    9  A    between atoms: N_25  and  C_26
REMARK   10  A    between atoms: C_26  and  C_27
REMARK   11  A    between atoms: C_26  and  C_28
REMARK                            x       y       z     vdW  Elec       q    Type
REMARK                         _______ _______ _______ _____ _____    ______ ____
ROOT
ATOM      1  CA  LEU A   2      -7.039   2.102 125.954  0.00  0.00    +0.000 C 
ATOM      2  C   LEU A   2      -5.819   2.852 125.378  0.00  0.00    +0.000 C 
ATOM      3  O   LEU A   2      -5.593   3.271 124.266  0.00  0.00    +0.000 OA
ATOM      4  N   UNK A   1      -4.913   3.222 126.280  0.00  0.00    +0.000 N 
ATOM      5  C   UNK A   1      -5.004   2.973 127.678  0.00  0.00    +0.000 C 
ATOM      6  C   UNK A   1      -5.556   1.541 127.882  0.00  0.00    +0.000 C 
ATOM      7  O   UNK A   1      -5.149   0.859 128.821  0.00  0.00    +0.000 OA
ATOM      8  N   LEU A   2      -6.572   1.127 126.992  0.00  0.00    +0.000 N 
ATOM      9  H   UNK A   1      -4.191   3.771 125.833  0.00  0.00    +0.000 HD
ENDROOT
BRANCH   5  10
ATOM     10  C   UNK A   1      -3.592   3.046 128.292  0.00  0.00    +0.000 C 
ATOM     11  C   UNK A   1      -3.604   3.477 129.778  0.00  0.00    +0.000 C 
ATOM     12  C   UNK A   1      -3.499   4.973 129.669  0.00  0.00    +0.000 A 
ATOM     13  C   UNK A   1      -3.921   5.924 130.582  0.00  0.00    +0.000 A 
ATOM     14  C   UNK A   1      -3.885   7.268 130.202  0.00  0.00    +0.000 A 
ATOM     15  C   UNK A   1      -3.449   7.643 128.921  0.00  0.00    +0.000 A 
ATOM     16  C   UNK A   1      -3.031   6.679 128.002  0.00  0.00    +0.000 A 
ATOM     17  C   UNK A   1      -3.040   5.351 128.397  0.00  0.00    +0.000 A 
ATOM     18  C   UNK A   1      -2.759   4.139 127.556  0.00  0.00    +0.000 C 
ENDBRANCH   5  10
BRANCH   1  19
ATOM     19  CB  LEU A   2      -7.794   1.490 124.781  0.00  0.00    +0.000 C 
BRANCH  19  21
ATOM     20  CD1 LEU A   2      -8.782   2.747 122.742  0.00  0.00    +0.000 C 
ATOM     21  CG  LEU A   2      -8.948   2.277 124.167  0.00  0.00    +0.000 C 
ATOM     22  CD2 LEU A   2     -10.204   1.447 124.284  0.00  0.00    +0.000 C 
ENDBRANCH  19  21
ENDBRANCH   1  19
BRANCH   8  23
ATOM     23  C   UNK A   0      -7.166  -0.244 127.188  0.00  0.00    +0.000 C 
BRANCH  23  24
ATOM     24  C   UNK A   0      -6.730  -1.273 126.122  0.00  0.00    +0.000 A 
ATOM     25  C   UNK A   0      -5.495  -1.257 125.460  0.00  0.00    +0.000 A 
ATOM     26  C   UNK A   0      -5.271  -2.092 124.373  0.00  0.00    +0.000 A 
ATOM     27  C   UNK A   0      -6.185  -3.094 124.069  0.00  0.00    +0.000 A 
ATOM     28  C   UNK A   0      -7.356  -3.219 124.808  0.00  0.00    +0.000 A 
ATOM     29  C   UNK A   0      -7.643  -2.294 125.799  0.00  0.00    +0.000 A 
ENDBRANCH  23  24
BRANCH  23  30
ATOM     30  C   UNK A   0      -6.992  -1.026 128.556  0.00  0.00    +0.000 C 
ATOM     31  O   UNK A   0      -7.826  -0.892 129.456  0.00  0.00    +0.000 OA
ATOM     32  N   UNK A   0      -5.923  -1.903 128.708  0.00  0.00    +0.000 N 
ATOM     33  H   UNK A   0      -5.381  -2.168 127.890  0.00  0.00    +0.000 HD
BRANCH  32  34
ATOM     34  C   UNK A   0      -5.813  -2.735 129.926  0.00  0.00    +0.000 C 
ATOM     35  C   UNK A   0      -6.663  -3.991 129.870  0.00  0.00    +0.000 C 
ATOM     36  C   UNK A   0      -4.363  -3.212 130.128  0.00  0.00    +0.000 C 
ENDBRANCH  32  34
ENDBRANCH  23  30
ENDBRANCH   8  23
TORSDOF 7
ENDMDL
MODEL 5
REMARK VINA RESULT:      -7.8      2.469      7.446
REMARK  Name = CHEMBL273988
REMARK  11 active torsions:
REMARK  status: ('A' for Active; 'I' for Inactive)
REMARK    1  A    between atoms: CD1_1  and  CG_2
REMARK    2  A    between atoms: CG_2  and  CD2_3
REMARK    3  A    between atoms: CG_2  and  CB_4
REMARK    4  A    between atoms: CB_4  and  CA_5
REMARK    5  A    between atoms: C_9  and  C_10
REMARK    6  A    between atoms: N_21  and  C_22
REMARK    7  A    between atoms: C_22  and  C_23
REMARK    8  A    between atoms: C_22  and  C_29
REMARK    9  A    between atoms: N_25  and  C_26
REMARK   10  A    between atoms: C_26  and  C_27
REMARK   11  A    between atoms: C_26  and  C_28
REMARK                            x       y       z     vdW  Elec       q    Type
REMARK                         _______ _______ _______ _____ _____    ______ ____
ROOT
ATOM      1  CA  LEU A   2      -7.151   2.030 131.499  0.00  0.00    +0.000 C 
ATOM      2  C   LEU A   2      -6.522   0.685 131.922  0.00  0.00    +0.000 C 
ATOM      3  O   LEU A   2      -6.295   0.220 133.015  0.00  0.00    +0.000 OA
ATOM      4  N   UNK A   1      -6.313  -0.173 130.926  0.00  0.00    +0.000 N 
ATOM      5  C   UNK A   1      -6.620   0.074 129.559  0.00  0.00    +0.000 C 
ATOM      6  C   UNK A   1      -6.236   1.537 129.230  0.00  0.00    +0.000 C 
ATOM      7  O   UNK A   1      -5.782   1.813 128.120  0.00  0.00    +0.000 OA
ATOM      8  N   LEU A   2      -6.505   2.498 130.230  0.00  0.00    +0.000 N 
ATOM      9  H   UNK A   1      -5.974  -1.051 131.296  0.00  0.00    +0.000 HD
ENDROOT
BRANCH   5  10
ATOM     10  C   UNK A   1      -5.773  -0.865 128.678  0.00  0.00    +0.000 C 
ATOM     11  C   UNK A   1      -6.281  -0.942 127.218  0.00  0.00    +0.000 C 
ATOM     12  C   UNK A   1      -7.253  -2.085 127.286  0.00  0.00    +0.000 A 
ATOM     13  C   UNK A   1      -8.339  -2.328 126.462  0.00  0.00    +0.000 A 
ATOM     14  C   UNK A   1      -9.217  -3.357 126.810  0.00  0.00    +0.000 A 
ATOM     15  C   UNK A   1      -9.014  -4.114 127.976  0.00  0.00    +0.000 A 
ATOM     16  C   UNK A   1      -7.922  -3.860 128.807  0.00  0.00    +0.000 A 
ATOM     17  C   UNK A   1      -7.038  -2.858 128.438  0.00  0.00    +0.000 A 
ATOM     18  C   UNK A   1      -5.875  -2.323 129.222  0.00  0.00    +0.000 C 
ENDBRANCH   5  10
BRANCH   1  19
ATOM     19  CB  LEU A   2      -7.027   2.983 132.680  0.00  0.00    +0.000 C 
BRANCH  19  21
ATOM     20  CD1 LEU A   2      -8.309   4.340 134.476  0.00  0.00    +0.000 C 
ATOM     21  CG  LEU A   2      -8.184   3.069 133.672  0.00  0.00    +0.000 C 
ATOM     22  CD2 LEU A   2      -9.470   2.814 132.923  0.00  0.00    +0.000 C 
ENDBRANCH  19  21
ENDBRANCH   1  19
BRANCH   8  23
ATOM     23  C   UNK A   0      -6.185   3.939 129.929  0.00  0.00    +0.000 C 
BRANCH  23  24
ATOM     24  C   UNK A   0      -7.320   4.920 130.293  0.00  0.00    +0.000 A 
ATOM     25  C   UNK A   0      -7.187   5.997 131.179  0.00  0.00    +0.000 A 
ATOM     26  C   UNK A   0      -8.308   6.698 131.606  0.00  0.00    +0.000 A 
ATOM     27  C   UNK A   0      -9.537   6.475 130.998  0.00  0.00    +0.000 A 
ATOM     28  C   UNK A   0      -9.662   5.505 130.009  0.00  0.00    +0.000 A 
ATOM     29  C   UNK A   0      -8.573   4.710 129.688  0.00  0.00    +0.000 A 
ENDBRANCH  23  24
BRANCH  23  30
ATOM     30  C   UNK A   0      -4.888   4.632 130.519  0.00  0.00    +0.000 C 
ATOM     31  O   UNK A   0      -4.352   4.180 131.535  0.00  0.00    +0.000 OA
ATOM     32  N   UNK A   0      -4.331   5.717 129.849  0.00  0.00    +0.000 N 
ATOM     33  H   UNK A   0      -4.648   5.934 128.909  0.00  0.00    +0.000 HD
BRANCH  32  34
ATOM     34  C   UNK A   0      -3.052   6.299 130.312  0.00  0.00    +0.000 C 
ATOM     35  C   UNK A   0      -2.055   6.518 129.189  0.00  0.00    +0.000 C 
ATOM     36  C   UNK A   0      -3.284   7.680 130.951  0.00  0.00    +0.000 C 
ENDBRANCH  32  34
ENDBRANCH  23  30
ENDBRANCH   8  23
TORSDOF 7
ENDMDL
MODEL 6
REMARK VINA RESULT:      -7.8      2.260      7.128
REMARK  Name = CHEMBL273988
REMARK  11 active torsions:
REMARK  status: ('A' for Active; 'I' for Inactive)
REMARK    1  A    between atoms: CD1_1  and  CG_2
REMARK    2  A    between atoms: CG_2  and  CD2_3
REMARK    3  A    between atoms: CG_2  and  CB_4
REMARK    4  A    between atoms: CB_4  and  CA_5
REMARK    5  A    between atoms: C_9  and  C_10
REMARK    6  A    between atoms: N_21  and  C_22
REMARK    7  A    between atoms: C_22  and  C_23
REMARK    8  A    between atoms: C_22  and  C_29
REMARK    9  A    between atoms: N_25  and  C_26
REMARK   10  A    between atoms: C_26  and  C_27
REMARK   11  A    between atoms: C_26  and  C_28
REMARK                            x       y       z     vdW  Elec       q    Type
REMARK                         _______ _______ _______ _____ _____    ______ ____
ROOT
ATOM      1  CA  LEU A   2      -8.711   2.763 130.197  0.00  0.00    +0.000 C 
ATOM      2  C   LEU A   2      -8.765   1.436 130.983  0.00  0.00    +0.000 C 
ATOM      3  O   LEU A   2      -9.403   1.112 131.959  0.00  0.00    +0.000 OA
ATOM      4  N   UNK A   1      -8.103   0.427 130.423  0.00  0.00    +0.000 N 
ATOM      5  C   UNK A   1      -7.379   0.505 129.199  0.00  0.00    +0.000 C 
ATOM      6  C   UNK A   1      -6.628   1.858 129.163  0.00  0.00    +0.000 C 
ATOM      7  O   UNK A   1      -5.515   1.924 128.643  0.00  0.00    +0.000 OA
ATOM      8  N   LEU A   2      -7.320   2.975 129.683  0.00  0.00    +0.000 N 
ATOM      9  H   UNK A   1      -8.252  -0.419 130.956  0.00  0.00    +0.000 HD
ENDROOT
BRANCH   5  10
ATOM     10  C   UNK A   1      -6.341  -0.633 129.157  0.00  0.00    +0.000 C 
ATOM     11  C   UNK A   1      -6.061  -1.140 127.723  0.00  0.00    +0.000 C 
ATOM     12  C   UNK A   1      -7.081  -2.233 127.573  0.00  0.00    +0.000 A 
ATOM     13  C   UNK A   1      -7.635  -2.725 126.404  0.00  0.00    +0.000 A 
ATOM     14  C   UNK A   1      -8.699  -3.625 126.503  0.00  0.00    +0.000 A 
ATOM     15  C   UNK A   1      -9.206  -4.007 127.756  0.00  0.00    +0.000 A 
ATOM     16  C   UNK A   1      -8.648  -3.501 128.932  0.00  0.00    +0.000 A 
ATOM     17  C   UNK A   1      -7.573  -2.633 128.826  0.00  0.00    +0.000 A 
ATOM     18  C   UNK A   1      -6.894  -1.872 129.927  0.00  0.00    +0.000 C 
ENDBRANCH   5  10
BRANCH   1  19
ATOM     19  CB  LEU A   2      -9.237   3.859 131.116  0.00  0.00    +0.000 C 
BRANCH  19  21
ATOM     20  CD1 LEU A   2     -11.378   5.101 130.348  0.00  0.00    +0.000 C 
ATOM     21  CG  LEU A   2      -9.875   5.094 130.486  0.00  0.00    +0.000 C 
ATOM     22  CD2 LEU A   2      -9.432   6.307 131.270  0.00  0.00    +0.000 C 
ENDBRANCH  19  21
ENDBRANCH   1  19
BRANCH   8  23
ATOM     23  C   UNK A   0      -6.638   4.318 129.624  0.00  0.00    +0.000 C 
BRANCH  23  24
ATOM     24  C   UNK A   0      -5.906   4.705 130.926  0.00  0.00    +0.000 A 
ATOM     25  C   UNK A   0      -5.432   3.789 131.875  0.00  0.00    +0.000 A 
ATOM     26  C   UNK A   0      -4.973   4.231 133.110  0.00  0.00    +0.000 A 
ATOM     27  C   UNK A   0      -4.782   5.589 133.332  0.00  0.00    +0.000 A 
ATOM     28  C   UNK A   0      -5.112   6.512 132.345  0.00  0.00    +0.000 A 
ATOM     29  C   UNK A   0      -5.704   6.076 131.170  0.00  0.00    +0.000 A 
ENDBRANCH  23  24
BRANCH  23  30
ATOM     30  C   UNK A   0      -5.585   4.654 128.488  0.00  0.00    +0.000 C 
ATOM     31  O   UNK A   0      -5.971   5.037 127.380  0.00  0.00    +0.000 OA
ATOM     32  N   UNK A   0      -4.226   4.565 128.771  0.00  0.00    +0.000 N 
ATOM     33  H   UNK A   0      -3.928   4.466 129.738  0.00  0.00    +0.000 HD
BRANCH  32  34
ATOM     34  C   UNK A   0      -3.229   4.994 127.767  0.00  0.00    +0.000 C 
ATOM     35  C   UNK A   0      -2.307   6.090 128.271  0.00  0.00    +0.000 C 
ATOM     36  C   UNK A   0      -2.316   3.819 127.373  0.00  0.00    +0.000 C 
ENDBRANCH  32  34
ENDBRANCH  23  30
ENDBRANCH   8  23
TORSDOF 7
ENDMDL
MODEL 7
REMARK VINA RESULT:      -7.7      2.552      7.719
REMARK  Name = CHEMBL273988
REMARK  11 active torsions:
REMARK  status: ('A' for Active; 'I' for Inactive)
REMARK    1  A    between atoms: CD1_1  and  CG_2
REMARK    2  A    between atoms: CG_2  and  CD2_3
REMARK    3  A    between atoms: CG_2  and  CB_4
REMARK    4  A    between atoms: CB_4  and  CA_5
REMARK    5  A    between atoms: C_9  and  C_10
REMARK    6  A    between atoms: N_21  and  C_22
REMARK    7  A    between atoms: C_22  and  C_23
REMARK    8  A    between atoms: C_22  and  C_29
REMARK    9  A    between atoms: N_25  and  C_26
REMARK   10  A    between atoms: C_26  and  C_27
REMARK   11  A    between atoms: C_26  and  C_28
REMARK                            x       y       z     vdW  Elec       q    Type
REMARK                         _______ _______ _______ _____ _____    ______ ____
ROOT
ATOM      1  CA  LEU A   2      -5.409   2.790 127.333  0.00  0.00    +0.000 C 
ATOM      2  C   LEU A   2      -5.822   2.442 125.887  0.00  0.00    +0.000 C 
ATOM      3  O   LEU A   2      -5.641   3.028 124.843  0.00  0.00    +0.000 OA
ATOM      4  N   UNK A   1      -6.350   1.232 125.731  0.00  0.00    +0.000 N 
ATOM      5  C   UNK A   1      -6.549   0.287 126.777  0.00  0.00    +0.000 C 
ATOM      6  C   UNK A   1      -7.053   1.046 128.028  0.00  0.00    +0.000 C 
ATOM      7  O   UNK A   1      -7.874   0.513 128.775  0.00  0.00    +0.000 OA
ATOM      8  N   LEU A   2      -6.469   2.308 128.277  0.00  0.00    +0.000 N 
ATOM      9  H   UNK A   1      -6.520   1.055 124.750  0.00  0.00    +0.000 HD
ENDROOT
BRANCH   5  10
ATOM     10  C   UNK A   1      -7.632  -0.720 126.344  0.00  0.00    +0.000 C 
ATOM     11  C   UNK A   1      -7.148  -2.187 126.403  0.00  0.00    +0.000 C 
ATOM     12  C   UNK A   1      -6.588  -2.387 125.023  0.00  0.00    +0.000 A 
ATOM     13  C   UNK A   1      -5.619  -3.290 124.620  0.00  0.00    +0.000 A 
ATOM     14  C   UNK A   1      -5.118  -3.188 123.320  0.00  0.00    +0.000 A 
ATOM     15  C   UNK A   1      -5.571  -2.183 122.450  0.00  0.00    +0.000 A 
ATOM     16  C   UNK A   1      -6.543  -1.269 122.864  0.00  0.00    +0.000 A 
ATOM     17  C   UNK A   1      -7.058  -1.397 124.145  0.00  0.00    +0.000 A 
ATOM     18  C   UNK A   1      -8.007  -0.473 124.850  0.00  0.00    +0.000 C 
ENDBRANCH   5  10
BRANCH   1  19
ATOM     19  CB  LEU A   2      -5.128   4.286 127.381  0.00  0.00    +0.000 C 
BRANCH  19  21
ATOM     20  CD1 LEU A   2      -3.334   6.092 127.862  0.00  0.00    +0.000 C 
ATOM     21  CG  LEU A   2      -3.685   4.762 127.242  0.00  0.00    +0.000 C 
ATOM     22  CD2 LEU A   2      -2.777   3.689 127.795  0.00  0.00    +0.000 C 
ENDBRANCH  19  21
ENDBRANCH   1  19
BRANCH   8  23
ATOM     23  C   UNK A   0      -6.902   3.057 129.510  0.00  0.00    +0.000 C 
BRANCH  23  24
ATOM     24  C   UNK A   0      -5.733   3.657 130.320  0.00  0.00    +0.000 A 
ATOM     25  C   UNK A   0      -5.597   5.017 130.632  0.00  0.00    +0.000 A 
ATOM     26  C   UNK A   0      -4.415   5.496 131.182  0.00  0.00    +0.000 A 
ATOM     27  C   UNK A   0      -3.443   4.604 131.620  0.00  0.00    +0.000 A 
ATOM     28  C   UNK A   0      -3.622   3.236 131.449  0.00  0.00    +0.000 A 
ATOM     29  C   UNK A   0      -4.738   2.770 130.771  0.00  0.00    +0.000 A 
ENDBRANCH  23  24
BRANCH  23  30
ATOM     30  C   UNK A   0      -7.947   4.245 129.423  0.00  0.00    +0.000 C 
ATOM     31  O   UNK A   0      -8.020   4.932 128.400  0.00  0.00    +0.000 OA
ATOM     32  N   UNK A   0      -8.814   4.469 130.488  0.00  0.00    +0.000 N 
ATOM     33  H   UNK A   0      -8.892   3.767 131.219  0.00  0.00    +0.000 HD
BRANCH  32  34
ATOM     34  C   UNK A   0      -9.878   5.491 130.377  0.00  0.00    +0.000 C 
ATOM     35  C   UNK A   0     -11.276   4.899 130.384  0.00  0.00    +0.000 C 
ATOM     36  C   UNK A   0      -9.822   6.464 131.568  0.00  0.00    +0.000 C 
ENDBRANCH  32  34
ENDBRANCH  23  30
ENDBRANCH   8  23
TORSDOF 7
ENDMDL
MODEL 8
REMARK VINA RESULT:      -7.7      3.170      7.185
REMARK  Name = CHEMBL273988
REMARK  11 active torsions:
REMARK  status: ('A' for Active; 'I' for Inactive)
REMARK    1  A    between atoms: CD1_1  and  CG_2
REMARK    2  A    between atoms: CG_2  and  CD2_3
REMARK    3  A    between atoms: CG_2  and  CB_4
REMARK    4  A    between atoms: CB_4  and  CA_5
REMARK    5  A    between atoms: C_9  and  C_10
REMARK    6  A    between atoms: N_21  and  C_22
REMARK    7  A    between atoms: C_22  and  C_23
REMARK    8  A    between atoms: C_22  and  C_29
REMARK    9  A    between atoms: N_25  and  C_26
REMARK   10  A    between atoms: C_26  and  C_27
REMARK   11  A    between atoms: C_26  and  C_28
REMARK                            x       y       z     vdW  Elec       q    Type
REMARK                         _______ _______ _______ _____ _____    ______ ____
ROOT
ATOM      1  CA  LEU A   2      -7.921   0.813 129.635  0.00  0.00    +0.000 C 
ATOM      2  C   LEU A   2      -7.800  -0.720 129.508  0.00  0.00    +0.000 C 
ATOM      3  O   LEU A   2      -8.151  -1.612 130.247  0.00  0.00    +0.000 OA
ATOM      4  N   UNK A   1      -7.355  -1.151 128.331  0.00  0.00    +0.000 N 
ATOM      5  C   UNK A   1      -6.999  -0.312 127.237  0.00  0.00    +0.000 C 
ATOM      6  C   UNK A   1      -6.241   0.918 127.793  0.00  0.00    +0.000 C 
ATOM      7  O   UNK A   1      -5.316   1.407 127.147  0.00  0.00    +0.000 OA
ATOM      8  N   LEU A   2      -6.722   1.456 129.008  0.00  0.00    +0.000 N 
ATOM      9  H   UNK A   1      -7.378  -2.161 128.304  0.00  0.00    +0.000 HD
ENDROOT
BRANCH   5  10
ATOM     10  C   UNK A   1      -6.053  -1.087 126.299  0.00  0.00    +0.000 C 
ATOM     11  C   UNK A   1      -6.190  -0.659 124.818  0.00  0.00    +0.000 C 
ATOM     12  C   UNK A   1      -7.252  -1.598 124.319  0.00  0.00    +0.000 A 
ATOM     13  C   UNK A   1      -8.119  -1.413 123.256  0.00  0.00    +0.000 A 
ATOM     14  C   UNK A   1      -9.149  -2.339 123.073  0.00  0.00    +0.000 A 
ATOM     15  C   UNK A   1      -9.312  -3.420 123.955  0.00  0.00    +0.000 A 
ATOM     16  C   UNK A   1      -8.438  -3.597 125.030  0.00  0.00    +0.000 A 
ATOM     17  C   UNK A   1      -7.401  -2.692 125.187  0.00  0.00    +0.000 A 
ATOM     18  C   UNK A   1      -6.422  -2.602 126.321  0.00  0.00    +0.000 C 
ENDBRANCH   5  10
BRANCH   1  19
ATOM     19  CB  LEU A   2      -8.133   1.133 131.109  0.00  0.00    +0.000 C 
BRANCH  19  21
ATOM     20  CD1 LEU A   2      -9.383   2.560 132.874  0.00  0.00    +0.000 C 
ATOM     21  CG  LEU A   2      -9.387   1.901 131.516  0.00  0.00    +0.000 C 
ATOM     22  CD2 LEU A   2      -9.677   2.934 130.452  0.00  0.00    +0.000 C 
ENDBRANCH  19  21
ENDBRANCH   1  19
BRANCH   8  23
ATOM     23  C   UNK A   0      -6.038   2.681 129.557  0.00  0.00    +0.000 C 
BRANCH  23  24
ATOM     24  C   UNK A   0      -5.027   2.380 130.684  0.00  0.00    +0.000 A 
ATOM     25  C   UNK A   0      -4.469   1.120 130.937  0.00  0.00    +0.000 A 
ATOM     26  C   UNK A   0      -3.733   0.897 132.094  0.00  0.00    +0.000 A 
ATOM     27  C   UNK A   0      -3.366   1.970 132.899  0.00  0.00    +0.000 A 
ATOM     28  C   UNK A   0      -3.791   3.256 132.585  0.00  0.00    +0.000 A 
ATOM     29  C   UNK A   0      -4.644   3.453 131.511  0.00  0.00    +0.000 A 
ENDBRANCH  23  24
BRANCH  23  30
ATOM     30  C   UNK A   0      -5.254   3.678 128.607  0.00  0.00    +0.000 C 
ATOM     31  O   UNK A   0      -5.834   4.651 128.116  0.00  0.00    +0.000 OA
ATOM     32  N   UNK A   0      -3.897   3.475 128.378  0.00  0.00    +0.000 N 
ATOM     33  H   UNK A   0      -3.391   2.810 128.957  0.00  0.00    +0.000 HD
BRANCH  32  34
ATOM     34  C   UNK A   0      -3.120   4.462 127.597  0.00  0.00    +0.000 C 
ATOM     35  C   UNK A   0      -2.430   5.500 128.465  0.00  0.00    +0.000 C 
ATOM     36  C   UNK A   0      -2.003   3.766 126.799  0.00  0.00    +0.000 C 
ENDBRANCH  32  34
ENDBRANCH  23  30
ENDBRANCH   8  23
TORSDOF 7
ENDMDL
MODEL 9
REMARK VINA RESULT:      -7.7      2.523      7.938
REMARK  Name = CHEMBL273988
REMARK  11 active torsions:
REMARK  status: ('A' for Active; 'I' for Inactive)
REMARK    1  A    between atoms: CD1_1  and  CG_2
REMARK    2  A    between atoms: CG_2  and  CD2_3
REMARK    3  A    between atoms: CG_2  and  CB_4
REMARK    4  A    between atoms: CB_4  and  CA_5
REMARK    5  A    between atoms: C_9  and  C_10
REMARK    6  A    between atoms: N_21  and  C_22
REMARK    7  A    between atoms: C_22  and  C_23
REMARK    8  A    between atoms: C_22  and  C_29
REMARK    9  A    between atoms: N_25  and  C_26
REMARK   10  A    between atoms: C_26  and  C_27
REMARK   11  A    between atoms: C_26  and  C_28
REMARK                            x       y       z     vdW  Elec       q    Type
REMARK                         _______ _______ _______ _____ _____    ______ ____
ROOT
ATOM      1  CA  LEU A   2      -6.102   2.477 129.904  0.00  0.00    +0.000 C 
ATOM      2  C   LEU A   2      -6.383   1.250 129.010  0.00  0.00    +0.000 C 
ATOM      3  O   LEU A   2      -6.127   1.037 127.847  0.00  0.00    +0.000 OA
ATOM      4  N   UNK A   1      -6.868   0.190 129.650  0.00  0.00    +0.000 N 
ATOM      5  C   UNK A   1      -7.133   0.132 131.048  0.00  0.00    +0.000 C 
ATOM      6  C   UNK A   1      -7.759   1.478 131.482  0.00  0.00    +0.000 C 
ATOM      7  O   UNK A   1      -8.628   1.495 132.353  0.00  0.00    +0.000 OA
ATOM      8  N   LEU A   2      -7.228   2.642 130.881  0.00  0.00    +0.000 N 
ATOM      9  H   UNK A   1      -6.949  -0.589 129.010  0.00  0.00    +0.000 HD
ENDROOT
BRANCH   5  10
ATOM     10  C   UNK A   1      -8.152  -0.993 131.317  0.00  0.00    +0.000 C 
ATOM     11  C   UNK A   1      -7.836  -1.797 132.600  0.00  0.00    +0.000 C 
ATOM     12  C   UNK A   1      -6.954  -2.893 132.072  0.00  0.00    +0.000 A 
ATOM     13  C   UNK A   1      -6.001  -3.624 132.759  0.00  0.00    +0.000 A 
ATOM     14  C   UNK A   1      -5.169  -4.478 132.031  0.00  0.00    +0.000 A 
ATOM     15  C   UNK A   1      -5.285  -4.580 130.635  0.00  0.00    +0.000 A 
ATOM     16  C   UNK A   1      -6.244  -3.835 129.946  0.00  0.00    +0.000 A 
ATOM     17  C   UNK A   1      -7.086  -3.013 130.679  0.00  0.00    +0.000 A 
ATOM     18  C   UNK A   1      -8.098  -2.035 130.158  0.00  0.00    +0.000 C 
ENDBRANCH   5  10
BRANCH   1  19
ATOM     19  CB  LEU A   2      -5.862   3.667 128.985  0.00  0.00    +0.000 C 
BRANCH  19  21
ATOM     20  CD1 LEU A   2      -4.186   5.327 127.913  0.00  0.00    +0.000 C 
ATOM     21  CG  LEU A   2      -4.428   3.992 128.573  0.00  0.00    +0.000 C 
ATOM     22  CD2 LEU A   2      -3.544   3.860 129.791  0.00  0.00    +0.000 C 
ENDBRANCH  19  21
ENDBRANCH   1  19
BRANCH   8  23
ATOM     23  C   UNK A   0      -7.781   3.975 131.311  0.00  0.00    +0.000 C 
BRANCH  23  24
ATOM     24  C   UNK A   0      -6.703   5.055 131.543  0.00  0.00    +0.000 A 
ATOM     25  C   UNK A   0      -6.592   6.241 130.805  0.00  0.00    +0.000 A 
ATOM     26  C   UNK A   0      -5.472   7.052 130.943  0.00  0.00    +0.000 A 
ATOM     27  C   UNK A   0      -4.560   6.806 131.962  0.00  0.00    +0.000 A 
ATOM     28  C   UNK A   0      -4.729   5.711 132.802  0.00  0.00    +0.000 A 
ATOM     29  C   UNK A   0      -5.768   4.823 132.570  0.00  0.00    +0.000 A 
ENDBRANCH  23  24
BRANCH  23  30
ATOM     30  C   UNK A   0      -8.880   4.724 130.449  0.00  0.00    +0.000 C 
ATOM     31  O   UNK A   0      -9.041   4.430 129.261  0.00  0.00    +0.000 OA
ATOM     32  N   UNK A   0      -9.696   5.672 131.059  0.00  0.00    +0.000 N 
ATOM     33  H   UNK A   0      -9.701   5.741 132.073  0.00  0.00    +0.000 HD
BRANCH  32  34
ATOM     34  C   UNK A   0     -10.808   6.290 130.305  0.00  0.00    +0.000 C 
ATOM     35  C   UNK A   0     -11.982   6.678 131.185  0.00  0.00    +0.000 C 
ATOM     36  C   UNK A   0     -10.344   7.588 129.620  0.00  0.00    +0.000 C 
ENDBRANCH  32  34
ENDBRANCH  23  30
ENDBRANCH   8  23
TORSDOF 7
ENDMDL
