MODEL 1
REMARK VINA RESULT:     -10.5      0.000      0.000
REMARK  Name = CHEMBL68914
REMARK  8 active torsions:
REMARK  status: ('A' for Active; 'I' for Inactive)
REMARK    1  A    between atoms: C_1  and  O_2
REMARK    2  A    between atoms: O_2  and  C_3
REMARK    3  A    between atoms: C_5  and  O_6
REMARK    4  A    between atoms: O_6  and  C_7
REMARK    5  A    between atoms: N_10  and  C_11
REMARK    6  A    between atoms: C_11  and  C_12
REMARK    7  A    between atoms: C_22  and  C_23
REMARK    8  A    between atoms: C_28  and  N_29
REMARK                            x       y       z     vdW  Elec       q    Type
REMARK                         _______ _______ _______ _____ _____    ______ ____
ROOT
ATOM      1  C   UNL     1      -7.421  -2.896 129.397  0.00  0.00    +0.000 A 
ATOM      2  C   UNL     1      -8.015  -3.613 128.334  0.00  0.00    +0.000 A 
ATOM      3  C   UNL     1      -8.411  -2.983 127.179  0.00  0.00    +0.000 A 
ATOM      4  C   UNL     1      -8.322  -1.616 127.170  0.00  0.00    +0.000 A 
ATOM      5  C   UNL     1      -7.609  -0.882 128.134  0.00  0.00    +0.000 A 
ATOM      6  C   UNL     1      -7.154  -1.501 129.325  0.00  0.00    +0.000 A 
ENDROOT
BRANCH   6   7
ATOM      7  C   UNL     1      -6.575  -0.559 130.431  0.00  0.00    +0.000 C 
ATOM      8  O   UNL     1      -5.470  -0.873 130.891  0.00  0.00    +0.000 OA
ATOM      9  N   UNL     1      -7.289   0.634 130.912  0.00  0.00    +0.000 N 
ATOM     10  C   UNL     1      -6.850   2.052 130.527  0.00  0.00    +0.000 C 
ATOM     11  C   UNL     1      -7.446   3.147 131.452  0.00  0.00    +0.000 C 
ATOM     12  C   UNL     1      -9.312   3.315 131.630  0.00  0.00    +0.000 C 
ATOM     13  C   UNL     1      -9.326   1.600 132.115  0.00  0.00    +0.000 C 
ATOM     14  C   UNL     1      -8.732   0.512 131.186  0.00  0.00    +0.000 C 
BRANCH  12  15
ATOM     15  N   UNL     1     -10.269   4.455 130.499  0.00  0.00    +0.000 N 
ATOM     16  C   UNL     1      -9.550   5.446 131.140  0.00  0.00    +0.000 C 
ATOM     17  O   UNL     1      -9.321   5.597 132.394  0.00  0.00    +0.000 OA
ATOM     18  O   UNL     1      -9.043   6.276 130.302  0.00  0.00    +0.000 OA
ATOM     19  C   UNL     1     -10.002   7.246 130.451  0.00  0.00    +0.000 C 
ATOM     20  C   UNL     1     -10.833   6.686 129.361  0.00  0.00    +0.000 A 
ATOM     21  C   UNL     1     -10.692   7.712 128.151  0.00  0.00    +0.000 A 
ATOM     22  C   UNL     1     -11.654   8.240 127.357  0.00  0.00    +0.000 A 
ATOM     23  C   UNL     1     -12.792   7.654 127.791  0.00  0.00    +0.000 A 
ATOM     24  C   UNL     1     -12.746   6.401 128.965  0.00  0.00    +0.000 A 
ATOM     25  C   UNL     1     -11.661   5.657 129.967  0.00  0.00    +0.000 A 
ENDBRANCH  12  15
ENDBRANCH   6   7
BRANCH   1  27
ATOM     26  C   UNL     1      -5.898  -4.362 130.343  0.00  0.00    +0.000 C 
ATOM     27  O   UNL     1      -7.179  -3.804 130.402  0.00  0.00    +0.000 OA
ENDBRANCH   1  27
BRANCH   3  28
ATOM     28  O   UNL     1      -8.988  -3.661 126.150  0.00  0.00    +0.000 OA
BRANCH  28  29
ATOM     29  C   UNL     1      -8.437  -3.555 124.808  0.00  0.00    +0.000 C 
ATOM     30  C   UNL     1      -6.923  -3.251 124.665  0.00  0.00    +0.000 C 
ATOM     31  C   UNL     1      -6.561  -1.764 124.389  0.00  0.00    +0.000 C 
ATOM     32  N   UNL     1      -7.326  -1.216 123.268  0.00  0.00    +0.000 NA
ATOM     33  C   UNL     1      -8.762  -1.406 123.499  0.00  0.00    +0.000 C 
ATOM     34  C   UNL     1      -9.191  -2.827 123.707  0.00  0.00    +0.000 C 
BRANCH  32  35
ATOM     35  C   UNL     1      -7.031   0.229 123.123  0.00  0.00    +0.000 C 
BRANCH  35  36
ATOM     36  C   UNL     1      -7.253   1.025 124.384  0.00  0.00    +0.000 A 
ATOM     37  C   UNL     1      -6.224   1.390 125.267  0.00  0.00    +0.000 A 
ATOM     38  C   UNL     1      -6.499   2.064 126.440  0.00  0.00    +0.000 A 
ATOM     39  C   UNL     1      -7.796   2.479 126.636  0.00  0.00    +0.000 A 
ATOM     40  N   UNL     1      -8.817   2.206 125.793  0.00  0.00    +0.000 NA
ATOM     41  C   UNL     1      -8.527   1.465 124.701  0.00  0.00    +0.000 A 
ENDBRANCH  35  36
ENDBRANCH  32  35
ENDBRANCH  28  29
ENDBRANCH   3  28
TORSDOF 7
ENDMDL
MODEL 2
REMARK VINA RESULT:     -10.3      3.292      4.354
REMARK  Name = CHEMBL68914
REMARK  8 active torsions:
REMARK  status: ('A' for Active; 'I' for Inactive)
REMARK    1  A    between atoms: C_1  and  O_2
REMARK    2  A    between atoms: O_2  and  C_3
REMARK    3  A    between atoms: C_5  and  O_6
REMARK    4  A    between atoms: O_6  and  C_7
REMARK    5  A    between atoms: N_10  and  C_11
REMARK    6  A    between atoms: C_11  and  C_12
REMARK    7  A    between atoms: C_22  and  C_23
REMARK    8  A    between atoms: C_28  and  N_29
REMARK                            x       y       z     vdW  Elec       q    Type
REMARK                         _______ _______ _______ _____ _____    ______ ____
ROOT
ATOM      1  C   UNL     1      -6.527  -1.917 128.518  0.00  0.00    +0.000 A 
ATOM      2  C   UNL     1      -6.679  -2.142 127.131  0.00  0.00    +0.000 A 
ATOM      3  C   UNL     1      -7.724  -2.885 126.638  0.00  0.00    +0.000 A 
ATOM      4  C   UNL     1      -8.526  -3.499 127.564  0.00  0.00    +0.000 A 
ATOM      5  C   UNL     1      -8.502  -3.186 128.934  0.00  0.00    +0.000 A 
ATOM      6  C   UNL     1      -7.460  -2.397 129.479  0.00  0.00    +0.000 A 
ENDROOT
BRANCH   6   7
ATOM      7  C   UNL     1      -7.396  -2.294 131.038  0.00  0.00    +0.000 C 
ATOM      8  O   UNL     1      -7.353  -3.366 131.654  0.00  0.00    +0.000 OA
ATOM      9  N   UNL     1      -7.388  -1.007 131.750  0.00  0.00    +0.000 N 
ATOM     10  C   UNL     1      -6.120  -0.451 132.408  0.00  0.00    +0.000 C 
ATOM     11  C   UNL     1      -6.410   0.669 133.443  0.00  0.00    +0.000 C 
ATOM     12  C   UNL     1      -7.329   2.224 132.913  0.00  0.00    +0.000 C 
ATOM     13  C   UNL     1      -8.629   1.147 132.340  0.00  0.00    +0.000 C 
ATOM     14  C   UNL     1      -8.333   0.034 131.306  0.00  0.00    +0.000 C 
BRANCH  12  15
ATOM     15  N   UNL     1      -6.384   3.718 132.307  0.00  0.00    +0.000 N 
ATOM     16  C   UNL     1      -6.479   4.124 133.626  0.00  0.00    +0.000 C 
ATOM     17  O   UNL     1      -7.497   4.104 134.407  0.00  0.00    +0.000 OA
ATOM     18  O   UNL     1      -5.348   4.533 134.075  0.00  0.00    +0.000 OA
ATOM     19  C   UNL     1      -5.601   5.872 133.923  0.00  0.00    +0.000 C 
ATOM     20  C   UNL     1      -5.040   5.892 132.553  0.00  0.00    +0.000 A 
ATOM     21  C   UNL     1      -3.657   6.674 132.672  0.00  0.00    +0.000 A 
ATOM     22  C   UNL     1      -3.161   7.662 131.891  0.00  0.00    +0.000 A 
ATOM     23  C   UNL     1      -4.094   7.815 130.926  0.00  0.00    +0.000 A 
ATOM     24  C   UNL     1      -5.430   6.741 130.813  0.00  0.00    +0.000 A 
ATOM     25  C   UNL     1      -6.121   5.503 131.664  0.00  0.00    +0.000 A 
ENDBRANCH  12  15
ENDBRANCH   6   7
BRANCH   1  27
ATOM     26  C   UNL     1      -5.591   0.200 128.579  0.00  0.00    +0.000 C 
ATOM     27  O   UNL     1      -5.377  -1.178 128.676  0.00  0.00    +0.000 OA
ENDBRANCH   1  27
BRANCH   3  28
ATOM     28  O   UNL     1      -7.879  -3.114 125.306  0.00  0.00    +0.000 OA
BRANCH  28  29
ATOM     29  C   UNL     1      -8.594  -2.153 124.479  0.00  0.00    +0.000 C 
ATOM     30  C   UNL     1      -7.990  -1.792 123.096  0.00  0.00    +0.000 C 
ATOM     31  C   UNL     1      -7.172  -0.471 123.046  0.00  0.00    +0.000 C 
ATOM     32  N   UNL     1      -7.916   0.653 123.616  0.00  0.00    +0.000 NA
ATOM     33  C   UNL     1      -8.361   0.324 124.974  0.00  0.00    +0.000 C 
ATOM     34  C   UNL     1      -9.212  -0.904 125.087  0.00  0.00    +0.000 C 
BRANCH  32  35
ATOM     35  C   UNL     1      -7.051   1.857 123.651  0.00  0.00    +0.000 C 
BRANCH  35  36
ATOM     36  C   UNL     1      -7.079   2.663 122.377  0.00  0.00    +0.000 A 
ATOM     37  C   UNL     1      -5.939   2.953 121.613  0.00  0.00    +0.000 A 
ATOM     38  C   UNL     1      -6.019   3.751 120.489  0.00  0.00    +0.000 A 
ATOM     39  C   UNL     1      -7.276   4.132 120.079  0.00  0.00    +0.000 A 
ATOM     40  N   UNL     1      -8.415   3.834 120.742  0.00  0.00    +0.000 NA
ATOM     41  C   UNL     1      -8.288   3.129 121.888  0.00  0.00    +0.000 A 
ENDBRANCH  35  36
ENDBRANCH  32  35
ENDBRANCH  28  29
ENDBRANCH   3  28
TORSDOF 7
ENDMDL
MODEL 3
REMARK VINA RESULT:     -10.3      3.300      9.448
REMARK  Name = CHEMBL68914
REMARK  8 active torsions:
REMARK  status: ('A' for Active; 'I' for Inactive)
REMARK    1  A    between atoms: C_1  and  O_2
REMARK    2  A    between atoms: O_2  and  C_3
REMARK    3  A    between atoms: C_5  and  O_6
REMARK    4  A    between atoms: O_6  and  C_7
REMARK    5  A    between atoms: N_10  and  C_11
REMARK    6  A    between atoms: C_11  and  C_12
REMARK    7  A    between atoms: C_22  and  C_23
REMARK    8  A    between atoms: C_28  and  N_29
REMARK                            x       y       z     vdW  Elec       q    Type
REMARK                         _______ _______ _______ _____ _____    ______ ____
ROOT
ATOM      1  C   UNL     1      -4.458   5.948 131.618  0.00  0.00    +0.000 A 
ATOM      2  C   UNL     1      -5.161   5.765 132.830  0.00  0.00    +0.000 A 
ATOM      3  C   UNL     1      -5.549   4.515 133.250  0.00  0.00    +0.000 A 
ATOM      4  C   UNL     1      -5.335   3.484 132.373  0.00  0.00    +0.000 A 
ATOM      5  C   UNL     1      -4.516   3.595 131.236  0.00  0.00    +0.000 A 
ATOM      6  C   UNL     1      -4.067   4.862 130.787  0.00  0.00    +0.000 A 
ENDROOT
BRANCH   6   7
ATOM      7  C   UNL     1      -3.356   4.904 129.395  0.00  0.00    +0.000 C 
ATOM      8  O   UNL     1      -2.267   5.490 129.357  0.00  0.00    +0.000 OA
ATOM      9  N   UNL     1      -3.933   4.290 128.189  0.00  0.00    +0.000 N 
ATOM     10  C   UNL     1      -3.379   2.989 127.596  0.00  0.00    +0.000 C 
ATOM     11  C   UNL     1      -3.829   2.747 126.130  0.00  0.00    +0.000 C 
ATOM     12  C   UNL     1      -5.662   2.657 125.712  0.00  0.00    +0.000 C 
ATOM     13  C   UNL     1      -5.817   4.266 126.463  0.00  0.00    +0.000 C 
ATOM     14  C   UNL     1      -5.368   4.500 127.926  0.00  0.00    +0.000 C 
BRANCH  12  15
ATOM     15  N   UNL     1      -6.555   1.014 125.731  0.00  0.00    +0.000 N 
ATOM     16  C   UNL     1      -6.893   1.355 124.435  0.00  0.00    +0.000 C 
ATOM     17  O   UNL     1      -7.324   2.476 123.980  0.00  0.00    +0.000 OA
ATOM     18  O   UNL     1      -6.694   0.380 123.624  0.00  0.00    +0.000 OA
ATOM     19  C   UNL     1      -7.999  -0.041 123.572  0.00  0.00    +0.000 C 
ATOM     20  C   UNL     1      -7.814  -0.974 124.706  0.00  0.00    +0.000 A 
ATOM     21  C   UNL     1      -7.838  -2.432 124.064  0.00  0.00    +0.000 A 
ATOM     22  C   UNL     1      -8.507  -3.537 124.470  0.00  0.00    +0.000 A 
ATOM     23  C   UNL     1      -9.131  -3.142 125.603  0.00  0.00    +0.000 A 
ATOM     24  C   UNL     1      -8.827  -1.595 126.283  0.00  0.00    +0.000 A 
ATOM     25  C   UNL     1      -8.028  -0.195 125.914  0.00  0.00    +0.000 A 
ENDBRANCH  12  15
ENDBRANCH   6   7
BRANCH   1  27
ATOM     26  C   UNL     1      -3.040   7.735 132.014  0.00  0.00    +0.000 C 
ATOM     27  O   UNL     1      -4.256   7.302 131.478  0.00  0.00    +0.000 OA
ENDBRANCH   1  27
BRANCH   3  28
ATOM     28  O   UNL     1      -6.231   4.325 134.411  0.00  0.00    +0.000 OA
BRANCH  28  29
ATOM     29  C   UNL     1      -7.676   4.495 134.444  0.00  0.00    +0.000 C 
ATOM     30  C   UNL     1      -8.556   3.361 133.857  0.00  0.00    +0.000 C 
ATOM     31  C   UNL     1      -9.065   3.591 132.406  0.00  0.00    +0.000 C 
ATOM     32  N   UNL     1      -9.704   4.899 132.253  0.00  0.00    +0.000 NA
ATOM     33  C   UNL     1      -8.792   5.958 132.698  0.00  0.00    +0.000 C 
ATOM     34  C   UNL     1      -8.314   5.834 134.113  0.00  0.00    +0.000 C 
BRANCH  32  35
ATOM     35  C   UNL     1     -10.064   5.114 130.832  0.00  0.00    +0.000 C 
BRANCH  35  36
ATOM     36  C   UNL     1     -10.988   6.285 130.609  0.00  0.00    +0.000 A 
ATOM     37  C   UNL     1     -12.097   6.570 131.422  0.00  0.00    +0.000 A 
ATOM     38  C   UNL     1     -12.943   7.620 131.129  0.00  0.00    +0.000 A 
ATOM     39  C   UNL     1     -12.578   8.450 130.095  0.00  0.00    +0.000 A 
ATOM     40  N   UNL     1     -11.491   8.259 129.314  0.00  0.00    +0.000 NA
ATOM     41  C   UNL     1     -10.737   7.168 129.573  0.00  0.00    +0.000 A 
ENDBRANCH  35  36
ENDBRANCH  32  35
ENDBRANCH  28  29
ENDBRANCH   3  28
TORSDOF 7
ENDMDL
MODEL 4
REMARK VINA RESULT:     -10.1      1.953      2.393
REMARK  Name = CHEMBL68914
REMARK  8 active torsions:
REMARK  status: ('A' for Active; 'I' for Inactive)
REMARK    1  A    between atoms: C_1  and  O_2
REMARK    2  A    between atoms: O_2  and  C_3
REMARK    3  A    between atoms: C_5  and  O_6
REMARK    4  A    between atoms: O_6  and  C_7
REMARK    5  A    between atoms: N_10  and  C_11
REMARK    6  A    between atoms: C_11  and  C_12
REMARK    7  A    between atoms: C_22  and  C_23
REMARK    8  A    between atoms: C_28  and  N_29
REMARK                            x       y       z     vdW  Elec       q    Type
REMARK                         _______ _______ _______ _____ _____    ______ ____
ROOT
ATOM      1  C   UNL     1      -7.246  -2.103 128.991  0.00  0.00    +0.000 A 
ATOM      2  C   UNL     1      -7.465  -2.701 127.730  0.00  0.00    +0.000 A 
ATOM      3  C   UNL     1      -6.807  -2.262 126.606  0.00  0.00    +0.000 A 
ATOM      4  C   UNL     1      -6.036  -1.138 126.751  0.00  0.00    +0.000 A 
ATOM      5  C   UNL     1      -5.676  -0.606 128.002  0.00  0.00    +0.000 A 
ATOM      6  C   UNL     1      -6.306  -1.054 129.189  0.00  0.00    +0.000 A 
ENDROOT
BRANCH   6   7
ATOM      7  C   UNL     1      -6.003  -0.247 130.493  0.00  0.00    +0.000 C 
ATOM      8  O   UNL     1      -4.953  -0.535 131.082  0.00  0.00    +0.000 OA
ATOM      9  N   UNL     1      -6.903   0.796 131.010  0.00  0.00    +0.000 N 
ATOM     10  C   UNL     1      -6.563   2.287 130.902  0.00  0.00    +0.000 C 
ATOM     11  C   UNL     1      -7.403   3.176 131.858  0.00  0.00    +0.000 C 
ATOM     12  C   UNL     1      -9.282   3.160 131.748  0.00  0.00    +0.000 C 
ATOM     13  C   UNL     1      -9.188   1.396 131.983  0.00  0.00    +0.000 C 
ATOM     14  C   UNL     1      -8.350   0.516 131.024  0.00  0.00    +0.000 C 
BRANCH  12  15
ATOM     15  N   UNL     1     -10.172   4.377 130.643  0.00  0.00    +0.000 N 
ATOM     16  C   UNL     1      -9.763   5.301 131.586  0.00  0.00    +0.000 C 
ATOM     17  O   UNL     1      -9.811   5.225 132.867  0.00  0.00    +0.000 OA
ATOM     18  O   UNL     1      -9.244   6.338 131.036  0.00  0.00    +0.000 OA
ATOM     19  C   UNL     1     -10.359   7.132 131.129  0.00  0.00    +0.000 C 
ATOM     20  C   UNL     1     -10.859   6.704 129.803  0.00  0.00    +0.000 A 
ATOM     21  C   UNL     1     -10.653   7.961 128.847  0.00  0.00    +0.000 A 
ATOM     22  C   UNL     1     -11.515   8.515 127.961  0.00  0.00    +0.000 A 
ATOM     23  C   UNL     1     -12.604   7.718 128.025  0.00  0.00    +0.000 A 
ATOM     24  C   UNL     1     -12.585   6.271 128.949  0.00  0.00    +0.000 A 
ATOM     25  C   UNL     1     -11.610   5.481 130.026  0.00  0.00    +0.000 A 
ENDBRANCH  12  15
ENDBRANCH   6   7
BRANCH   1  27
ATOM     26  C   UNL     1      -7.386  -3.322 130.955  0.00  0.00    +0.000 C 
ATOM     27  O   UNL     1      -8.073  -2.745 129.883  0.00  0.00    +0.000 OA
ENDBRANCH   1  27
BRANCH   3  28
ATOM     28  O   UNL     1      -7.013  -2.824 125.385  0.00  0.00    +0.000 OA
BRANCH  28  29
ATOM     29  C   UNL     1      -7.867  -2.162 124.411  0.00  0.00    +0.000 C 
ATOM     30  C   UNL     1      -7.201  -1.574 123.139  0.00  0.00    +0.000 C 
ATOM     31  C   UNL     1      -6.911  -0.047 123.179  0.00  0.00    +0.000 C 
ATOM     32  N   UNL     1      -8.093   0.723 123.568  0.00  0.00    +0.000 NA
ATOM     33  C   UNL     1      -8.620   0.222 124.842  0.00  0.00    +0.000 C 
ATOM     34  C   UNL     1      -8.984  -1.232 124.855  0.00  0.00    +0.000 C 
BRANCH  32  35
ATOM     35  C   UNL     1      -7.734   2.154 123.704  0.00  0.00    +0.000 C 
BRANCH  35  36
ATOM     36  C   UNL     1      -7.597   2.874 122.386  0.00  0.00    +0.000 A 
ATOM     37  C   UNL     1      -8.687   3.269 121.596  0.00  0.00    +0.000 A 
ATOM     38  C   UNL     1      -8.496   3.868 120.367  0.00  0.00    +0.000 A 
ATOM     39  C   UNL     1      -7.203   4.182 120.017  0.00  0.00    +0.000 A 
ATOM     40  N   UNL     1      -6.118   3.878 120.764  0.00  0.00    +0.000 NA
ATOM     41  C   UNL     1      -6.338   3.209 121.917  0.00  0.00    +0.000 A 
ENDBRANCH  35  36
ENDBRANCH  32  35
ENDBRANCH  28  29
ENDBRANCH   3  28
TORSDOF 7
ENDMDL
MODEL 5
REMARK VINA RESULT:     -10.0      3.461      4.713
REMARK  Name = CHEMBL68914
REMARK  8 active torsions:
REMARK  status: ('A' for Active; 'I' for Inactive)
REMARK    1  A    between atoms: C_1  and  O_2
REMARK    2  A    between atoms: O_2  and  C_3
REMARK    3  A    between atoms: C_5  and  O_6
REMARK    4  A    between atoms: O_6  and  C_7
REMARK    5  A    between atoms: N_10  and  C_11
REMARK    6  A    between atoms: C_11  and  C_12
REMARK    7  A    between atoms: C_22  and  C_23
REMARK    8  A    between atoms: C_28  and  N_29
REMARK                            x       y       z     vdW  Elec       q    Type
REMARK                         _______ _______ _______ _____ _____    ______ ____
ROOT
ATOM      1  C   UNL     1      -6.583  -2.217 127.331  0.00  0.00    +0.000 A 
ATOM      2  C   UNL     1      -6.600  -2.524 125.953  0.00  0.00    +0.000 A 
ATOM      3  C   UNL     1      -7.639  -3.225 125.390  0.00  0.00    +0.000 A 
ATOM      4  C   UNL     1      -8.580  -3.719 126.254  0.00  0.00    +0.000 A 
ATOM      5  C   UNL     1      -8.681  -3.317 127.598  0.00  0.00    +0.000 A 
ATOM      6  C   UNL     1      -7.647  -2.565 128.208  0.00  0.00    +0.000 A 
ENDROOT
BRANCH   6   7
ATOM      7  C   UNL     1      -7.744  -2.362 129.755  0.00  0.00    +0.000 C 
ATOM      8  O   UNL     1      -8.068  -3.357 130.417  0.00  0.00    +0.000 OA
ATOM      9  N   UNL     1      -7.473  -1.071 130.406  0.00  0.00    +0.000 N 
ATOM     10  C   UNL     1      -6.189  -0.819 131.206  0.00  0.00    +0.000 C 
ATOM     11  C   UNL     1      -6.286   0.414 132.143  0.00  0.00    +0.000 C 
ATOM     12  C   UNL     1      -6.678   2.110 131.427  0.00  0.00    +0.000 C 
ATOM     13  C   UNL     1      -8.144   1.373 130.729  0.00  0.00    +0.000 C 
ATOM     14  C   UNL     1      -8.039   0.144 129.793  0.00  0.00    +0.000 C 
BRANCH  12  15
ATOM     15  N   UNL     1      -5.298   3.251 130.892  0.00  0.00    +0.000 N 
ATOM     16  C   UNL     1      -5.713   4.011 131.969  0.00  0.00    +0.000 C 
ATOM     17  O   UNL     1      -6.905   4.334 132.319  0.00  0.00    +0.000 OA
ATOM     18  O   UNL     1      -4.721   4.384 132.693  0.00  0.00    +0.000 OA
ATOM     19  C   UNL     1      -4.624   5.651 132.176  0.00  0.00    +0.000 C 
ATOM     20  C   UNL     1      -3.671   5.223 131.126  0.00  0.00    +0.000 A 
ATOM     21  C   UNL     1      -2.264   5.829 131.560  0.00  0.00    +0.000 A 
ATOM     22  C   UNL     1      -1.350   6.495 130.814  0.00  0.00    +0.000 A 
ATOM     23  C   UNL     1      -1.880   6.492 129.571  0.00  0.00    +0.000 A 
ATOM     24  C   UNL     1      -3.308   5.603 129.223  0.00  0.00    +0.000 A 
ATOM     25  C   UNL     1      -4.476   4.742 130.017  0.00  0.00    +0.000 A 
ENDBRANCH  12  15
ENDBRANCH   6   7
BRANCH   1  27
ATOM     26  C   UNL     1      -5.443  -0.206 127.185  0.00  0.00    +0.000 C 
ATOM     27  O   UNL     1      -5.404  -1.549 127.574  0.00  0.00    +0.000 OA
ENDBRANCH   1  27
BRANCH   3  28
ATOM     28  O   UNL     1      -7.666  -3.533 124.065  0.00  0.00    +0.000 OA
BRANCH  28  29
ATOM     29  C   UNL     1      -7.992  -2.508 123.085  0.00  0.00    +0.000 C 
ATOM     30  C   UNL     1      -6.847  -1.588 122.585  0.00  0.00    +0.000 C 
ATOM     31  C   UNL     1      -6.758  -0.196 123.272  0.00  0.00    +0.000 C 
ATOM     32  N   UNL     1      -8.046   0.500 123.263  0.00  0.00    +0.000 NA
ATOM     33  C   UNL     1      -9.080  -0.351 123.861  0.00  0.00    +0.000 C 
ATOM     34  C   UNL     1      -9.265  -1.686 123.205  0.00  0.00    +0.000 C 
BRANCH  32  35
ATOM     35  C   UNL     1      -7.935   1.764 124.029  0.00  0.00    +0.000 C 
BRANCH  35  36
ATOM     36  C   UNL     1      -6.946   2.742 123.447  0.00  0.00    +0.000 A 
ATOM     37  C   UNL     1      -6.883   3.071 122.084  0.00  0.00    +0.000 A 
ATOM     38  C   UNL     1      -5.912   3.926 121.602  0.00  0.00    +0.000 A 
ATOM     39  C   UNL     1      -5.102   4.541 122.528  0.00  0.00    +0.000 A 
ATOM     40  N   UNL     1      -5.154   4.307 123.859  0.00  0.00    +0.000 NA
ATOM     41  C   UNL     1      -6.056   3.395 124.284  0.00  0.00    +0.000 A 
ENDBRANCH  35  36
ENDBRANCH  32  35
ENDBRANCH  28  29
ENDBRANCH   3  28
TORSDOF 7
ENDMDL
MODEL 6
REMARK VINA RESULT:      -9.9      5.792      7.757
REMARK  Name = CHEMBL68914
REMARK  8 active torsions:
REMARK  status: ('A' for Active; 'I' for Inactive)
REMARK    1  A    between atoms: C_1  and  O_2
REMARK    2  A    between atoms: O_2  and  C_3
REMARK    3  A    between atoms: C_5  and  O_6
REMARK    4  A    between atoms: O_6  and  C_7
REMARK    5  A    between atoms: N_10  and  C_11
REMARK    6  A    between atoms: C_11  and  C_12
REMARK    7  A    between atoms: C_22  and  C_23
REMARK    8  A    between atoms: C_28  and  N_29
REMARK                            x       y       z     vdW  Elec       q    Type
REMARK                         _______ _______ _______ _____ _____    ______ ____
ROOT
ATOM      1  C   UNL     1      -3.345   3.814 128.058  0.00  0.00    +0.000 A 
ATOM      2  C   UNL     1      -4.401   3.036 127.532  0.00  0.00    +0.000 A 
ATOM      3  C   UNL     1      -5.715   3.360 127.770  0.00  0.00    +0.000 A 
ATOM      4  C   UNL     1      -5.940   4.389 128.646  0.00  0.00    +0.000 A 
ATOM      5  C   UNL     1      -4.934   5.275 129.072  0.00  0.00    +0.000 A 
ATOM      6  C   UNL     1      -3.568   4.995 128.818  0.00  0.00    +0.000 A 
ENDROOT
BRANCH   6   7
ATOM      7  C   UNL     1      -2.519   5.915 129.523  0.00  0.00    +0.000 C 
ATOM      8  O   UNL     1      -1.651   6.411 128.794  0.00  0.00    +0.000 OA
ATOM      9  N   UNL     1      -2.544   6.187 130.969  0.00  0.00    +0.000 N 
ATOM     10  C   UNL     1      -2.999   7.538 131.534  0.00  0.00    +0.000 C 
ATOM     11  C   UNL     1      -2.557   7.765 133.004  0.00  0.00    +0.000 C 
ATOM     12  C   UNL     1      -3.081   6.549 134.342  0.00  0.00    +0.000 C 
ATOM     13  C   UNL     1      -2.331   5.275 133.346  0.00  0.00    +0.000 C 
ATOM     14  C   UNL     1      -2.778   5.052 131.881  0.00  0.00    +0.000 C 
BRANCH  12  15
ATOM     15  N   UNL     1      -4.662   6.824 135.300  0.00  0.00    +0.000 N 
ATOM     16  C   UNL     1      -3.806   7.270 136.290  0.00  0.00    +0.000 C 
ATOM     17  O   UNL     1      -2.715   6.743 136.713  0.00  0.00    +0.000 OA
ATOM     18  O   UNL     1      -4.202   8.385 136.787  0.00  0.00    +0.000 OA
ATOM     19  C   UNL     1      -4.790   7.852 137.905  0.00  0.00    +0.000 C 
ATOM     20  C   UNL     1      -6.101   7.711 137.232  0.00  0.00    +0.000 A 
ATOM     21  C   UNL     1      -7.032   8.828 137.882  0.00  0.00    +0.000 A 
ATOM     22  C   UNL     1      -8.302   8.724 138.343  0.00  0.00    +0.000 A 
ATOM     23  C   UNL     1      -8.640   7.443 138.079  0.00  0.00    +0.000 A 
ATOM     24  C   UNL     1      -7.596   6.424 137.173  0.00  0.00    +0.000 A 
ATOM     25  C   UNL     1      -6.068   6.435 136.540  0.00  0.00    +0.000 A 
ENDBRANCH  12  15
ENDBRANCH   6   7
BRANCH   1  27
ATOM     26  C   UNL     1      -1.903   3.356 126.305  0.00  0.00    +0.000 C 
ATOM     27  O   UNL     1      -2.174   3.207 127.668  0.00  0.00    +0.000 OA
ENDBRANCH   1  27
BRANCH   3  28
ATOM     28  O   UNL     1      -6.742   2.617 127.274  0.00  0.00    +0.000 OA
BRANCH  28  29
ATOM     29  C   UNL     1      -7.459   3.064 126.090  0.00  0.00    +0.000 C 
ATOM     30  C   UNL     1      -7.569   2.083 124.893  0.00  0.00    +0.000 C 
ATOM     31  C   UNL     1      -6.545   2.309 123.745  0.00  0.00    +0.000 C 
ATOM     32  N   UNL     1      -6.527   3.702 123.296  0.00  0.00    +0.000 NA
ATOM     33  C   UNL     1      -6.292   4.594 124.436  0.00  0.00    +0.000 C 
ATOM     34  C   UNL     1      -7.283   4.475 125.554  0.00  0.00    +0.000 C 
BRANCH  32  35
ATOM     35  C   UNL     1      -5.457   3.887 122.288  0.00  0.00    +0.000 C 
BRANCH  35  36
ATOM     36  C   UNL     1      -5.964   4.320 120.935  0.00  0.00    +0.000 A 
ATOM     37  C   UNL     1      -5.231   5.124 120.048  0.00  0.00    +0.000 A 
ATOM     38  C   UNL     1      -5.776   5.541 118.850  0.00  0.00    +0.000 A 
ATOM     39  C   UNL     1      -7.005   5.026 118.507  0.00  0.00    +0.000 A 
ATOM     40  N   UNL     1      -7.732   4.203 119.295  0.00  0.00    +0.000 NA
ATOM     41  C   UNL     1      -7.207   3.891 120.500  0.00  0.00    +0.000 A 
ENDBRANCH  35  36
ENDBRANCH  32  35
ENDBRANCH  28  29
ENDBRANCH   3  28
TORSDOF 7
ENDMDL
MODEL 7
REMARK VINA RESULT:      -9.7      3.587      8.451
REMARK  Name = CHEMBL68914
REMARK  8 active torsions:
REMARK  status: ('A' for Active; 'I' for Inactive)
REMARK    1  A    between atoms: C_1  and  O_2
REMARK    2  A    between atoms: O_2  and  C_3
REMARK    3  A    between atoms: C_5  and  O_6
REMARK    4  A    between atoms: O_6  and  C_7
REMARK    5  A    between atoms: N_10  and  C_11
REMARK    6  A    between atoms: C_11  and  C_12
REMARK    7  A    between atoms: C_22  and  C_23
REMARK    8  A    between atoms: C_28  and  N_29
REMARK                            x       y       z     vdW  Elec       q    Type
REMARK                         _______ _______ _______ _____ _____    ______ ____
ROOT
ATOM      1  C   UNL     1      -4.151   5.003 131.215  0.00  0.00    +0.000 A 
ATOM      2  C   UNL     1      -4.276   4.363 132.468  0.00  0.00    +0.000 A 
ATOM      3  C   UNL     1      -4.215   2.995 132.581  0.00  0.00    +0.000 A 
ATOM      4  C   UNL     1      -4.162   2.288 131.408  0.00  0.00    +0.000 A 
ATOM      5  C   UNL     1      -3.890   2.880 130.162  0.00  0.00    +0.000 A 
ATOM      6  C   UNL     1      -3.910   4.288 130.009  0.00  0.00    +0.000 A 
ENDROOT
BRANCH   6   7
ATOM      7  C   UNL     1      -3.821   4.839 128.549  0.00  0.00    +0.000 C 
ATOM      8  O   UNL     1      -2.932   5.672 128.333  0.00  0.00    +0.000 OA
ATOM      9  N   UNL     1      -4.733   4.405 127.479  0.00  0.00    +0.000 N 
ATOM     10  C   UNL     1      -4.278   3.466 126.355  0.00  0.00    +0.000 C 
ATOM     11  C   UNL     1      -5.231   3.474 125.130  0.00  0.00    +0.000 C 
ATOM     12  C   UNL     1      -7.046   3.026 125.348  0.00  0.00    +0.000 C 
ATOM     13  C   UNL     1      -7.121   4.318 126.574  0.00  0.00    +0.000 C 
ATOM     14  C   UNL     1      -6.169   4.302 127.795  0.00  0.00    +0.000 C 
BRANCH  12  15
ATOM     15  N   UNL     1      -7.612   1.256 125.146  0.00  0.00    +0.000 N 
ATOM     16  C   UNL     1      -8.527   1.809 124.269  0.00  0.00    +0.000 C 
ATOM     17  O   UNL     1      -9.259   2.854 124.415  0.00  0.00    +0.000 OA
ATOM     18  O   UNL     1      -8.576   1.154 123.166  0.00  0.00    +0.000 OA
ATOM     19  C   UNL     1      -9.703   0.432 123.469  0.00  0.00    +0.000 C 
ATOM     20  C   UNL     1      -8.917  -0.672 124.065  0.00  0.00    +0.000 A 
ATOM     21  C   UNL     1      -9.026  -1.877 123.029  0.00  0.00    +0.000 A 
ATOM     22  C   UNL     1      -9.295  -3.184 123.258  0.00  0.00    +0.000 A 
ATOM     23  C   UNL     1      -9.405  -3.263 124.603  0.00  0.00    +0.000 A 
ATOM     24  C   UNL     1      -9.043  -1.910 125.597  0.00  0.00    +0.000 A 
ATOM     25  C   UNL     1      -8.680  -0.303 125.450  0.00  0.00    +0.000 A 
ENDBRANCH  12  15
ENDBRANCH   6   7
BRANCH   1  27
ATOM     26  C   UNL     1      -5.558   6.840 131.111  0.00  0.00    +0.000 C 
ATOM     27  O   UNL     1      -4.290   6.353 131.444  0.00  0.00    +0.000 OA
ENDBRANCH   1  27
BRANCH   3  28
ATOM     28  O   UNL     1      -4.339   2.365 133.781  0.00  0.00    +0.000 OA
BRANCH  28  29
ATOM     29  C   UNL     1      -5.648   1.938 134.248  0.00  0.00    +0.000 C 
ATOM     30  C   UNL     1      -6.023   0.441 134.099  0.00  0.00    +0.000 C 
ATOM     31  C   UNL     1      -6.903   0.089 132.866  0.00  0.00    +0.000 C 
ATOM     32  N   UNL     1      -8.085   0.948 132.778  0.00  0.00    +0.000 NA
ATOM     33  C   UNL     1      -7.683   2.359 132.792  0.00  0.00    +0.000 C 
ATOM     34  C   UNL     1      -6.885   2.782 133.988  0.00  0.00    +0.000 C 
BRANCH  32  35
ATOM     35  C   UNL     1      -8.824   0.652 131.528  0.00  0.00    +0.000 C 
BRANCH  35  36
ATOM     36  C   UNL     1      -7.937   0.237 130.381  0.00  0.00    +0.000 A 
ATOM     37  C   UNL     1      -7.207   1.140 129.593  0.00  0.00    +0.000 A 
ATOM     38  C   UNL     1      -6.463   0.704 128.515  0.00  0.00    +0.000 A 
ATOM     39  C   UNL     1      -6.360  -0.656 128.333  0.00  0.00    +0.000 A 
ATOM     40  N   UNL     1      -6.994  -1.575 129.095  0.00  0.00    +0.000 NA
ATOM     41  C   UNL     1      -7.787  -1.107 130.084  0.00  0.00    +0.000 A 
ENDBRANCH  35  36
ENDBRANCH  32  35
ENDBRANCH  28  29
ENDBRANCH   3  28
TORSDOF 7
ENDMDL
MODEL 8
REMARK VINA RESULT:      -9.6      3.069      8.499
REMARK  Name = CHEMBL68914
REMARK  8 active torsions:
REMARK  status: ('A' for Active; 'I' for Inactive)
REMARK    1  A    between atoms: C_1  and  O_2
REMARK    2  A    between atoms: O_2  and  C_3
REMARK    3  A    between atoms: C_5  and  O_6
REMARK    4  A    between atoms: O_6  and  C_7
REMARK    5  A    between atoms: N_10  and  C_11
REMARK    6  A    between atoms: C_11  and  C_12
REMARK    7  A    between atoms: C_22  and  C_23
REMARK    8  A    between atoms: C_28  and  N_29
REMARK                            x       y       z     vdW  Elec       q    Type
REMARK                         _______ _______ _______ _____ _____    ______ ____
ROOT
ATOM      1  C   UNL     1      -6.099   5.557 133.143  0.00  0.00    +0.000 A 
ATOM      2  C   UNL     1      -5.272   6.459 132.435  0.00  0.00    +0.000 A 
ATOM      3  C   UNL     1      -5.462   6.702 131.097  0.00  0.00    +0.000 A 
ATOM      4  C   UNL     1      -6.402   5.931 130.464  0.00  0.00    +0.000 A 
ATOM      5  C   UNL     1      -7.338   5.138 131.150  0.00  0.00    +0.000 A 
ATOM      6  C   UNL     1      -7.198   4.888 132.537  0.00  0.00    +0.000 A 
ENDROOT
BRANCH   6   7
ATOM      7  C   UNL     1      -8.152   3.817 133.159  0.00  0.00    +0.000 C 
ATOM      8  O   UNL     1      -8.894   4.210 134.068  0.00  0.00    +0.000 OA
ATOM      9  N   UNL     1      -8.180   2.418 132.706  0.00  0.00    +0.000 N 
ATOM     10  C   UNL     1      -9.330   1.862 131.857  0.00  0.00    +0.000 C 
ATOM     11  C   UNL     1      -9.388   0.311 131.848  0.00  0.00    +0.000 C 
ATOM     12  C   UNL     1      -7.903  -0.681 131.251  0.00  0.00    +0.000 C 
ATOM     13  C   UNL     1      -6.946   0.192 132.476  0.00  0.00    +0.000 C 
ATOM     14  C   UNL     1      -6.891   1.740 132.478  0.00  0.00    +0.000 C 
BRANCH  12  15
ATOM     15  N   UNL     1      -7.757  -1.173 129.454  0.00  0.00    +0.000 N 
ATOM     16  C   UNL     1      -7.875  -2.457 129.953  0.00  0.00    +0.000 C 
ATOM     17  O   UNL     1      -7.286  -2.990 130.962  0.00  0.00    +0.000 OA
ATOM     18  O   UNL     1      -8.732  -3.144 129.288  0.00  0.00    +0.000 OA
ATOM     19  C   UNL     1      -7.819  -3.814 128.514  0.00  0.00    +0.000 C 
ATOM     20  C   UNL     1      -7.857  -2.780 127.454  0.00  0.00    +0.000 A 
ATOM     21  C   UNL     1      -8.637  -3.449 126.237  0.00  0.00    +0.000 A 
ATOM     22  C   UNL     1      -8.322  -3.463 124.920  0.00  0.00    +0.000 A 
ATOM     23  C   UNL     1      -7.195  -2.721 124.848  0.00  0.00    +0.000 A 
ATOM     24  C   UNL     1      -6.600  -1.884 126.224  0.00  0.00    +0.000 A 
ATOM     25  C   UNL     1      -6.900  -1.760 127.846  0.00  0.00    +0.000 A 
ENDBRANCH  12  15
ENDBRANCH   6   7
BRANCH   1  27
ATOM     26  C   UNL     1      -4.826   4.398 134.692  0.00  0.00    +0.000 C 
ATOM     27  O   UNL     1      -5.626   5.516 134.435  0.00  0.00    +0.000 OA
ENDBRANCH   1  27
BRANCH   3  28
ATOM     28  O   UNL     1      -4.671   7.564 130.402  0.00  0.00    +0.000 OA
BRANCH  28  29
ATOM     29  C   UNL     1      -3.472   7.077 129.737  0.00  0.00    +0.000 C 
ATOM     30  C   UNL     1      -3.519   6.887 128.198  0.00  0.00    +0.000 C 
ATOM     31  C   UNL     1      -3.774   5.433 127.710  0.00  0.00    +0.000 C 
ATOM     32  N   UNL     1      -2.862   4.478 128.340  0.00  0.00    +0.000 NA
ATOM     33  C   UNL     1      -2.939   4.597 129.799  0.00  0.00    +0.000 C 
ATOM     34  C   UNL     1      -2.638   5.961 130.345  0.00  0.00    +0.000 C 
BRANCH  32  35
ATOM     35  C   UNL     1      -3.223   3.100 127.931  0.00  0.00    +0.000 C 
BRANCH  35  36
ATOM     36  C   UNL     1      -4.709   2.859 127.852  0.00  0.00    +0.000 A 
ATOM     37  C   UNL     1      -5.518   2.600 128.969  0.00  0.00    +0.000 A 
ATOM     38  C   UNL     1      -6.863   2.323 128.826  0.00  0.00    +0.000 A 
ATOM     39  C   UNL     1      -7.397   2.446 127.564  0.00  0.00    +0.000 A 
ATOM     40  N   UNL     1      -6.678   2.749 126.460  0.00  0.00    +0.000 NA
ATOM     41  C   UNL     1      -5.348   2.922 126.625  0.00  0.00    +0.000 A 
ENDBRANCH  35  36
ENDBRANCH  32  35
ENDBRANCH  28  29
ENDBRANCH   3  28
TORSDOF 7
ENDMDL
MODEL 9
REMARK VINA RESULT:      -9.6      3.379      8.823
REMARK  Name = CHEMBL68914
REMARK  8 active torsions:
REMARK  status: ('A' for Active; 'I' for Inactive)
REMARK    1  A    between atoms: C_1  and  O_2
REMARK    2  A    between atoms: O_2  and  C_3
REMARK    3  A    between atoms: C_5  and  O_6
REMARK    4  A    between atoms: O_6  and  C_7
REMARK    5  A    between atoms: N_10  and  C_11
REMARK    6  A    between atoms: C_11  and  C_12
REMARK    7  A    between atoms: C_22  and  C_23
REMARK    8  A    between atoms: C_28  and  N_29
REMARK                            x       y       z     vdW  Elec       q    Type
REMARK                         _______ _______ _______ _____ _____    ______ ____
ROOT
ATOM      1  C   UNL     1      -3.834   2.678 130.558  0.00  0.00    +0.000 A 
ATOM      2  C   UNL     1      -3.814   2.267 131.909  0.00  0.00    +0.000 A 
ATOM      3  C   UNL     1      -3.576   3.160 132.925  0.00  0.00    +0.000 A 
ATOM      4  C   UNL     1      -3.232   4.432 132.550  0.00  0.00    +0.000 A 
ATOM      5  C   UNL     1      -3.383   4.918 131.240  0.00  0.00    +0.000 A 
ATOM      6  C   UNL     1      -3.660   4.035 130.167  0.00  0.00    +0.000 A 
ENDROOT
BRANCH   6   7
ATOM      7  C   UNL     1      -3.584   4.634 128.725  0.00  0.00    +0.000 C 
ATOM      8  O   UNL     1      -2.686   5.461 128.524  0.00  0.00    +0.000 OA
ATOM      9  N   UNL     1      -4.520   4.251 127.655  0.00  0.00    +0.000 N 
ATOM     10  C   UNL     1      -4.097   3.344 126.494  0.00  0.00    +0.000 C 
ATOM     11  C   UNL     1      -5.068   3.409 125.284  0.00  0.00    +0.000 C 
ATOM     12  C   UNL     1      -6.887   2.982 125.515  0.00  0.00    +0.000 C 
ATOM     13  C   UNL     1      -6.922   4.232 126.786  0.00  0.00    +0.000 C 
ATOM     14  C   UNL     1      -5.952   4.159 127.991  0.00  0.00    +0.000 C 
BRANCH  12  15
ATOM     15  N   UNL     1      -7.484   1.229 125.263  0.00  0.00    +0.000 N 
ATOM     16  C   UNL     1      -8.418   1.827 124.439  0.00  0.00    +0.000 C 
ATOM     17  O   UNL     1      -9.130   2.875 124.649  0.00  0.00    +0.000 OA
ATOM     18  O   UNL     1      -8.512   1.218 123.312  0.00  0.00    +0.000 OA
ATOM     19  C   UNL     1      -9.638   0.499 123.623  0.00  0.00    +0.000 C 
ATOM     20  C   UNL     1      -8.849  -0.638 124.149  0.00  0.00    +0.000 A 
ATOM     21  C   UNL     1      -9.007  -1.799 123.070  0.00  0.00    +0.000 A 
ATOM     22  C   UNL     1      -9.288  -3.111 123.256  0.00  0.00    +0.000 A 
ATOM     23  C   UNL     1      -9.356  -3.242 124.600  0.00  0.00    +0.000 A 
ATOM     24  C   UNL     1      -8.943  -1.935 125.635  0.00  0.00    +0.000 A 
ATOM     25  C   UNL     1      -8.563  -0.328 125.539  0.00  0.00    +0.000 A 
ENDBRANCH  12  15
ENDBRANCH   6   7
BRANCH   1  27
ATOM     26  C   UNL     1      -5.333   1.006 129.994  0.00  0.00    +0.000 C 
ATOM     27  O   UNL     1      -4.060   1.550 129.803  0.00  0.00    +0.000 OA
ENDBRANCH   1  27
BRANCH   3  28
ATOM     28  O   UNL     1      -3.549   2.777 134.230  0.00  0.00    +0.000 OA
BRANCH  28  29
ATOM     29  C   UNL     1      -4.793   2.555 134.951  0.00  0.00    +0.000 C 
ATOM     30  C   UNL     1      -5.651   1.323 134.562  0.00  0.00    +0.000 C 
ATOM     31  C   UNL     1      -6.841   1.610 133.604  0.00  0.00    +0.000 C 
ATOM     32  N   UNL     1      -7.674   2.713 134.085  0.00  0.00    +0.000 NA
ATOM     33  C   UNL     1      -6.849   3.901 134.320  0.00  0.00    +0.000 C 
ATOM     34  C   UNL     1      -5.719   3.712 135.288  0.00  0.00    +0.000 C 
BRANCH  32  35
ATOM     35  C   UNL     1      -8.721   3.022 133.082  0.00  0.00    +0.000 C 
BRANCH  35  36
ATOM     36  C   UNL     1      -8.503   4.326 132.358  0.00  0.00    +0.000 A 
ATOM     37  C   UNL     1      -7.447   4.554 131.462  0.00  0.00    +0.000 A 
ATOM     38  C   UNL     1      -7.262   5.792 130.878  0.00  0.00    +0.000 A 
ATOM     39  C   UNL     1      -8.230   6.743 131.107  0.00  0.00    +0.000 A 
ATOM     40  N   UNL     1      -9.299   6.562 131.914  0.00  0.00    +0.000 NA
ATOM     41  C   UNL     1      -9.396   5.368 132.541  0.00  0.00    +0.000 A 
ENDBRANCH  35  36
ENDBRANCH  32  35
ENDBRANCH  28  29
ENDBRANCH   3  28
TORSDOF 7
ENDMDL
