MODEL 1
REMARK VINA RESULT:      -9.7      0.000      0.000
REMARK  Name = CHEMBL193773
REMARK  14 active torsions:
REMARK  status: ('A' for Active; 'I' for Inactive)
REMARK    1  A    between atoms: C_1  and  C_2
REMARK    2  A    between atoms: N_4  and  C_5
REMARK    3  A    between atoms: C_9  and  C_10
REMARK    4  A    between atoms: C_10  and  C_11
REMARK    5  A    between atoms: C_10  and  N_18
REMARK    6  A    between atoms: N_13  and  C_14
REMARK    7  A    between atoms: C_14  and  C_15
REMARK    8  A    between atoms: C_14  and  C_16
REMARK    9  A    between atoms: C_14  and  C_17
REMARK   10  A    between atoms: C_21  and  C_22
REMARK   11  A    between atoms: CA_34  and  CB_35
REMARK   12  A    between atoms: CB_35  and  CG_36
REMARK   13  A    between atoms: CG_36  and  CD1_37
REMARK   14  A    between atoms: CG_36  and  CD2_38
REMARK                            x       y       z     vdW  Elec       q    Type
REMARK                         _______ _______ _______ _____ _____    ______ ____
ROOT
ATOM      1  N   LEU A   1      -7.122   1.508 126.453  0.00  0.00    +0.000 N 
ATOM      2  C   UNK A   2      -7.509   1.628 125.117  0.00  0.00    +0.000 C 
ATOM      3  O   UNK A   2      -8.664   1.358 124.776  0.00  0.00    +0.000 OA
ATOM      4  C   UNK A   2      -6.400   2.081 124.096  0.00  0.00    +0.000 C 
ATOM      5  N   UNK A   2      -5.755   3.197 124.713  0.00  0.00    +0.000 N 
ATOM      6  C   LEU A   1      -5.061   2.917 125.848  0.00  0.00    +0.000 C 
ATOM      7  O   LEU A   1      -4.029   3.565 126.070  0.00  0.00    +0.000 OA
ATOM      8  CA  LEU A   1      -5.655   1.798 126.758  0.00  0.00    +0.000 C 
ATOM      9  H   UNK A   2      -5.366   3.958 124.171  0.00  0.00    +0.000 HD
ENDROOT
BRANCH   4  10
ATOM     10  C   UNK A   2      -7.057   2.440 122.775  0.00  0.00    +0.000 C 
ATOM     11  C   UNK A   2      -6.075   3.362 122.053  0.00  0.00    +0.000 C 
ATOM     12  C   UNK A   2      -6.894   3.807 120.916  0.00  0.00    +0.000 A 
ATOM     13  C   UNK A   2      -6.335   4.310 119.756  0.00  0.00    +0.000 A 
ATOM     14  C   UNK A   2      -7.186   4.668 118.741  0.00  0.00    +0.000 A 
ATOM     15  C   UNK A   2      -8.546   4.362 118.870  0.00  0.00    +0.000 A 
ATOM     16  C   UNK A   2      -9.096   3.836 120.077  0.00  0.00    +0.000 A 
ATOM     17  C   UNK A   2      -8.257   3.630 121.163  0.00  0.00    +0.000 A 
ATOM     18  C   UNK A   2      -8.397   3.216 122.637  0.00  0.00    +0.000 C 
ENDBRANCH   4  10
BRANCH   1  19
ATOM     19  C   UNK A   0      -8.208   0.929 127.427  0.00  0.00    +0.000 C 
BRANCH  19  24
ATOM     20  C   UNK A   0      -9.066   3.140 130.476  0.00  0.00    +0.000 A 
ATOM     21  C   UNK A   0      -9.244   2.211 131.475  0.00  0.00    +0.000 A 
ATOM     22  C   UNK A   0      -8.725   0.948 131.275  0.00  0.00    +0.000 A 
ATOM     23  C   UNK A   0      -8.197   0.567 130.023  0.00  0.00    +0.000 A 
ATOM     24  C   UNK A   0      -8.304   1.422 128.905  0.00  0.00    +0.000 A 
ATOM     25  C   UNK A   0      -8.628   2.748 129.209  0.00  0.00    +0.000 A 
BRANCH  20  29
ATOM     26  C   UNK A   0     -10.107   6.711 130.629  0.00  0.00    +0.000 C 
ATOM     27  C   UNK A   0     -10.285   5.251 130.381  0.00  0.00    +0.000 C 
ATOM     28  O   UNK A   0     -11.335   4.814 129.895  0.00  0.00    +0.000 OA
ATOM     29  N   UNK A   0      -9.218   4.490 130.788  0.00  0.00    +0.000 N 
ATOM     30  H   UNK A   0      -8.464   4.908 131.320  0.00  0.00    +0.000 HD
ENDBRANCH  20  29
ENDBRANCH  19  24
BRANCH  19  31
ATOM     31  C   UNK A   0      -7.970  -0.608 127.391  0.00  0.00    +0.000 C 
ATOM     32  O   UNK A   0      -7.007  -1.102 127.981  0.00  0.00    +0.000 OA
ATOM     33  N   UNK A   0      -8.769  -1.373 126.553  0.00  0.00    +0.000 N 
ATOM     34  H   UNK A   0      -9.369  -0.872 125.904  0.00  0.00    +0.000 HD
BRANCH  33  35
ATOM     35  C   UNK A   0      -8.288  -2.703 126.146  0.00  0.00    +0.000 C 
ATOM     36  C   UNK A   0      -6.800  -2.659 125.727  0.00  0.00    +0.000 C 
ATOM     37  C   UNK A   0      -8.486  -3.691 127.305  0.00  0.00    +0.000 C 
ATOM     38  C   UNK A   0      -9.084  -3.206 124.929  0.00  0.00    +0.000 C 
ENDBRANCH  33  35
ENDBRANCH  19  31
ENDBRANCH   1  19
BRANCH   8  39
ATOM     39  CB  LEU A   1      -5.523   2.311 128.182  0.00  0.00    +0.000 C 
BRANCH  39  40
ATOM     40  CG  LEU A   1      -4.338   2.012 129.112  0.00  0.00    +0.000 C 
ATOM     41  CD1 LEU A   1      -3.951   3.261 129.949  0.00  0.00    +0.000 C 
ATOM     42  CD2 LEU A   1      -4.618   0.930 130.154  0.00  0.00    +0.000 C 
ENDBRANCH  39  40
ENDBRANCH   8  39
TORSDOF 8
ENDMDL
MODEL 2
REMARK VINA RESULT:      -9.6      2.140      4.977
REMARK  Name = CHEMBL193773
REMARK  14 active torsions:
REMARK  status: ('A' for Active; 'I' for Inactive)
REMARK    1  A    between atoms: C_1  and  C_2
REMARK    2  A    between atoms: N_4  and  C_5
REMARK    3  A    between atoms: C_9  and  C_10
REMARK    4  A    between atoms: C_10  and  C_11
REMARK    5  A    between atoms: C_10  and  N_18
REMARK    6  A    between atoms: N_13  and  C_14
REMARK    7  A    between atoms: C_14  and  C_15
REMARK    8  A    between atoms: C_14  and  C_16
REMARK    9  A    between atoms: C_14  and  C_17
REMARK   10  A    between atoms: C_21  and  C_22
REMARK   11  A    between atoms: CA_34  and  CB_35
REMARK   12  A    between atoms: CB_35  and  CG_36
REMARK   13  A    between atoms: CG_36  and  CD1_37
REMARK   14  A    between atoms: CG_36  and  CD2_38
REMARK                            x       y       z     vdW  Elec       q    Type
REMARK                         _______ _______ _______ _____ _____    ______ ____
ROOT
ATOM      1  N   LEU A   1      -7.399   2.662 128.200  0.00  0.00    +0.000 N 
ATOM      2  C   UNK A   2      -7.314   3.258 126.940  0.00  0.00    +0.000 C 
ATOM      3  O   UNK A   2      -6.754   4.350 126.804  0.00  0.00    +0.000 OA
ATOM      4  C   UNK A   2      -7.990   2.488 125.746  0.00  0.00    +0.000 C 
ATOM      5  N   UNK A   2      -7.558   1.132 125.880  0.00  0.00    +0.000 N 
ATOM      6  C   LEU A   1      -8.009   0.482 126.986  0.00  0.00    +0.000 C 
ATOM      7  O   LEU A   1      -8.248  -0.729 126.888  0.00  0.00    +0.000 OA
ATOM      8  CA  LEU A   1      -8.171   1.348 128.273  0.00  0.00    +0.000 C 
ATOM      9  H   UNK A   2      -7.421   0.530 125.078  0.00  0.00    +0.000 HD
ENDROOT
BRANCH   4  10
ATOM     10  C   UNK A   2      -7.548   3.116 124.436  0.00  0.00    +0.000 C 
ATOM     11  C   UNK A   2      -8.644   2.794 123.422  0.00  0.00    +0.000 C 
ATOM     12  C   UNK A   2      -8.016   3.252 122.175  0.00  0.00    +0.000 A 
ATOM     13  C   UNK A   2      -8.754   3.566 121.049  0.00  0.00    +0.000 A 
ATOM     14  C   UNK A   2      -8.074   4.015 119.946  0.00  0.00    +0.000 A 
ATOM     15  C   UNK A   2      -6.704   4.280 120.066  0.00  0.00    +0.000 A 
ATOM     16  C   UNK A   2      -5.967   3.954 121.244  0.00  0.00    +0.000 A 
ATOM     17  C   UNK A   2      -6.629   3.343 122.301  0.00  0.00    +0.000 A 
ATOM     18  C   UNK A   2      -6.258   2.725 123.659  0.00  0.00    +0.000 C 
ENDBRANCH   4  10
BRANCH   1  19
ATOM     19  C   UNK A   0      -6.835   3.511 129.394  0.00  0.00    +0.000 C 
BRANCH  19  24
ATOM     20  C   UNK A   0      -9.579   6.150 130.043  0.00  0.00    +0.000 A 
ATOM     21  C   UNK A   0      -9.083   6.832 131.130  0.00  0.00    +0.000 A 
ATOM     22  C   UNK A   0      -7.737   6.708 131.404  0.00  0.00    +0.000 A 
ATOM     23  C   UNK A   0      -6.936   5.773 130.714  0.00  0.00    +0.000 A 
ATOM     24  C   UNK A   0      -7.516   4.851 129.817  0.00  0.00    +0.000 A 
ATOM     25  C   UNK A   0      -8.819   5.162 129.415  0.00  0.00    +0.000 A 
BRANCH  20  29
ATOM     26  C   UNK A   0     -12.398   8.008 128.473  0.00  0.00    +0.000 C 
ATOM     27  C   UNK A   0     -10.969   7.653 128.716  0.00  0.00    +0.000 C 
ATOM     28  O   UNK A   0     -10.057   8.300 128.188  0.00  0.00    +0.000 OA
ATOM     29  N   UNK A   0     -10.806   6.547 129.512  0.00  0.00    +0.000 N 
ATOM     30  H   UNK A   0     -11.604   5.983 129.774  0.00  0.00    +0.000 HD
ENDBRANCH  20  29
ENDBRANCH  19  24
BRANCH  19  31
ATOM     31  C   UNK A   0      -5.349   3.764 129.012  0.00  0.00    +0.000 C 
ATOM     32  O   UNK A   0      -4.533   2.840 129.037  0.00  0.00    +0.000 OA
ATOM     33  N   UNK A   0      -4.942   5.075 128.803  0.00  0.00    +0.000 N 
ATOM     34  H   UNK A   0      -5.602   5.807 129.049  0.00  0.00    +0.000 HD
BRANCH  33  35
ATOM     35  C   UNK A   0      -3.509   5.390 128.902  0.00  0.00    +0.000 C 
ATOM     36  C   UNK A   0      -2.932   4.958 130.271  0.00  0.00    +0.000 C 
ATOM     37  C   UNK A   0      -2.754   4.690 127.763  0.00  0.00    +0.000 C 
ATOM     38  C   UNK A   0      -3.289   6.908 128.779  0.00  0.00    +0.000 C 
ENDBRANCH  33  35
ENDBRANCH  19  31
ENDBRANCH   1  19
BRANCH   8  39
ATOM     39  CB  LEU A   1      -7.628   0.501 129.411  0.00  0.00    +0.000 C 
BRANCH  39  40
ATOM     40  CG  LEU A   1      -8.415   0.131 130.678  0.00  0.00    +0.000 C 
ATOM     41  CD1 LEU A   1      -7.517  -0.620 131.698  0.00  0.00    +0.000 C 
ATOM     42  CD2 LEU A   1      -8.950   1.332 131.456  0.00  0.00    +0.000 C 
ENDBRANCH  39  40
ENDBRANCH   8  39
TORSDOF 8
ENDMDL
MODEL 3
REMARK VINA RESULT:      -9.2      5.072      8.084
REMARK  Name = CHEMBL193773
REMARK  14 active torsions:
REMARK  status: ('A' for Active; 'I' for Inactive)
REMARK    1  A    between atoms: C_1  and  C_2
REMARK    2  A    between atoms: N_4  and  C_5
REMARK    3  A    between atoms: C_9  and  C_10
REMARK    4  A    between atoms: C_10  and  C_11
REMARK    5  A    between atoms: C_10  and  N_18
REMARK    6  A    between atoms: N_13  and  C_14
REMARK    7  A    between atoms: C_14  and  C_15
REMARK    8  A    between atoms: C_14  and  C_16
REMARK    9  A    between atoms: C_14  and  C_17
REMARK   10  A    between atoms: C_21  and  C_22
REMARK   11  A    between atoms: CA_34  and  CB_35
REMARK   12  A    between atoms: CB_35  and  CG_36
REMARK   13  A    between atoms: CG_36  and  CD1_37
REMARK   14  A    between atoms: CG_36  and  CD2_38
REMARK                            x       y       z     vdW  Elec       q    Type
REMARK                         _______ _______ _______ _____ _____    ______ ____
ROOT
ATOM      1  N   LEU A   1      -7.444   3.597 130.844  0.00  0.00    +0.000 N 
ATOM      2  C   UNK A   2      -8.338   4.396 130.130  0.00  0.00    +0.000 C 
ATOM      3  O   UNK A   2      -8.243   4.495 128.902  0.00  0.00    +0.000 OA
ATOM      4  C   UNK A   2      -9.423   5.170 130.968  0.00  0.00    +0.000 C 
ATOM      5  N   UNK A   2      -9.959   4.202 131.872  0.00  0.00    +0.000 N 
ATOM      6  C   LEU A   1      -9.092   3.736 132.810  0.00  0.00    +0.000 C 
ATOM      7  O   LEU A   1      -9.544   3.455 133.928  0.00  0.00    +0.000 OA
ATOM      8  CA  LEU A   1      -7.604   3.598 132.362  0.00  0.00    +0.000 C 
ATOM      9  H   UNK A   2     -10.921   4.234 132.183  0.00  0.00    +0.000 HD
ENDROOT
BRANCH   4  10
ATOM     10  C   UNK A   2     -10.471   5.734 130.025  0.00  0.00    +0.000 C 
ATOM     11  C   UNK A   2     -10.609   7.213 130.383  0.00  0.00    +0.000 C 
ATOM     12  C   UNK A   2     -11.776   7.589 129.573  0.00  0.00    +0.000 A 
ATOM     13  C   UNK A   2     -12.040   8.900 129.223  0.00  0.00    +0.000 A 
ATOM     14  C   UNK A   2     -13.138   9.142 128.438  0.00  0.00    +0.000 A 
ATOM     15  C   UNK A   2     -13.835   8.049 127.908  0.00  0.00    +0.000 A 
ATOM     16  C   UNK A   2     -13.537   6.704 128.280  0.00  0.00    +0.000 A 
ATOM     17  C   UNK A   2     -12.530   6.472 129.207  0.00  0.00    +0.000 A 
ATOM     18  C   UNK A   2     -11.954   5.270 129.972  0.00  0.00    +0.000 C 
ENDBRANCH   4  10
BRANCH   1  19
ATOM     19  C   UNK A   0      -6.292   2.942 130.002  0.00  0.00    +0.000 C 
BRANCH  19  24
ATOM     20  C   UNK A   0      -6.269  -0.914 129.787  0.00  0.00    +0.000 A 
ATOM     21  C   UNK A   0      -4.931  -1.209 129.911  0.00  0.00    +0.000 A 
ATOM     22  C   UNK A   0      -4.107  -0.236 130.438  0.00  0.00    +0.000 A 
ATOM     23  C   UNK A   0      -4.580   1.074 130.666  0.00  0.00    +0.000 A 
ATOM     24  C   UNK A   0      -5.869   1.459 130.241  0.00  0.00    +0.000 A 
ATOM     25  C   UNK A   0      -6.724   0.399 129.925  0.00  0.00    +0.000 A 
BRANCH  20  29
ATOM     26  C   UNK A   0      -8.638  -3.477 128.491  0.00  0.00    +0.000 C 
ATOM     27  C   UNK A   0      -7.476  -2.544 128.430  0.00  0.00    +0.000 C 
ATOM     28  O   UNK A   0      -6.851  -2.377 127.376  0.00  0.00    +0.000 OA
ATOM     29  N   UNK A   0      -7.171  -1.966 129.637  0.00  0.00    +0.000 N 
ATOM     30  H   UNK A   0      -7.633  -2.276 130.484  0.00  0.00    +0.000 HD
ENDBRANCH  20  29
ENDBRANCH  19  24
BRANCH  19  31
ATOM     31  C   UNK A   0      -5.077   3.887 130.221  0.00  0.00    +0.000 C 
ATOM     32  O   UNK A   0      -4.616   4.057 131.351  0.00  0.00    +0.000 OA
ATOM     33  N   UNK A   0      -4.639   4.648 129.146  0.00  0.00    +0.000 N 
ATOM     34  H   UNK A   0      -5.224   4.652 128.315  0.00  0.00    +0.000 HD
BRANCH  33  35
ATOM     35  C   UNK A   0      -3.835   5.851 129.417  0.00  0.00    +0.000 C 
ATOM     36  C   UNK A   0      -4.622   6.870 130.275  0.00  0.00    +0.000 C 
ATOM     37  C   UNK A   0      -2.538   5.444 130.129  0.00  0.00    +0.000 C 
ATOM     38  C   UNK A   0      -3.474   6.556 128.098  0.00  0.00    +0.000 C 
ENDBRANCH  33  35
ENDBRANCH  19  31
ENDBRANCH   1  19
BRANCH   8  39
ATOM     39  CB  LEU A   1      -7.124   2.272 132.925  0.00  0.00    +0.000 C 
BRANCH  39  40
ATOM     40  CG  LEU A   1      -6.384   2.107 134.261  0.00  0.00    +0.000 C 
ATOM     41  CD1 LEU A   1      -5.478   0.846 134.250  0.00  0.00    +0.000 C 
ATOM     42  CD2 LEU A   1      -5.433   3.254 134.597  0.00  0.00    +0.000 C 
ENDBRANCH  39  40
ENDBRANCH   8  39
TORSDOF 8
ENDMDL
MODEL 4
REMARK VINA RESULT:      -9.2      3.569      7.955
REMARK  Name = CHEMBL193773
REMARK  14 active torsions:
REMARK  status: ('A' for Active; 'I' for Inactive)
REMARK    1  A    between atoms: C_1  and  C_2
REMARK    2  A    between atoms: N_4  and  C_5
REMARK    3  A    between atoms: C_9  and  C_10
REMARK    4  A    between atoms: C_10  and  C_11
REMARK    5  A    between atoms: C_10  and  N_18
REMARK    6  A    between atoms: N_13  and  C_14
REMARK    7  A    between atoms: C_14  and  C_15
REMARK    8  A    between atoms: C_14  and  C_16
REMARK    9  A    between atoms: C_14  and  C_17
REMARK   10  A    between atoms: C_21  and  C_22
REMARK   11  A    between atoms: CA_34  and  CB_35
REMARK   12  A    between atoms: CB_35  and  CG_36
REMARK   13  A    between atoms: CG_36  and  CD1_37
REMARK   14  A    between atoms: CG_36  and  CD2_38
REMARK                            x       y       z     vdW  Elec       q    Type
REMARK                         _______ _______ _______ _____ _____    ______ ____
ROOT
ATOM      1  N   LEU A   1      -7.846   2.828 128.470  0.00  0.00    +0.000 N 
ATOM      2  C   UNK A   2      -8.336   4.130 128.587  0.00  0.00    +0.000 C 
ATOM      3  O   UNK A   2      -8.291   4.902 127.624  0.00  0.00    +0.000 OA
ATOM      4  C   UNK A   2      -8.901   4.550 129.994  0.00  0.00    +0.000 C 
ATOM      5  N   UNK A   2      -9.750   3.473 130.396  0.00  0.00    +0.000 N 
ATOM      6  C   LEU A   1      -9.120   2.291 130.635  0.00  0.00    +0.000 C 
ATOM      7  O   LEU A   1      -9.572   1.566 131.530  0.00  0.00    +0.000 OA
ATOM      8  CA  LEU A   1      -7.884   1.977 129.736  0.00  0.00    +0.000 C 
ATOM      9  H   UNK A   2     -10.573   3.621 130.965  0.00  0.00    +0.000 HD
ENDROOT
BRANCH   4  10
ATOM     10  C   UNK A   2      -9.649   5.864 129.857  0.00  0.00    +0.000 C 
ATOM     11  C   UNK A   2     -10.880   5.745 130.755  0.00  0.00    +0.000 C 
ATOM     12  C   UNK A   2     -11.620   6.958 130.380  0.00  0.00    +0.000 A 
ATOM     13  C   UNK A   2     -12.578   7.522 131.200  0.00  0.00    +0.000 A 
ATOM     14  C   UNK A   2     -13.189   8.672 130.770  0.00  0.00    +0.000 A 
ATOM     15  C   UNK A   2     -12.704   9.296 129.614  0.00  0.00    +0.000 A 
ATOM     16  C   UNK A   2     -11.706   8.695 128.789  0.00  0.00    +0.000 A 
ATOM     17  C   UNK A   2     -11.208   7.447 129.138  0.00  0.00    +0.000 A 
ATOM     18  C   UNK A   2     -10.262   6.399 128.532  0.00  0.00    +0.000 C 
ENDBRANCH   4  10
BRANCH   1  19
ATOM     19  C   UNK A   0      -7.168   2.476 127.098  0.00  0.00    +0.000 C 
BRANCH  19  24
ATOM     20  C   UNK A   0      -6.835  -1.078 125.622  0.00  0.00    +0.000 A 
ATOM     21  C   UNK A   0      -8.128  -1.546 125.684  0.00  0.00    +0.000 A 
ATOM     22  C   UNK A   0      -9.139  -0.619 125.829  0.00  0.00    +0.000 A 
ATOM     23  C   UNK A   0      -8.851   0.738 126.092  0.00  0.00    +0.000 A 
ATOM     24  C   UNK A   0      -7.527   1.158 126.342  0.00  0.00    +0.000 A 
ATOM     25  C   UNK A   0      -6.540   0.242 125.968  0.00  0.00    +0.000 A 
BRANCH  20  29
ATOM     26  C   UNK A   0      -4.760  -3.295 123.469  0.00  0.00    +0.000 C 
ATOM     27  C   UNK A   0      -5.727  -2.197 123.759  0.00  0.00    +0.000 C 
ATOM     28  O   UNK A   0      -6.302  -1.600 122.841  0.00  0.00    +0.000 OA
ATOM     29  N   UNK A   0      -5.850  -1.912 125.095  0.00  0.00    +0.000 N 
ATOM     30  H   UNK A   0      -5.227  -2.340 125.770  0.00  0.00    +0.000 HD
ENDBRANCH  20  29
ENDBRANCH  19  24
BRANCH  19  31
ATOM     31  C   UNK A   0      -5.644   2.517 127.406  0.00  0.00    +0.000 C 
ATOM     32  O   UNK A   0      -5.099   1.573 127.982  0.00  0.00    +0.000 OA
ATOM     33  N   UNK A   0      -4.960   3.700 127.162  0.00  0.00    +0.000 N 
ATOM     34  H   UNK A   0      -5.520   4.517 126.931  0.00  0.00    +0.000 HD
BRANCH  33  35
ATOM     35  C   UNK A   0      -3.680   3.927 127.851  0.00  0.00    +0.000 C 
ATOM     36  C   UNK A   0      -3.774   3.552 129.349  0.00  0.00    +0.000 C 
ATOM     37  C   UNK A   0      -2.581   3.103 127.165  0.00  0.00    +0.000 C 
ATOM     38  C   UNK A   0      -3.295   5.415 127.783  0.00  0.00    +0.000 C 
ENDBRANCH  33  35
ENDBRANCH  19  31
ENDBRANCH   1  19
BRANCH   8  39
ATOM     39  CB  LEU A   1      -8.009   0.511 129.361  0.00  0.00    +0.000 C 
BRANCH  39  40
ATOM     40  CG  LEU A   1      -7.009  -0.583 129.766  0.00  0.00    +0.000 C 
ATOM     41  CD1 LEU A   1      -6.933  -0.732 131.310  0.00  0.00    +0.000 C 
ATOM     42  CD2 LEU A   1      -7.374  -1.980 129.268  0.00  0.00    +0.000 C 
ENDBRANCH  39  40
ENDBRANCH   8  39
TORSDOF 8
ENDMDL
MODEL 5
REMARK VINA RESULT:      -9.0      1.826      2.298
REMARK  Name = CHEMBL193773
REMARK  14 active torsions:
REMARK  status: ('A' for Active; 'I' for Inactive)
REMARK    1  A    between atoms: C_1  and  C_2
REMARK    2  A    between atoms: N_4  and  C_5
REMARK    3  A    between atoms: C_9  and  C_10
REMARK    4  A    between atoms: C_10  and  C_11
REMARK    5  A    between atoms: C_10  and  N_18
REMARK    6  A    between atoms: N_13  and  C_14
REMARK    7  A    between atoms: C_14  and  C_15
REMARK    8  A    between atoms: C_14  and  C_16
REMARK    9  A    between atoms: C_14  and  C_17
REMARK   10  A    between atoms: C_21  and  C_22
REMARK   11  A    between atoms: CA_34  and  CB_35
REMARK   12  A    between atoms: CB_35  and  CG_36
REMARK   13  A    between atoms: CG_36  and  CD1_37
REMARK   14  A    between atoms: CG_36  and  CD2_38
REMARK                            x       y       z     vdW  Elec       q    Type
REMARK                         _______ _______ _______ _____ _____    ______ ____
ROOT
ATOM      1  N   LEU A   1      -6.819   2.104 127.632  0.00  0.00    +0.000 N 
ATOM      2  C   UNK A   2      -6.868   2.064 126.237  0.00  0.00    +0.000 C 
ATOM      3  O   UNK A   2      -7.699   1.353 125.663  0.00  0.00    +0.000 OA
ATOM      4  C   UNK A   2      -5.805   2.931 125.466  0.00  0.00    +0.000 C 
ATOM      5  N   UNK A   2      -5.827   4.209 126.105  0.00  0.00    +0.000 N 
ATOM      6  C   LEU A   1      -5.392   4.226 127.393  0.00  0.00    +0.000 C 
ATOM      7  O   LEU A   1      -4.789   5.233 127.787  0.00  0.00    +0.000 OA
ATOM      8  CA  LEU A   1      -5.712   2.958 128.243  0.00  0.00    +0.000 C 
ATOM      9  H   UNK A   2      -5.643   5.065 125.599  0.00  0.00    +0.000 HD
ENDROOT
BRANCH   4  10
ATOM     10  C   UNK A   2      -6.191   3.003 124.000  0.00  0.00    +0.000 C 
ATOM     11  C   UNK A   2      -5.257   4.033 123.367  0.00  0.00    +0.000 C 
ATOM     12  C   UNK A   2      -5.856   4.172 122.032  0.00  0.00    +0.000 A 
ATOM     13  C   UNK A   2      -5.145   4.659 120.951  0.00  0.00    +0.000 A 
ATOM     14  C   UNK A   2      -5.788   4.720 119.741  0.00  0.00    +0.000 A 
ATOM     15  C   UNK A   2      -7.060   4.145 119.629  0.00  0.00    +0.000 A 
ATOM     16  C   UNK A   2      -7.768   3.641 120.761  0.00  0.00    +0.000 A 
ATOM     17  C   UNK A   2      -7.182   3.734 122.015  0.00  0.00    +0.000 A 
ATOM     18  C   UNK A   2      -7.583   3.455 123.473  0.00  0.00    +0.000 C 
ENDBRANCH   4  10
BRANCH   1  19
ATOM     19  C   UNK A   0      -7.801   1.131 128.376  0.00  0.00    +0.000 C 
BRANCH  19  24
ATOM     20  C   UNK A   0      -9.773   2.954 131.152  0.00  0.00    +0.000 A 
ATOM     21  C   UNK A   0     -10.071   1.932 132.024  0.00  0.00    +0.000 A 
ATOM     22  C   UNK A   0      -9.332   0.771 131.926  0.00  0.00    +0.000 A 
ATOM     23  C   UNK A   0      -8.435   0.566 130.855  0.00  0.00    +0.000 A 
ATOM     24  C   UNK A   0      -8.365   1.486 129.788  0.00  0.00    +0.000 A 
ATOM     25  C   UNK A   0      -8.956   2.728 130.043  0.00  0.00    +0.000 A 
BRANCH  20  29
ATOM     26  C   UNK A   0     -11.181   6.399 131.089  0.00  0.00    +0.000 C 
ATOM     27  C   UNK A   0     -11.057   4.972 130.673  0.00  0.00    +0.000 C 
ATOM     28  O   UNK A   0     -11.716   4.528 129.726  0.00  0.00    +0.000 OA
ATOM     29  N   UNK A   0     -10.206   4.242 131.464  0.00  0.00    +0.000 N 
ATOM     30  H   UNK A   0      -9.828   4.641 132.314  0.00  0.00    +0.000 HD
ENDBRANCH  20  29
ENDBRANCH  19  24
BRANCH  19  31
ATOM     31  C   UNK A   0      -7.029  -0.218 128.433  0.00  0.00    +0.000 C 
ATOM     32  O   UNK A   0      -7.577  -1.265 128.080  0.00  0.00    +0.000 OA
ATOM     33  N   UNK A   0      -5.780  -0.231 129.038  0.00  0.00    +0.000 N 
ATOM     34  H   UNK A   0      -5.500   0.610 129.535  0.00  0.00    +0.000 HD
BRANCH  33  35
ATOM     35  C   UNK A   0      -5.244  -1.514 129.518  0.00  0.00    +0.000 C 
ATOM     36  C   UNK A   0      -4.938  -2.470 128.341  0.00  0.00    +0.000 C 
ATOM     37  C   UNK A   0      -3.974  -1.259 130.341  0.00  0.00    +0.000 C 
ATOM     38  C   UNK A   0      -6.278  -2.220 130.413  0.00  0.00    +0.000 C 
ENDBRANCH  33  35
ENDBRANCH  19  31
ENDBRANCH   1  19
BRANCH   8  39
ATOM     39  CB  LEU A   1      -6.158   3.473 129.601  0.00  0.00    +0.000 C 
BRANCH  39  40
ATOM     40  CG  LEU A   1      -5.270   3.515 130.854  0.00  0.00    +0.000 C 
ATOM     41  CD1 LEU A   1      -6.097   3.236 132.138  0.00  0.00    +0.000 C 
ATOM     42  CD2 LEU A   1      -4.167   2.459 130.876  0.00  0.00    +0.000 C 
ENDBRANCH  39  40
ENDBRANCH   8  39
TORSDOF 8
ENDMDL
MODEL 6
REMARK VINA RESULT:      -9.0      4.104      7.734
REMARK  Name = CHEMBL193773
REMARK  14 active torsions:
REMARK  status: ('A' for Active; 'I' for Inactive)
REMARK    1  A    between atoms: C_1  and  C_2
REMARK    2  A    between atoms: N_4  and  C_5
REMARK    3  A    between atoms: C_9  and  C_10
REMARK    4  A    between atoms: C_10  and  C_11
REMARK    5  A    between atoms: C_10  and  N_18
REMARK    6  A    between atoms: N_13  and  C_14
REMARK    7  A    between atoms: C_14  and  C_15
REMARK    8  A    between atoms: C_14  and  C_16
REMARK    9  A    between atoms: C_14  and  C_17
REMARK   10  A    between atoms: C_21  and  C_22
REMARK   11  A    between atoms: CA_34  and  CB_35
REMARK   12  A    between atoms: CB_35  and  CG_36
REMARK   13  A    between atoms: CG_36  and  CD1_37
REMARK   14  A    between atoms: CG_36  and  CD2_38
REMARK                            x       y       z     vdW  Elec       q    Type
REMARK                         _______ _______ _______ _____ _____    ______ ____
ROOT
ATOM      1  N   LEU A   1      -7.491   2.559 129.848  0.00  0.00    +0.000 N 
ATOM      2  C   UNK A   2      -8.461   3.560 129.765  0.00  0.00    +0.000 C 
ATOM      3  O   UNK A   2      -9.121   3.703 128.732  0.00  0.00    +0.000 OA
ATOM      4  C   UNK A   2      -8.629   4.489 131.024  0.00  0.00    +0.000 C 
ATOM      5  N   UNK A   2      -8.671   3.602 132.143  0.00  0.00    +0.000 N 
ATOM      6  C   LEU A   1      -7.521   2.919 132.391  0.00  0.00    +0.000 C 
ATOM      7  O   LEU A   1      -7.236   2.675 133.571  0.00  0.00    +0.000 OA
ATOM      8  CA  LEU A   1      -6.682   2.510 131.141  0.00  0.00    +0.000 C 
ATOM      9  H   UNK A   2      -9.211   3.810 132.973  0.00  0.00    +0.000 HD
ENDROOT
BRANCH   4  10
ATOM     10  C   UNK A   2      -9.902   5.303 130.874  0.00  0.00    +0.000 C 
ATOM     11  C   UNK A   2      -9.553   6.466 129.947  0.00  0.00    +0.000 C 
ATOM     12  C   UNK A   2     -10.771   7.283 130.051  0.00  0.00    +0.000 A 
ATOM     13  C   UNK A   2     -11.121   8.211 129.089  0.00  0.00    +0.000 A 
ATOM     14  C   UNK A   2     -12.295   8.899 129.264  0.00  0.00    +0.000 A 
ATOM     15  C   UNK A   2     -13.144   8.518 130.311  0.00  0.00    +0.000 A 
ATOM     16  C   UNK A   2     -12.760   7.550 131.286  0.00  0.00    +0.000 A 
ATOM     17  C   UNK A   2     -11.500   6.975 131.202  0.00  0.00    +0.000 A 
ATOM     18  C   UNK A   2     -10.634   6.023 132.043  0.00  0.00    +0.000 C 
ENDBRANCH   4  10
BRANCH   1  19
ATOM     19  C   UNK A   0      -7.251   1.732 128.535  0.00  0.00    +0.000 C 
BRANCH  19  24
ATOM     20  C   UNK A   0      -7.343  -1.915 127.267  0.00  0.00    +0.000 A 
ATOM     21  C   UNK A   0      -7.255  -2.637 128.436  0.00  0.00    +0.000 A 
ATOM     22  C   UNK A   0      -7.551  -1.985 129.615  0.00  0.00    +0.000 A 
ATOM     23  C   UNK A   0      -7.753  -0.588 129.644  0.00  0.00    +0.000 A 
ATOM     24  C   UNK A   0      -7.530   0.197 128.493  0.00  0.00    +0.000 A 
ATOM     25  C   UNK A   0      -7.453  -0.524 127.297  0.00  0.00    +0.000 A 
BRANCH  20  29
ATOM     26  C   UNK A   0      -8.468  -3.916 124.337  0.00  0.00    +0.000 C 
ATOM     27  C   UNK A   0      -8.627  -2.979 125.486  0.00  0.00    +0.000 C 
ATOM     28  O   UNK A   0      -9.744  -2.567 125.819  0.00  0.00    +0.000 OA
ATOM     29  N   UNK A   0      -7.437  -2.610 126.062  0.00  0.00    +0.000 N 
ATOM     30  H   UNK A   0      -6.558  -2.868 125.631  0.00  0.00    +0.000 HD
ENDBRANCH  20  29
ENDBRANCH  19  24
BRANCH  19  31
ATOM     31  C   UNK A   0      -5.765   2.016 128.173  0.00  0.00    +0.000 C 
ATOM     32  O   UNK A   0      -4.892   1.184 128.429  0.00  0.00    +0.000 OA
ATOM     33  N   UNK A   0      -5.436   3.282 127.710  0.00  0.00    +0.000 N 
ATOM     34  H   UNK A   0      -6.158   3.996 127.767  0.00  0.00    +0.000 HD
BRANCH  33  35
ATOM     35  C   UNK A   0      -4.036   3.723 127.803  0.00  0.00    +0.000 C 
ATOM     36  C   UNK A   0      -3.506   3.607 129.252  0.00  0.00    +0.000 C 
ATOM     37  C   UNK A   0      -3.174   2.880 126.852  0.00  0.00    +0.000 C 
ATOM     38  C   UNK A   0      -3.915   5.202 127.397  0.00  0.00    +0.000 C 
ENDBRANCH  33  35
ENDBRANCH  19  31
ENDBRANCH   1  19
BRANCH   8  39
ATOM     39  CB  LEU A   1      -6.224   1.085 131.401  0.00  0.00    +0.000 C 
BRANCH  39  40
ATOM     40  CG  LEU A   1      -4.921   0.704 132.121  0.00  0.00    +0.000 C 
ATOM     41  CD1 LEU A   1      -4.136  -0.376 131.329  0.00  0.00    +0.000 C 
ATOM     42  CD2 LEU A   1      -3.930   1.856 132.275  0.00  0.00    +0.000 C 
ENDBRANCH  39  40
ENDBRANCH   8  39
TORSDOF 8
ENDMDL
MODEL 7
REMARK VINA RESULT:      -9.0      2.126      5.484
REMARK  Name = CHEMBL193773
REMARK  14 active torsions:
REMARK  status: ('A' for Active; 'I' for Inactive)
REMARK    1  A    between atoms: C_1  and  C_2
REMARK    2  A    between atoms: N_4  and  C_5
REMARK    3  A    between atoms: C_9  and  C_10
REMARK    4  A    between atoms: C_10  and  C_11
REMARK    5  A    between atoms: C_10  and  N_18
REMARK    6  A    between atoms: N_13  and  C_14
REMARK    7  A    between atoms: C_14  and  C_15
REMARK    8  A    between atoms: C_14  and  C_16
REMARK    9  A    between atoms: C_14  and  C_17
REMARK   10  A    between atoms: C_21  and  C_22
REMARK   11  A    between atoms: CA_34  and  CB_35
REMARK   12  A    between atoms: CB_35  and  CG_36
REMARK   13  A    between atoms: CG_36  and  CD1_37
REMARK   14  A    between atoms: CG_36  and  CD2_38
REMARK                            x       y       z     vdW  Elec       q    Type
REMARK                         _______ _______ _______ _____ _____    ______ ____
ROOT
ATOM      1  N   LEU A   1      -6.668   1.474 127.996  0.00  0.00    +0.000 N 
ATOM      2  C   UNK A   2      -6.199   2.108 126.844  0.00  0.00    +0.000 C 
ATOM      3  O   UNK A   2      -5.564   1.472 125.997  0.00  0.00    +0.000 OA
ATOM      4  C   UNK A   2      -6.492   3.649 126.714  0.00  0.00    +0.000 C 
ATOM      5  N   UNK A   2      -7.873   3.799 127.051  0.00  0.00    +0.000 N 
ATOM      6  C   LEU A   1      -8.194   3.512 128.341  0.00  0.00    +0.000 C 
ATOM      7  O   LEU A   1      -9.098   4.170 128.872  0.00  0.00    +0.000 OA
ATOM      8  CA  LEU A   1      -7.379   2.363 129.012  0.00  0.00    +0.000 C 
ATOM      9  H   UNK A   2      -8.452   4.516 126.634  0.00  0.00    +0.000 HD
ENDROOT
BRANCH   4  10
ATOM     10  C   UNK A   2      -6.183   4.096 125.296  0.00  0.00    +0.000 C 
ATOM     11  C   UNK A   2      -7.041   3.223 124.382  0.00  0.00    +0.000 C 
ATOM     12  C   UNK A   2      -6.507   3.589 123.063  0.00  0.00    +0.000 A 
ATOM     13  C   UNK A   2      -7.223   3.396 121.896  0.00  0.00    +0.000 A 
ATOM     14  C   UNK A   2      -6.647   3.801 120.720  0.00  0.00    +0.000 A 
ATOM     15  C   UNK A   2      -5.449   4.524 120.775  0.00  0.00    +0.000 A 
ATOM     16  C   UNK A   2      -4.733   4.716 121.995  0.00  0.00    +0.000 A 
ATOM     17  C   UNK A   2      -5.236   4.159 123.163  0.00  0.00    +0.000 A 
ATOM     18  C   UNK A   2      -4.784   4.001 124.623  0.00  0.00    +0.000 C 
ENDBRANCH   4  10
BRANCH   1  19
ATOM     19  C   UNK A   0      -6.249  -0.030 128.164  0.00  0.00    +0.000 C 
BRANCH  19  24
ATOM     20  C   UNK A   0      -8.607  -2.771 126.805  0.00  0.00    +0.000 A 
ATOM     21  C   UNK A   0      -8.651  -3.667 127.849  0.00  0.00    +0.000 A 
ATOM     22  C   UNK A   0      -8.255  -3.221 129.093  0.00  0.00    +0.000 A 
ATOM     23  C   UNK A   0      -7.652  -1.956 129.255  0.00  0.00    +0.000 A 
ATOM     24  C   UNK A   0      -7.318  -1.167 128.133  0.00  0.00    +0.000 A 
ATOM     25  C   UNK A   0      -7.932  -1.557 126.939  0.00  0.00    +0.000 A 
BRANCH  20  29
ATOM     26  C   UNK A   0      -9.750  -3.444 123.327  0.00  0.00    +0.000 C 
ATOM     27  C   UNK A   0      -8.786  -3.439 124.466  0.00  0.00    +0.000 C 
ATOM     28  O   UNK A   0      -7.616  -3.805 124.308  0.00  0.00    +0.000 OA
ATOM     29  N   UNK A   0      -9.346  -3.051 125.657  0.00  0.00    +0.000 N 
ATOM     30  H   UNK A   0     -10.347  -2.919 125.733  0.00  0.00    +0.000 HD
ENDBRANCH  20  29
ENDBRANCH  19  24
BRANCH  19  31
ATOM     31  C   UNK A   0      -5.474  -0.060 129.512  0.00  0.00    +0.000 C 
ATOM     32  O   UNK A   0      -4.500   0.675 129.686  0.00  0.00    +0.000 OA
ATOM     33  N   UNK A   0      -5.809  -1.041 130.435  0.00  0.00    +0.000 N 
ATOM     34  H   UNK A   0      -6.442  -1.771 130.123  0.00  0.00    +0.000 HD
BRANCH  33  35
ATOM     35  C   UNK A   0      -4.828  -1.390 131.475  0.00  0.00    +0.000 C 
ATOM     36  C   UNK A   0      -3.461  -1.765 130.855  0.00  0.00    +0.000 C 
ATOM     37  C   UNK A   0      -4.668  -0.207 132.440  0.00  0.00    +0.000 C 
ATOM     38  C   UNK A   0      -5.312  -2.614 132.272  0.00  0.00    +0.000 C 
ENDBRANCH  33  35
ENDBRANCH  19  31
ENDBRANCH   1  19
BRANCH   8  39
ATOM     39  CB  LEU A   1      -8.392   1.539 129.788  0.00  0.00    +0.000 C 
BRANCH  39  40
ATOM     40  CG  LEU A   1      -8.458   1.454 131.321  0.00  0.00    +0.000 C 
ATOM     41  CD1 LEU A   1      -9.489   2.462 131.896  0.00  0.00    +0.000 C 
ATOM     42  CD2 LEU A   1      -8.917   0.098 131.854  0.00  0.00    +0.000 C 
ENDBRANCH  39  40
ENDBRANCH   8  39
TORSDOF 8
ENDMDL
MODEL 8
REMARK VINA RESULT:      -8.9      3.270      7.579
REMARK  Name = CHEMBL193773
REMARK  14 active torsions:
REMARK  status: ('A' for Active; 'I' for Inactive)
REMARK    1  A    between atoms: C_1  and  C_2
REMARK    2  A    between atoms: N_4  and  C_5
REMARK    3  A    between atoms: C_9  and  C_10
REMARK    4  A    between atoms: C_10  and  C_11
REMARK    5  A    between atoms: C_10  and  N_18
REMARK    6  A    between atoms: N_13  and  C_14
REMARK    7  A    between atoms: C_14  and  C_15
REMARK    8  A    between atoms: C_14  and  C_16
REMARK    9  A    between atoms: C_14  and  C_17
REMARK   10  A    between atoms: C_21  and  C_22
REMARK   11  A    between atoms: CA_34  and  CB_35
REMARK   12  A    between atoms: CB_35  and  CG_36
REMARK   13  A    between atoms: CG_36  and  CD1_37
REMARK   14  A    between atoms: CG_36  and  CD2_38
REMARK                            x       y       z     vdW  Elec       q    Type
REMARK                         _______ _______ _______ _____ _____    ______ ____
ROOT
ATOM      1  N   LEU A   1      -7.621   2.256 130.437  0.00  0.00    +0.000 N 
ATOM      2  C   UNK A   2      -8.607   3.213 130.188  0.00  0.00    +0.000 C 
ATOM      3  O   UNK A   2      -9.465   3.014 129.323  0.00  0.00    +0.000 OA
ATOM      4  C   UNK A   2      -8.534   4.540 131.031  0.00  0.00    +0.000 C 
ATOM      5  N   UNK A   2      -8.332   4.117 132.381  0.00  0.00    +0.000 N 
ATOM      6  C   LEU A   1      -7.142   3.505 132.630  0.00  0.00    +0.000 C 
ATOM      7  O   LEU A   1      -6.620   3.685 133.737  0.00  0.00    +0.000 OA
ATOM      8  CA  LEU A   1      -6.567   2.628 131.475  0.00  0.00    +0.000 C 
ATOM      9  H   UNK A   2      -8.696   4.639 133.167  0.00  0.00    +0.000 HD
ENDROOT
BRANCH   4  10
ATOM     10  C   UNK A   2      -9.826   5.317 130.848  0.00  0.00    +0.000 C 
ATOM     11  C   UNK A   2      -9.492   6.477 129.912  0.00  0.00    +0.000 C 
ATOM     12  C   UNK A   2     -10.733   7.261 129.983  0.00  0.00    +0.000 A 
ATOM     13  C   UNK A   2     -11.092   8.166 129.002  0.00  0.00    +0.000 A 
ATOM     14  C   UNK A   2     -12.287   8.824 129.148  0.00  0.00    +0.000 A 
ATOM     15  C   UNK A   2     -13.144   8.433 130.185  0.00  0.00    +0.000 A 
ATOM     16  C   UNK A   2     -12.751   7.489 131.180  0.00  0.00    +0.000 A 
ATOM     17  C   UNK A   2     -11.474   6.948 131.125  0.00  0.00    +0.000 A 
ATOM     18  C   UNK A   2     -10.597   6.032 131.994  0.00  0.00    +0.000 C 
ENDBRANCH   4  10
BRANCH   1  19
ATOM     19  C   UNK A   0      -7.637   1.001 129.493  0.00  0.00    +0.000 C 
BRANCH  19  24
ATOM     20  C   UNK A   0      -5.872  -2.339 130.296  0.00  0.00    +0.000 A 
ATOM     21  C   UNK A   0      -6.402  -2.666 131.524  0.00  0.00    +0.000 A 
ATOM     22  C   UNK A   0      -7.572  -2.042 131.903  0.00  0.00    +0.000 A 
ATOM     23  C   UNK A   0      -8.106  -0.975 131.149  0.00  0.00    +0.000 A 
ATOM     24  C   UNK A   0      -7.390  -0.432 130.061  0.00  0.00    +0.000 A 
ATOM     25  C   UNK A   0      -6.341  -1.229 129.592  0.00  0.00    +0.000 A 
BRANCH  20  29
ATOM     26  C   UNK A   0      -2.805  -3.945 128.928  0.00  0.00    +0.000 C 
ATOM     27  C   UNK A   0      -3.584  -3.040 129.822  0.00  0.00    +0.000 C 
ATOM     28  O   UNK A   0      -3.009  -2.266 130.596  0.00  0.00    +0.000 OA
ATOM     29  N   UNK A   0      -4.942  -3.205 129.721  0.00  0.00    +0.000 N 
ATOM     30  H   UNK A   0      -5.327  -3.969 129.179  0.00  0.00    +0.000 HD
ENDBRANCH  20  29
ENDBRANCH  19  24
BRANCH  19  31
ATOM     31  C   UNK A   0      -6.580   1.334 128.402  0.00  0.00    +0.000 C 
ATOM     32  O   UNK A   0      -5.478   1.786 128.720  0.00  0.00    +0.000 OA
ATOM     33  N   UNK A   0      -6.969   1.260 127.071  0.00  0.00    +0.000 N 
ATOM     34  H   UNK A   0      -7.960   1.131 126.888  0.00  0.00    +0.000 HD
BRANCH  33  35
ATOM     35  C   UNK A   0      -6.181   1.991 126.067  0.00  0.00    +0.000 C 
ATOM     36  C   UNK A   0      -6.654   1.660 124.632  0.00  0.00    +0.000 C 
ATOM     37  C   UNK A   0      -6.295   3.499 126.331  0.00  0.00    +0.000 C 
ATOM     38  C   UNK A   0      -4.699   1.586 126.157  0.00  0.00    +0.000 C 
ENDBRANCH  33  35
ENDBRANCH  19  31
ENDBRANCH   1  19
BRANCH   8  39
ATOM     39  CB  LEU A   1      -6.039   1.368 132.139  0.00  0.00    +0.000 C 
BRANCH  39  40
ATOM     40  CG  LEU A   1      -4.574   0.909 132.100  0.00  0.00    +0.000 C 
ATOM     41  CD1 LEU A   1      -3.606   2.095 132.362  0.00  0.00    +0.000 C 
ATOM     42  CD2 LEU A   1      -4.210  -0.119 133.171  0.00  0.00    +0.000 C 
ENDBRANCH  39  40
ENDBRANCH   8  39
TORSDOF 8
ENDMDL
MODEL 9
REMARK VINA RESULT:      -8.9      4.786      7.834
REMARK  Name = CHEMBL193773
REMARK  14 active torsions:
REMARK  status: ('A' for Active; 'I' for Inactive)
REMARK    1  A    between atoms: C_1  and  C_2
REMARK    2  A    between atoms: N_4  and  C_5
REMARK    3  A    between atoms: C_9  and  C_10
REMARK    4  A    between atoms: C_10  and  C_11
REMARK    5  A    between atoms: C_10  and  N_18
REMARK    6  A    between atoms: N_13  and  C_14
REMARK    7  A    between atoms: C_14  and  C_15
REMARK    8  A    between atoms: C_14  and  C_16
REMARK    9  A    between atoms: C_14  and  C_17
REMARK   10  A    between atoms: C_21  and  C_22
REMARK   11  A    between atoms: CA_34  and  CB_35
REMARK   12  A    between atoms: CB_35  and  CG_36
REMARK   13  A    between atoms: CG_36  and  CD1_37
REMARK   14  A    between atoms: CG_36  and  CD2_38
REMARK                            x       y       z     vdW  Elec       q    Type
REMARK                         _______ _______ _______ _____ _____    ______ ____
ROOT
ATOM      1  N   LEU A   1      -7.853   3.163 130.407  0.00  0.00    +0.000 N 
ATOM      2  C   UNK A   2      -8.680   4.062 129.730  0.00  0.00    +0.000 C 
ATOM      3  O   UNK A   2      -8.756   4.032 128.498  0.00  0.00    +0.000 OA
ATOM      4  C   UNK A   2      -9.459   5.109 130.610  0.00  0.00    +0.000 C 
ATOM      5  N   UNK A   2     -10.023   4.352 131.683  0.00  0.00    +0.000 N 
ATOM      6  C   LEU A   1      -9.126   3.803 132.545  0.00  0.00    +0.000 C 
ATOM      7  O   LEU A   1      -9.447   3.718 133.737  0.00  0.00    +0.000 OA
ATOM      8  CA  LEU A   1      -7.777   3.329 131.922  0.00  0.00    +0.000 C 
ATOM      9  H   UNK A   2     -10.903   4.605 132.113  0.00  0.00    +0.000 HD
ENDROOT
BRANCH   4  10
ATOM     10  C   UNK A   2     -10.515   5.789 129.756  0.00  0.00    +0.000 C 
ATOM     11  C   UNK A   2     -10.637   7.214 130.291  0.00  0.00    +0.000 C 
ATOM     12  C   UNK A   2     -11.811   7.693 129.548  0.00  0.00    +0.000 A 
ATOM     13  C   UNK A   2     -12.068   9.039 129.362  0.00  0.00    +0.000 A 
ATOM     14  C   UNK A   2     -13.175   9.380 128.626  0.00  0.00    +0.000 A 
ATOM     15  C   UNK A   2     -13.887   8.363 127.978  0.00  0.00    +0.000 A 
ATOM     16  C   UNK A   2     -13.595   6.981 128.182  0.00  0.00    +0.000 A 
ATOM     17  C   UNK A   2     -12.578   6.633 129.060  0.00  0.00    +0.000 A 
ATOM     18  C   UNK A   2     -12.002   5.344 129.667  0.00  0.00    +0.000 C 
ENDBRANCH   4  10
BRANCH   1  19
ATOM     19  C   UNK A   0      -6.987   2.219 129.500  0.00  0.00    +0.000 C 
BRANCH  19  24
ATOM     20  C   UNK A   0      -5.532  -1.259 130.342  0.00  0.00    +0.000 A 
ATOM     21  C   UNK A   0      -6.573  -1.861 131.011  0.00  0.00    +0.000 A 
ATOM     22  C   UNK A   0      -7.832  -1.319 130.857  0.00  0.00    +0.000 A 
ATOM     23  C   UNK A   0      -8.020  -0.088 130.193  0.00  0.00    +0.000 A 
ATOM     24  C   UNK A   0      -6.913   0.685 129.782  0.00  0.00    +0.000 A 
ATOM     25  C   UNK A   0      -5.694   0.000 129.761  0.00  0.00    +0.000 A 
BRANCH  20  29
ATOM     26  C   UNK A   0      -2.904  -3.644 129.219  0.00  0.00    +0.000 C 
ATOM     27  C   UNK A   0      -4.122  -2.795 129.076  0.00  0.00    +0.000 C 
ATOM     28  O   UNK A   0      -4.798  -2.826 128.041  0.00  0.00    +0.000 OA
ATOM     29  N   UNK A   0      -4.354  -1.981 130.156  0.00  0.00    +0.000 N 
ATOM     30  H   UNK A   0      -3.666  -1.902 130.894  0.00  0.00    +0.000 HD
ENDBRANCH  20  29
ENDBRANCH  19  24
BRANCH  19  31
ATOM     31  C   UNK A   0      -5.564   2.842 129.552  0.00  0.00    +0.000 C 
ATOM     32  O   UNK A   0      -5.171   3.414 130.572  0.00  0.00    +0.000 OA
ATOM     33  N   UNK A   0      -4.822   2.876 128.380  0.00  0.00    +0.000 N 
ATOM     34  H   UNK A   0      -5.304   2.622 127.522  0.00  0.00    +0.000 HD
BRANCH  33  35
ATOM     35  C   UNK A   0      -3.714   3.839 128.277  0.00  0.00    +0.000 C 
ATOM     36  C   UNK A   0      -3.151   4.199 129.672  0.00  0.00    +0.000 C 
ATOM     37  C   UNK A   0      -2.607   3.247 127.393  0.00  0.00    +0.000 C 
ATOM     38  C   UNK A   0      -4.206   5.150 127.638  0.00  0.00    +0.000 C 
ENDBRANCH  33  35
ENDBRANCH  19  31
ENDBRANCH   1  19
BRANCH   8  39
ATOM     39  CB  LEU A   1      -7.474   1.987 132.566  0.00  0.00    +0.000 C 
BRANCH  39  40
ATOM     40  CG  LEU A   1      -6.610   1.796 133.822  0.00  0.00    +0.000 C 
ATOM     41  CD1 LEU A   1      -5.844   0.446 133.777  0.00  0.00    +0.000 C 
ATOM     42  CD2 LEU A   1      -5.515   2.847 133.995  0.00  0.00    +0.000 C 
ENDBRANCH  39  40
ENDBRANCH   8  39
TORSDOF 8
ENDMDL
