MODEL 1
REMARK VINA RESULT:      -9.8      0.000      0.000
REMARK  Name = CHEMBL1765666
REMARK  26 active torsions:
REMARK  status: ('A' for Active; 'I' for Inactive)
REMARK    1  A    between atoms: CD1_1  and  CG_2
REMARK    2  A    between atoms: CG_2  and  CD2_3
REMARK    3  A    between atoms: CG_2  and  CB_4
REMARK    4  A    between atoms: CB_4  and  CA_5
REMARK    5  A    between atoms: CA_9  and  CB_10
REMARK    6  A    between atoms: CB_10  and  CG_11
REMARK    7  A    between atoms: CA_20  and  CB_21
REMARK    8  A    between atoms: CB_21  and  CG_22
REMARK    9  A    between atoms: CZ_25  and  OH_26
REMARK   10  A    between atoms: C_37  and  C_38
REMARK   11  A    between atoms: CA_44  and  C_45
REMARK   12  A    between atoms: N_47  and  C_48
REMARK   13  A    between atoms: C_48  and  C_49
REMARK   14  A    between atoms: C_48  and  C_59
REMARK   15  A    between atoms: C_49  and  C_50
REMARK   16  A    between atoms: C_50  and  C_51
REMARK   17  A    between atoms: C_51  and  C_52
REMARK   18  A    between atoms: C_52  and  N_53
REMARK   19  A    between atoms: C_54  and  C_56
REMARK   20  A    between atoms: C_56  and  C_57
REMARK   21  A    between atoms: C_57  and  N_58
REMARK   22  A    between atoms: N_61  and  CA_62
REMARK   23  A    between atoms: CA_62  and  C_63
REMARK   24  A    between atoms: C_63  and  OXT_65
REMARK   25  A    between atoms: CA_69  and  CB_70
REMARK   26  A    between atoms: CB_70  and  CG_71
REMARK                            x       y       z     vdW  Elec       q    Type
REMARK                         _______ _______ _______ _____ _____    ______ ____
ROOT
ATOM      1  CA  TYR A   1      -6.757   2.819 125.991  0.00  0.00    +0.000 C 
ATOM      2  N   TYR A   1      -7.900   1.828 125.996  0.00  0.00    +0.000 N 
ATOM      3  C   TYR A   1      -7.998   0.500 126.360  0.00  0.00    +0.000 C 
ATOM      4  O   TYR A   1      -9.073   0.023 126.753  0.00  0.00    +0.000 OA
ATOM      5  CA  TYR A   1      -6.841  -0.397 126.022  0.00  0.00    +0.000 C 
ATOM      6  N   TYR A   1      -5.749  -0.460 126.920  0.00  0.00    +0.000 N 
ATOM      7  C   TYR A   1      -5.705  -1.289 128.028  0.00  0.00    +0.000 C 
ATOM      8  O   TYR A   1      -4.543  -1.527 128.395  0.00  0.00    +0.000 OA
ATOM      9  CA  TYR A   1      -7.229  -1.685 128.954  0.00  0.00    +0.000 C 
ATOM     10  N   TYR A   1      -6.849  -2.975 129.481  0.00  0.00    +0.000 N 
ATOM     11  C   UNK A   0      -5.951  -3.259 130.462  0.00  0.00    +0.000 C 
ATOM     12  O   UNK A   0      -5.812  -4.467 130.702  0.00  0.00    +0.000 OA
ATOM     13  C   UNK A   0      -5.104  -2.252 131.311  0.00  0.00    +0.000 C 
ATOM     14  C   UNK A   0      -5.138  -0.749 131.184  0.00  0.00    +0.000 C 
ATOM     15  S   UNK A   3      -3.922   0.422 132.017  0.00  0.00    +0.000 S 
ATOM     16  S   UNK A   3      -4.942   2.208 132.292  0.00  0.00    +0.000 S 
ATOM     17  C   UNK A   3      -4.215   3.754 131.609  0.00  0.00    +0.000 C 
ATOM     18  C   UNK A   3      -4.823   5.103 131.126  0.00  0.00    +0.000 C 
ATOM     19  N   UNK A   3      -4.513   5.329 129.698  0.00  0.00    +0.000 N 
ATOM     20  C   ASN A   2      -4.872   4.592 128.630  0.00  0.00    +0.000 C 
ATOM     21  O   ASN A   2      -4.386   4.741 127.513  0.00  0.00    +0.000 OA
ATOM     22  CA  ASN A   2      -5.976   3.651 128.829  0.00  0.00    +0.000 C 
ATOM     23  N   ASN A   2      -6.945   4.250 127.888  0.00  0.00    +0.000 N 
ATOM     24  C   TYR A   1      -7.417   3.955 126.658  0.00  0.00    +0.000 C 
ATOM     25  O   TYR A   1      -8.555   4.333 126.350  0.00  0.00    +0.000 OA
ATOM     26  H   TYR A   1      -8.841   2.236 126.027  0.00  0.00    +0.000 HD
ATOM     27  H   TYR A   1      -4.893   0.035 126.691  0.00  0.00    +0.000 HD
ATOM     28  H   TYR A   1      -7.269  -3.777 129.021  0.00  0.00    +0.000 HD
ATOM     29  H   UNK A   3      -3.874   6.075 129.448  0.00  0.00    +0.000 HD
ATOM     30  H   ASN A   2      -7.745   4.589 128.369  0.00  0.00    +0.000 HD
ENDROOT
BRANCH  18  31
ATOM     31  C   UNK A   3      -4.228   6.322 131.943  0.00  0.00    +0.000 C 
ATOM     32  O   UNK A   3      -4.965   6.928 132.728  0.00  0.00    +0.000 OA
ATOM     33  N   PRO A   4      -2.851   6.552 131.895  0.00  0.00    +0.000 N 
ATOM     34  CD  PRO A   4      -1.965   6.620 130.736  0.00  0.00    +0.000 C 
ATOM     35  CG  PRO A   4      -0.658   6.176 131.319  0.00  0.00    +0.000 C 
ATOM     36  CB  PRO A   4      -0.613   6.967 132.607  0.00  0.00    +0.000 C 
ATOM     37  CA  PRO A   4      -2.090   7.127 133.039  0.00  0.00    +0.000 C 
BRANCH  37  38
ATOM     38  C   PRO A   4      -2.277   8.648 133.200  0.00  0.00    +0.000 C 
ATOM     39  O   PRO A   4      -2.353   9.363 132.200  0.00  0.00    +0.000 OA
ATOM     40  N   UNK A   5      -2.261   9.166 134.494  0.00  0.00    +0.000 N 
ATOM     41  H   UNK A   5      -1.900   8.618 135.270  0.00  0.00    +0.000 HD
BRANCH  40  42
ATOM     42  C   UNK A   5      -2.614  10.582 134.805  0.00  0.00    +0.000 C 
BRANCH  42  43
ATOM     43  C   UNK A   5      -1.411  11.553 134.509  0.00  0.00    +0.000 C 
ATOM     44  O   UNK A   5      -0.520  11.738 135.342  0.00  0.00    +0.000 OA
ATOM     45  N   GLY A   6      -1.383  12.191 133.279  0.00  0.00    +0.000 N 
ATOM     46  H   GLY A   6      -2.107  12.034 132.582  0.00  0.00    +0.000 HD
BRANCH  45  47
ATOM     47  CA  GLY A   6      -0.320  13.140 132.898  0.00  0.00    +0.000 C 
BRANCH  47  48
ATOM     48  C   GLY A   6       0.673  12.510 131.914  0.00  0.00    +0.000 C 
ATOM     49  O   GLY A   6       0.737  12.836 130.735  0.00  0.00    +0.000 OA
BRANCH  48  50
ATOM     50  OXT GLY A   6       1.492  11.561 132.427  0.00  0.00    +0.000 OA
ATOM     51  HXT GLY A   6       1.945  11.750 133.271  0.00  0.00    +0.000 HD
ENDBRANCH  48  50
ENDBRANCH  47  48
ENDBRANCH  45  47
ENDBRANCH  42  43
BRANCH  42  52
ATOM     52  C   UNK A   5      -3.014  10.716 136.290  0.00  0.00    +0.000 C 
BRANCH  52  53
ATOM     53  C   UNK A   5      -4.290   9.952 136.621  0.00  0.00    +0.000 C 
BRANCH  53  54
ATOM     54  C   UNK A   5      -4.976  10.353 137.899  0.00  0.00    +0.000 C 
BRANCH  54  55
ATOM     55  C   UNK A   5      -5.935   9.243 138.322  0.00  0.00    +0.000 C 
BRANCH  55  56
ATOM     56  N   UNK A   5      -7.307   9.590 138.017  0.00  0.00    +0.000 N 
ATOM     57  C   UNK A   5      -8.243   9.682 139.024  0.00  0.00    +0.000 C 
ATOM     58  O   UNK A   5      -7.961   9.478 140.202  0.00  0.00    +0.000 OA
ATOM     59  H   UNK A   5      -7.555   9.787 137.058  0.00  0.00    +0.000 HD
BRANCH  57  60
ATOM     60  C   UNK A   5      -9.644  10.054 138.565  0.00  0.00    +0.000 C 
BRANCH  60  61
ATOM     61  C   UNK A   5     -10.314   8.846 137.908  0.00  0.00    +0.000 C 
BRANCH  61  62
ATOM     62  N   UNK A   5      -9.978   8.749 136.486  0.00  0.00    +0.000 NA
ATOM     63  H   UNK A   5     -10.685   8.196 136.004  0.00  0.00    +0.000 HD
ATOM     64  H   UNK A   5      -9.106   8.225 136.394  0.00  0.00    +0.000 HD
ENDBRANCH  61  62
ENDBRANCH  60  61
ENDBRANCH  57  60
ENDBRANCH  55  56
ENDBRANCH  54  55
ENDBRANCH  53  54
ENDBRANCH  52  53
ENDBRANCH  42  52
ENDBRANCH  40  42
ENDBRANCH  37  38
ENDBRANCH  18  31
BRANCH  22  65
ATOM     65  CB  ASN A   2      -5.350   2.281 128.780  0.00  0.00    +0.000 C 
BRANCH  65  66
ATOM     66  CG  ASN A   2      -4.084   2.407 128.157  0.00  0.00    +0.000 C 
ATOM     67  ND2 ASN A   2      -2.942   2.656 128.695  0.00  0.00    +0.000 N 
ATOM     68  OD1 ASN A   2      -3.982   2.138 126.960  0.00  0.00    +0.000 OA
ATOM     69 HD21 ASN A   2      -2.698   1.916 129.301  0.00  0.00    +0.000 HD
ATOM     70 HD22 ASN A   2      -2.186   2.784 128.037  0.00  0.00    +0.000 HD
ENDBRANCH  65  66
ENDBRANCH  22  65
BRANCH   9  71
ATOM     71  CB  TYR A   1      -8.342  -0.938 130.141  0.00  0.00    +0.000 C 
BRANCH  71  72
ATOM     72  CG  TYR A   1      -8.551   0.630 130.623  0.00  0.00    +0.000 A 
ATOM     73  CD1 TYR A   1      -9.450   0.808 131.616  0.00  0.00    +0.000 A 
ATOM     74  CE1 TYR A   1     -10.271   1.926 131.815  0.00  0.00    +0.000 A 
ATOM     75  CZ  TYR A   1     -10.267   3.081 131.073  0.00  0.00    +0.000 A 
ATOM     76  CE2 TYR A   1      -9.376   3.009 130.022  0.00  0.00    +0.000 A 
ATOM     77  CD2 TYR A   1      -8.487   1.823 129.829  0.00  0.00    +0.000 A 
BRANCH  75  78
ATOM     78  OH  TYR A   1     -11.343   3.943 131.013  0.00  0.00    +0.000 OA
ATOM     79  HH  TYR A   1     -11.486   4.402 130.151  0.00  0.00    +0.000 HD
ENDBRANCH  75  78
ENDBRANCH  71  72
ENDBRANCH   9  71
BRANCH   5  80
ATOM     80  CB  TYR A   1      -7.305  -1.791 125.670  0.00  0.00    +0.000 C 
BRANCH  80  81
ATOM     81  CG  TYR A   1      -6.500  -2.449 124.596  0.00  0.00    +0.000 A 
ATOM     82  CD1 TYR A   1      -5.643  -3.549 124.801  0.00  0.00    +0.000 A 
ATOM     83  CE1 TYR A   1      -4.636  -3.880 123.935  0.00  0.00    +0.000 A 
ATOM     84  CZ  TYR A   1      -4.688  -3.314 122.688  0.00  0.00    +0.000 A 
ATOM     85  CE2 TYR A   1      -5.599  -2.286 122.411  0.00  0.00    +0.000 A 
ATOM     86  CD2 TYR A   1      -6.461  -1.804 123.381  0.00  0.00    +0.000 A 
ENDBRANCH  80  81
ENDBRANCH   5  80
BRANCH   1  87
ATOM     87  CB  TYR A   1      -5.762   3.329 124.943  0.00  0.00    +0.000 C 
BRANCH  87  89
ATOM     88  CD1 TYR A   1      -5.455   4.310 122.787  0.00  0.00    +0.000 C 
ATOM     89  CG  TYR A   1      -6.440   3.531 123.622  0.00  0.00    +0.000 C 
ATOM     90  CD2 TYR A   1      -6.765   2.228 122.928  0.00  0.00    +0.000 C 
ENDBRANCH  87  89
ENDBRANCH   1  87
TORSDOF 24
ENDMDL
MODEL 2
REMARK VINA RESULT:      -9.6      2.270      3.336
REMARK  Name = CHEMBL1765666
REMARK  26 active torsions:
REMARK  status: ('A' for Active; 'I' for Inactive)
REMARK    1  A    between atoms: CD1_1  and  CG_2
REMARK    2  A    between atoms: CG_2  and  CD2_3
REMARK    3  A    between atoms: CG_2  and  CB_4
REMARK    4  A    between atoms: CB_4  and  CA_5
REMARK    5  A    between atoms: CA_9  and  CB_10
REMARK    6  A    between atoms: CB_10  and  CG_11
REMARK    7  A    between atoms: CA_20  and  CB_21
REMARK    8  A    between atoms: CB_21  and  CG_22
REMARK    9  A    between atoms: CZ_25  and  OH_26
REMARK   10  A    between atoms: C_37  and  C_38
REMARK   11  A    between atoms: CA_44  and  C_45
REMARK   12  A    between atoms: N_47  and  C_48
REMARK   13  A    between atoms: C_48  and  C_49
REMARK   14  A    between atoms: C_48  and  C_59
REMARK   15  A    between atoms: C_49  and  C_50
REMARK   16  A    between atoms: C_50  and  C_51
REMARK   17  A    between atoms: C_51  and  C_52
REMARK   18  A    between atoms: C_52  and  N_53
REMARK   19  A    between atoms: C_54  and  C_56
REMARK   20  A    between atoms: C_56  and  C_57
REMARK   21  A    between atoms: C_57  and  N_58
REMARK   22  A    between atoms: N_61  and  CA_62
REMARK   23  A    between atoms: CA_62  and  C_63
REMARK   24  A    between atoms: C_63  and  OXT_65
REMARK   25  A    between atoms: CA_69  and  CB_70
REMARK   26  A    between atoms: CB_70  and  CG_71
REMARK                            x       y       z     vdW  Elec       q    Type
REMARK                         _______ _______ _______ _____ _____    ______ ____
ROOT
ATOM      1  CA  TYR A   1      -6.537   2.501 126.095  0.00  0.00    +0.000 C 
ATOM      2  N   TYR A   1      -7.635   1.460 126.128  0.00  0.00    +0.000 N 
ATOM      3  C   TYR A   1      -7.681   0.147 126.552  0.00  0.00    +0.000 C 
ATOM      4  O   TYR A   1      -8.741  -0.358 126.951  0.00  0.00    +0.000 OA
ATOM      5  CA  TYR A   1      -6.480  -0.711 126.275  0.00  0.00    +0.000 C 
ATOM      6  N   TYR A   1      -5.403  -0.684 127.194  0.00  0.00    +0.000 N 
ATOM      7  C   TYR A   1      -5.342  -1.458 128.339  0.00  0.00    +0.000 C 
ATOM      8  O   TYR A   1      -4.178  -1.626 128.736  0.00  0.00    +0.000 OA
ATOM      9  CA  TYR A   1      -6.864  -1.878 129.259  0.00  0.00    +0.000 C 
ATOM     10  N   TYR A   1      -6.437  -3.124 129.852  0.00  0.00    +0.000 N 
ATOM     11  C   UNK A   0      -5.545  -3.322 130.859  0.00  0.00    +0.000 C 
ATOM     12  O   UNK A   0      -5.359  -4.510 131.158  0.00  0.00    +0.000 OA
ATOM     13  C   UNK A   0      -4.759  -2.240 131.673  0.00  0.00    +0.000 C 
ATOM     14  C   UNK A   0      -4.857  -0.748 131.475  0.00  0.00    +0.000 C 
ATOM     15  S   UNK A   3      -3.708   0.514 132.272  0.00  0.00    +0.000 S 
ATOM     16  S   UNK A   3      -4.810   2.263 132.446  0.00  0.00    +0.000 S 
ATOM     17  C   UNK A   3      -4.140   3.806 131.703  0.00  0.00    +0.000 C 
ATOM     18  C   UNK A   3      -4.798   5.103 131.147  0.00  0.00    +0.000 C 
ATOM     19  N   UNK A   3      -4.473   5.277 129.715  0.00  0.00    +0.000 N 
ATOM     20  C   ASN A   2      -4.779   4.476 128.677  0.00  0.00    +0.000 C 
ATOM     21  O   ASN A   2      -4.281   4.595 127.563  0.00  0.00    +0.000 OA
ATOM     22  CA  ASN A   2      -5.844   3.497 128.903  0.00  0.00    +0.000 C 
ATOM     23  N   ASN A   2      -6.822   4.008 127.920  0.00  0.00    +0.000 N 
ATOM     24  C   TYR A   1      -7.259   3.636 126.697  0.00  0.00    +0.000 C 
ATOM     25  O   TYR A   1      -8.405   3.947 126.354  0.00  0.00    +0.000 OA
ATOM     26  H   TYR A   1      -8.594   1.827 126.125  0.00  0.00    +0.000 HD
ATOM     27  H   TYR A   1      -4.565  -0.163 126.955  0.00  0.00    +0.000 HD
ATOM     28  H   TYR A   1      -6.813  -3.965 129.423  0.00  0.00    +0.000 HD
ATOM     29  H   UNK A   3      -3.862   6.038 129.441  0.00  0.00    +0.000 HD
ATOM     30  H   ASN A   2      -7.645   4.333 128.371  0.00  0.00    +0.000 HD
ENDROOT
BRANCH  18  31
ATOM     31  C   UNK A   3      -4.271   6.385 131.915  0.00  0.00    +0.000 C 
ATOM     32  O   UNK A   3      -5.061   7.020 132.622  0.00  0.00    +0.000 OA
ATOM     33  N   PRO A   4      -2.899   6.644 131.923  0.00  0.00    +0.000 N 
ATOM     34  CD  PRO A   4      -1.955   6.661 130.809  0.00  0.00    +0.000 C 
ATOM     35  CG  PRO A   4      -0.671   6.285 131.485  0.00  0.00    +0.000 C 
ATOM     36  CB  PRO A   4      -0.711   7.155 132.721  0.00  0.00    +0.000 C 
ATOM     37  CA  PRO A   4      -2.211   7.306 133.066  0.00  0.00    +0.000 C 
BRANCH  37  38
ATOM     38  C   PRO A   4      -2.437   8.829 133.122  0.00  0.00    +0.000 C 
ATOM     39  O   PRO A   4      -2.687   9.448 132.086  0.00  0.00    +0.000 OA
ATOM     40  N   UNK A   5      -2.258   9.463 134.350  0.00  0.00    +0.000 N 
ATOM     41  H   UNK A   5      -1.766   8.999 135.109  0.00  0.00    +0.000 HD
BRANCH  40  42
ATOM     42  C   UNK A   5      -2.623  10.891 134.587  0.00  0.00    +0.000 C 
BRANCH  42  43
ATOM     43  C   UNK A   5      -1.454  11.859 134.170  0.00  0.00    +0.000 C 
ATOM     44  O   UNK A   5      -1.258  12.918 134.770  0.00  0.00    +0.000 OA
ATOM     45  N   GLY A   6      -0.650  11.481 133.108  0.00  0.00    +0.000 N 
ATOM     46  H   GLY A   6      -0.797  10.604 132.614  0.00  0.00    +0.000 HD
BRANCH  45  47
ATOM     47  CA  GLY A   6       0.460  12.316 132.611  0.00  0.00    +0.000 C 
BRANCH  47  48
ATOM     48  C   GLY A   6       0.138  12.927 131.242  0.00  0.00    +0.000 C 
ATOM     49  O   GLY A   6       0.955  12.982 130.330  0.00  0.00    +0.000 OA
BRANCH  48  50
ATOM     50  OXT GLY A   6      -1.118  13.409 131.091  0.00  0.00    +0.000 OA
ATOM     51  HXT GLY A   6      -1.493  13.444 130.190  0.00  0.00    +0.000 HD
ENDBRANCH  48  50
ENDBRANCH  47  48
ENDBRANCH  45  47
ENDBRANCH  42  43
BRANCH  42  52
ATOM     52  C   UNK A   5      -2.954  11.115 136.078  0.00  0.00    +0.000 C 
BRANCH  52  53
ATOM     53  C   UNK A   5      -3.011   9.811 136.864  0.00  0.00    +0.000 C 
BRANCH  53  54
ATOM     54  C   UNK A   5      -2.163   9.761 138.106  0.00  0.00    +0.000 C 
BRANCH  54  55
ATOM     55  C   UNK A   5      -0.698   9.956 137.720  0.00  0.00    +0.000 C 
BRANCH  55  56
ATOM     56  N   UNK A   5      -0.080   8.698 137.357  0.00  0.00    +0.000 N 
ATOM     57  C   UNK A   5       0.584   8.569 136.156  0.00  0.00    +0.000 C 
ATOM     58  O   UNK A   5       0.679   9.497 135.356  0.00  0.00    +0.000 OA
ATOM     59  H   UNK A   5      -0.123   7.930 138.012  0.00  0.00    +0.000 HD
BRANCH  57  60
ATOM     60  C   UNK A   5       1.186   7.197 135.901  0.00  0.00    +0.000 C 
BRANCH  60  61
ATOM     61  C   UNK A   5       2.452   7.020 136.743  0.00  0.00    +0.000 C 
BRANCH  61  62
ATOM     62  N   UNK A   5       2.935   8.300 137.266  0.00  0.00    +0.000 NA
ATOM     63  H   UNK A   5       2.338   8.603 138.033  0.00  0.00    +0.000 HD
ATOM     64  H   UNK A   5       2.833   9.008 136.537  0.00  0.00    +0.000 HD
ENDBRANCH  61  62
ENDBRANCH  60  61
ENDBRANCH  57  60
ENDBRANCH  55  56
ENDBRANCH  54  55
ENDBRANCH  53  54
ENDBRANCH  52  53
ENDBRANCH  42  52
ENDBRANCH  40  42
ENDBRANCH  37  38
ENDBRANCH  18  31
BRANCH  22  65
ATOM     65  CB  ASN A   2      -5.159   2.155 128.929  0.00  0.00    +0.000 C 
BRANCH  65  66
ATOM     66  CG  ASN A   2      -3.827   2.344 128.482  0.00  0.00    +0.000 C 
ATOM     67  ND2 ASN A   2      -3.347   2.199 127.297  0.00  0.00    +0.000 N 
ATOM     68  OD1 ASN A   2      -3.001   2.822 129.259  0.00  0.00    +0.000 OA
ATOM     69 HD21 ASN A   2      -3.765   2.857 126.691  0.00  0.00    +0.000 HD
ATOM     70 HD22 ASN A   2      -2.344   2.308 127.232  0.00  0.00    +0.000 HD
ENDBRANCH  65  66
ENDBRANCH  22  65
BRANCH   9  71
ATOM     71  CB  TYR A   1      -8.030  -1.128 130.391  0.00  0.00    +0.000 C 
BRANCH  71  72
ATOM     72  CG  TYR A   1      -8.339   0.452 130.771  0.00  0.00    +0.000 A 
ATOM     73  CD1 TYR A   1      -9.241   0.637 131.761  0.00  0.00    +0.000 A 
ATOM     74  CE1 TYR A   1     -10.132   1.709 131.895  0.00  0.00    +0.000 A 
ATOM     75  CZ  TYR A   1     -10.211   2.809 131.078  0.00  0.00    +0.000 A 
ATOM     76  CE2 TYR A   1      -9.325   2.726 130.023  0.00  0.00    +0.000 A 
ATOM     77  CD2 TYR A   1      -8.361   1.591 129.899  0.00  0.00    +0.000 A 
BRANCH  75  78
ATOM     78  OH  TYR A   1     -11.343   3.592 130.974  0.00  0.00    +0.000 OA
ATOM     79  HH  TYR A   1     -11.396   4.363 131.587  0.00  0.00    +0.000 HD
ENDBRANCH  75  78
ENDBRANCH  71  72
ENDBRANCH   9  71
BRANCH   5  80
ATOM     80  CB  TYR A   1      -6.877  -2.140 125.983  0.00  0.00    +0.000 C 
BRANCH  80  81
ATOM     81  CG  TYR A   1      -7.818  -2.287 124.830  0.00  0.00    +0.000 A 
ATOM     82  CD1 TYR A   1      -8.980  -3.082 124.845  0.00  0.00    +0.000 A 
ATOM     83  CE1 TYR A   1      -9.598  -3.521 123.705  0.00  0.00    +0.000 A 
ATOM     84  CZ  TYR A   1      -9.249  -2.893 122.538  0.00  0.00    +0.000 A 
ATOM     85  CE2 TYR A   1      -8.160  -2.011 122.503  0.00  0.00    +0.000 A 
ATOM     86  CD2 TYR A   1      -7.400  -1.756 123.631  0.00  0.00    +0.000 A 
ENDBRANCH  80  81
ENDBRANCH   5  80
BRANCH   1  87
ATOM     87  CB  TYR A   1      -5.547   3.006 125.040  0.00  0.00    +0.000 C 
BRANCH  87  89
ATOM     88  CD1 TYR A   1      -5.274   4.371 123.100  0.00  0.00    +0.000 C 
ATOM     89  CG  TYR A   1      -6.272   3.507 123.829  0.00  0.00    +0.000 C 
ATOM     90  CD2 TYR A   1      -6.727   2.390 122.917  0.00  0.00    +0.000 C 
ENDBRANCH  87  89
ENDBRANCH   1  87
TORSDOF 24
ENDMDL
MODEL 3
REMARK VINA RESULT:      -9.6      1.910      2.387
REMARK  Name = CHEMBL1765666
REMARK  26 active torsions:
REMARK  status: ('A' for Active; 'I' for Inactive)
REMARK    1  A    between atoms: CD1_1  and  CG_2
REMARK    2  A    between atoms: CG_2  and  CD2_3
REMARK    3  A    between atoms: CG_2  and  CB_4
REMARK    4  A    between atoms: CB_4  and  CA_5
REMARK    5  A    between atoms: CA_9  and  CB_10
REMARK    6  A    between atoms: CB_10  and  CG_11
REMARK    7  A    between atoms: CA_20  and  CB_21
REMARK    8  A    between atoms: CB_21  and  CG_22
REMARK    9  A    between atoms: CZ_25  and  OH_26
REMARK   10  A    between atoms: C_37  and  C_38
REMARK   11  A    between atoms: CA_44  and  C_45
REMARK   12  A    between atoms: N_47  and  C_48
REMARK   13  A    between atoms: C_48  and  C_49
REMARK   14  A    between atoms: C_48  and  C_59
REMARK   15  A    between atoms: C_49  and  C_50
REMARK   16  A    between atoms: C_50  and  C_51
REMARK   17  A    between atoms: C_51  and  C_52
REMARK   18  A    between atoms: C_52  and  N_53
REMARK   19  A    between atoms: C_54  and  C_56
REMARK   20  A    between atoms: C_56  and  C_57
REMARK   21  A    between atoms: C_57  and  N_58
REMARK   22  A    between atoms: N_61  and  CA_62
REMARK   23  A    between atoms: CA_62  and  C_63
REMARK   24  A    between atoms: C_63  and  OXT_65
REMARK   25  A    between atoms: CA_69  and  CB_70
REMARK   26  A    between atoms: CB_70  and  CG_71
REMARK                            x       y       z     vdW  Elec       q    Type
REMARK                         _______ _______ _______ _____ _____    ______ ____
ROOT
ATOM      1  CA  TYR A   1      -6.622   2.292 125.965  0.00  0.00    +0.000 C 
ATOM      2  N   TYR A   1      -7.707   1.243 126.077  0.00  0.00    +0.000 N 
ATOM      3  C   TYR A   1      -7.730  -0.043 126.579  0.00  0.00    +0.000 C 
ATOM      4  O   TYR A   1      -8.778  -0.535 127.023  0.00  0.00    +0.000 OA
ATOM      5  CA  TYR A   1      -6.523  -0.903 126.334  0.00  0.00    +0.000 C 
ATOM      6  N   TYR A   1      -5.433  -0.809 127.233  0.00  0.00    +0.000 N 
ATOM      7  C   TYR A   1      -5.346  -1.513 128.421  0.00  0.00    +0.000 C 
ATOM      8  O   TYR A   1      -4.174  -1.644 128.809  0.00  0.00    +0.000 OA
ATOM      9  CA  TYR A   1      -6.849  -1.894 129.388  0.00  0.00    +0.000 C 
ATOM     10  N   TYR A   1      -6.398  -3.098 130.046  0.00  0.00    +0.000 N 
ATOM     11  C   UNK A   0      -5.489  -3.226 131.050  0.00  0.00    +0.000 C 
ATOM     12  O   UNK A   0      -5.284  -4.392 131.416  0.00  0.00    +0.000 OA
ATOM     13  C   UNK A   0      -4.705  -2.088 131.786  0.00  0.00    +0.000 C 
ATOM     14  C   UNK A   0      -4.823  -0.612 131.502  0.00  0.00    +0.000 C 
ATOM     15  S   UNK A   3      -3.678   0.708 132.204  0.00  0.00    +0.000 S 
ATOM     16  S   UNK A   3      -4.799   2.452 132.292  0.00  0.00    +0.000 S 
ATOM     17  C   UNK A   3      -4.158   3.956 131.447  0.00  0.00    +0.000 C 
ATOM     18  C   UNK A   3      -4.840   5.210 130.826  0.00  0.00    +0.000 C 
ATOM     19  N   UNK A   3      -4.538   5.301 129.382  0.00  0.00    +0.000 N 
ATOM     20  C   ASN A   2      -4.850   4.437 128.398  0.00  0.00    +0.000 C 
ATOM     21  O   ASN A   2      -4.370   4.495 127.271  0.00  0.00    +0.000 OA
ATOM     22  CA  ASN A   2      -5.900   3.461 128.697  0.00  0.00    +0.000 C 
ATOM     23  N   ASN A   2      -6.898   3.902 127.701  0.00  0.00    +0.000 N 
ATOM     24  C   TYR A   1      -7.348   3.453 126.510  0.00  0.00    +0.000 C 
ATOM     25  O   TYR A   1      -8.503   3.730 126.167  0.00  0.00    +0.000 OA
ATOM     26  H   TYR A   1      -8.670   1.598 126.067  0.00  0.00    +0.000 HD
ATOM     27  H   TYR A   1      -4.606  -0.293 126.951  0.00  0.00    +0.000 HD
ATOM     28  H   TYR A   1      -6.771  -3.966 129.675  0.00  0.00    +0.000 HD
ATOM     29  H   UNK A   3      -3.941   6.052 129.053  0.00  0.00    +0.000 HD
ATOM     30  H   ASN A   2      -7.718   4.244 128.145  0.00  0.00    +0.000 HD
ENDROOT
BRANCH  18  31
ATOM     31  C   UNK A   3      -4.318   6.541 131.508  0.00  0.00    +0.000 C 
ATOM     32  O   UNK A   3      -5.140   7.308 132.021  0.00  0.00    +0.000 OA
ATOM     33  N   PRO A   4      -2.942   6.711 131.678  0.00  0.00    +0.000 N 
ATOM     34  CD  PRO A   4      -1.861   6.530 130.712  0.00  0.00    +0.000 C 
ATOM     35  CG  PRO A   4      -0.712   6.160 131.599  0.00  0.00    +0.000 C 
ATOM     36  CB  PRO A   4      -0.843   7.177 132.710  0.00  0.00    +0.000 C 
ATOM     37  CA  PRO A   4      -2.359   7.464 132.823  0.00  0.00    +0.000 C 
BRANCH  37  38
ATOM     38  C   PRO A   4      -2.468   8.994 132.672  0.00  0.00    +0.000 C 
ATOM     39  O   PRO A   4      -2.812   9.479 131.593  0.00  0.00    +0.000 OA
ATOM     40  N   UNK A   5      -2.080   9.778 133.757  0.00  0.00    +0.000 N 
ATOM     41  H   UNK A   5      -1.523   9.385 134.511  0.00  0.00    +0.000 HD
BRANCH  40  42
ATOM     42  C   UNK A   5      -2.308  11.252 133.816  0.00  0.00    +0.000 C 
BRANCH  42  43
ATOM     43  C   UNK A   5      -1.163  12.040 133.077  0.00  0.00    +0.000 C 
ATOM     44  O   UNK A   5      -1.418  12.831 132.165  0.00  0.00    +0.000 OA
ATOM     45  N   GLY A   6       0.142  11.818 133.485  0.00  0.00    +0.000 N 
ATOM     46  H   GLY A   6       0.360  11.176 134.243  0.00  0.00    +0.000 HD
BRANCH  45  47
ATOM     47  CA  GLY A   6       1.299  12.480 132.852  0.00  0.00    +0.000 C 
BRANCH  47  48
ATOM     48  C   GLY A   6       2.239  13.093 133.896  0.00  0.00    +0.000 C 
ATOM     49  O   GLY A   6       2.595  12.494 134.903  0.00  0.00    +0.000 OA
BRANCH  48  50
ATOM     50  OXT GLY A   6       2.664  14.353 133.640  0.00  0.00    +0.000 OA
ATOM     51  HXT GLY A   6       2.038  14.975 133.222  0.00  0.00    +0.000 HD
ENDBRANCH  48  50
ENDBRANCH  47  48
ENDBRANCH  45  47
ENDBRANCH  42  43
BRANCH  42  52
ATOM     52  C   UNK A   5      -2.374  11.722 135.285  0.00  0.00    +0.000 C 
BRANCH  52  53
ATOM     53  C   UNK A   5      -2.546  10.564 136.259  0.00  0.00    +0.000 C 
BRANCH  53  54
ATOM     54  C   UNK A   5      -3.927  10.394 136.832  0.00  0.00    +0.000 C 
BRANCH  54  55
ATOM     55  C   UNK A   5      -4.010   9.049 137.551  0.00  0.00    +0.000 C 
BRANCH  55  56
ATOM     56  N   UNK A   5      -4.665   8.054 136.727  0.00  0.00    +0.000 N 
ATOM     57  C   UNK A   5      -3.929   7.060 136.120  0.00  0.00    +0.000 C 
ATOM     58  O   UNK A   5      -2.710   6.975 136.247  0.00  0.00    +0.000 OA
ATOM     59  H   UNK A   5      -5.670   8.089 136.631  0.00  0.00    +0.000 HD
BRANCH  57  60
ATOM     60  C   UNK A   5      -4.740   6.081 135.286  0.00  0.00    +0.000 C 
BRANCH  60  61
ATOM     61  C   UNK A   5      -4.697   4.692 135.926  0.00  0.00    +0.000 C 
BRANCH  61  62
ATOM     62  N   UNK A   5      -3.408   4.034 135.702  0.00  0.00    +0.000 NA
ATOM     63  H   UNK A   5      -3.092   4.215 134.751  0.00  0.00    +0.000 HD
ATOM     64  H   UNK A   5      -3.546   3.023 135.761  0.00  0.00    +0.000 HD
ENDBRANCH  61  62
ENDBRANCH  60  61
ENDBRANCH  57  60
ENDBRANCH  55  56
ENDBRANCH  54  55
ENDBRANCH  53  54
ENDBRANCH  52  53
ENDBRANCH  42  52
ENDBRANCH  40  42
ENDBRANCH  37  38
ENDBRANCH  18  31
BRANCH  22  65
ATOM     65  CB  ASN A   2      -5.198   2.131 128.792  0.00  0.00    +0.000 C 
BRANCH  65  66
ATOM     66  CG  ASN A   2      -3.875   2.308 128.314  0.00  0.00    +0.000 C 
ATOM     67  ND2 ASN A   2      -3.411   2.099 127.132  0.00  0.00    +0.000 N 
ATOM     68  OD1 ASN A   2      -3.044   2.840 129.049  0.00  0.00    +0.000 OA
ATOM     69 HD21 ASN A   2      -3.846   2.716 126.496  0.00  0.00    +0.000 HD
ATOM     70 HD22 ASN A   2      -2.411   2.215 127.046  0.00  0.00    +0.000 HD
ENDBRANCH  65  66
ENDBRANCH  22  65
BRANCH   9  71
ATOM     71  CB  TYR A   1      -8.007  -1.091 130.491  0.00  0.00    +0.000 C 
BRANCH  71  72
ATOM     72  CG  TYR A   1      -8.320   0.505 130.791  0.00  0.00    +0.000 A 
ATOM     73  CD1 TYR A   1      -9.183   0.738 131.805  0.00  0.00    +0.000 A 
ATOM     74  CE1 TYR A   1     -10.082   1.807 131.913  0.00  0.00    +0.000 A 
ATOM     75  CZ  TYR A   1     -10.208   2.857 131.038  0.00  0.00    +0.000 A 
ATOM     76  CE2 TYR A   1      -9.364   2.721 129.954  0.00  0.00    +0.000 A 
ATOM     77  CD2 TYR A   1      -8.392   1.591 129.856  0.00  0.00    +0.000 A 
BRANCH  75  78
ATOM     78  OH  TYR A   1     -11.352   3.621 130.935  0.00  0.00    +0.000 OA
ATOM     79  HH  TYR A   1     -11.610   3.899 130.024  0.00  0.00    +0.000 HD
ENDBRANCH  75  78
ENDBRANCH  71  72
ENDBRANCH   9  71
BRANCH   5  80
ATOM     80  CB  TYR A   1      -6.907  -2.351 126.133  0.00  0.00    +0.000 C 
BRANCH  80  81
ATOM     81  CG  TYR A   1      -7.607  -2.621 124.840  0.00  0.00    +0.000 A 
ATOM     82  CD1 TYR A   1      -7.268  -2.025 123.609  0.00  0.00    +0.000 A 
ATOM     83  CE1 TYR A   1      -8.131  -1.964 122.548  0.00  0.00    +0.000 A 
ATOM     84  CZ  TYR A   1      -9.222  -2.791 122.597  0.00  0.00    +0.000 A 
ATOM     85  CE2 TYR A   1      -9.537  -3.485 123.774  0.00  0.00    +0.000 A 
ATOM     86  CD2 TYR A   1      -8.770  -3.351 124.918  0.00  0.00    +0.000 A 
ENDBRANCH  80  81
ENDBRANCH   5  80
BRANCH   1  87
ATOM     87  CB  TYR A   1      -5.653   2.744 124.867  0.00  0.00    +0.000 C 
BRANCH  87  89
ATOM     88  CD1 TYR A   1      -5.434   4.232 123.012  0.00  0.00    +0.000 C 
ATOM     89  CG  TYR A   1      -6.403   3.300 123.695  0.00  0.00    +0.000 C 
ATOM     90  CD2 TYR A   1      -6.840   2.230 122.720  0.00  0.00    +0.000 C 
ENDBRANCH  87  89
ENDBRANCH   1  87
TORSDOF 24
ENDMDL
MODEL 4
REMARK VINA RESULT:      -9.5      2.795      3.877
REMARK  Name = CHEMBL1765666
REMARK  26 active torsions:
REMARK  status: ('A' for Active; 'I' for Inactive)
REMARK    1  A    between atoms: CD1_1  and  CG_2
REMARK    2  A    between atoms: CG_2  and  CD2_3
REMARK    3  A    between atoms: CG_2  and  CB_4
REMARK    4  A    between atoms: CB_4  and  CA_5
REMARK    5  A    between atoms: CA_9  and  CB_10
REMARK    6  A    between atoms: CB_10  and  CG_11
REMARK    7  A    between atoms: CA_20  and  CB_21
REMARK    8  A    between atoms: CB_21  and  CG_22
REMARK    9  A    between atoms: CZ_25  and  OH_26
REMARK   10  A    between atoms: C_37  and  C_38
REMARK   11  A    between atoms: CA_44  and  C_45
REMARK   12  A    between atoms: N_47  and  C_48
REMARK   13  A    between atoms: C_48  and  C_49
REMARK   14  A    between atoms: C_48  and  C_59
REMARK   15  A    between atoms: C_49  and  C_50
REMARK   16  A    between atoms: C_50  and  C_51
REMARK   17  A    between atoms: C_51  and  C_52
REMARK   18  A    between atoms: C_52  and  N_53
REMARK   19  A    between atoms: C_54  and  C_56
REMARK   20  A    between atoms: C_56  and  C_57
REMARK   21  A    between atoms: C_57  and  N_58
REMARK   22  A    between atoms: N_61  and  CA_62
REMARK   23  A    between atoms: CA_62  and  C_63
REMARK   24  A    between atoms: C_63  and  OXT_65
REMARK   25  A    between atoms: CA_69  and  CB_70
REMARK   26  A    between atoms: CB_70  and  CG_71
REMARK                            x       y       z     vdW  Elec       q    Type
REMARK                         _______ _______ _______ _____ _____    ______ ____
ROOT
ATOM      1  CA  TYR A   1      -6.566   3.473 125.610  0.00  0.00    +0.000 C 
ATOM      2  N   TYR A   1      -7.871   2.715 125.716  0.00  0.00    +0.000 N 
ATOM      3  C   TYR A   1      -8.187   1.424 126.087  0.00  0.00    +0.000 C 
ATOM      4  O   TYR A   1      -9.295   1.152 126.574  0.00  0.00    +0.000 OA
ATOM      5  CA  TYR A   1      -7.255   0.330 125.649  0.00  0.00    +0.000 C 
ATOM      6  N   TYR A   1      -6.122   0.047 126.448  0.00  0.00    +0.000 N 
ATOM      7  C   TYR A   1      -6.140  -0.793 127.548  0.00  0.00    +0.000 C 
ATOM      8  O   TYR A   1      -5.016  -1.252 127.811  0.00  0.00    +0.000 OA
ATOM      9  CA  TYR A   1      -7.625  -0.909 128.605  0.00  0.00    +0.000 C 
ATOM     10  N   TYR A   1      -7.453  -2.256 129.096  0.00  0.00    +0.000 N 
ATOM     11  C   UNK A   0      -6.543  -2.720 129.995  0.00  0.00    +0.000 C 
ATOM     12  O   UNK A   0      -6.616  -3.936 130.222  0.00  0.00    +0.000 OA
ATOM     13  C   UNK A   0      -5.451  -1.906 130.765  0.00  0.00    +0.000 C 
ATOM     14  C   UNK A   0      -5.210  -0.421 130.642  0.00  0.00    +0.000 C 
ATOM     15  S   UNK A   3      -3.726   0.485 131.364  0.00  0.00    +0.000 S 
ATOM     16  S   UNK A   3      -4.362   2.427 131.727  0.00  0.00    +0.000 S 
ATOM     17  C   UNK A   3      -3.417   3.818 130.982  0.00  0.00    +0.000 C 
ATOM     18  C   UNK A   3      -3.798   5.266 130.554  0.00  0.00    +0.000 C 
ATOM     19  N   UNK A   3      -3.575   5.453 129.104  0.00  0.00    +0.000 N 
ATOM     20  C   ASN A   2      -4.158   4.814 128.072  0.00  0.00    +0.000 C 
ATOM     21  O   ASN A   2      -3.751   4.888 126.917  0.00  0.00    +0.000 OA
ATOM     22  CA  ASN A   2      -5.399   4.096 128.368  0.00  0.00    +0.000 C 
ATOM     23  N   ASN A   2      -6.315   4.882 127.516  0.00  0.00    +0.000 N 
ATOM     24  C   TYR A   1      -6.939   4.702 126.332  0.00  0.00    +0.000 C 
ATOM     25  O   TYR A   1      -8.006   5.293 126.125  0.00  0.00    +0.000 OA
ATOM     26  H   TYR A   1      -8.712   3.293 125.829  0.00  0.00    +0.000 HD
ATOM     27  H   TYR A   1      -5.210   0.375 126.145  0.00  0.00    +0.000 HD
ATOM     28  H   TYR A   1      -8.055  -2.956 128.676  0.00  0.00    +0.000 HD
ATOM     29  H   UNK A   3      -2.830   6.068 128.799  0.00  0.00    +0.000 HD
ATOM     30  H   ASN A   2      -6.991   5.358 128.065  0.00  0.00    +0.000 HD
ENDROOT
BRANCH  18  31
ATOM     31  C   UNK A   3      -2.914   6.337 131.315  0.00  0.00    +0.000 C 
ATOM     32  O   UNK A   3      -2.299   7.180 130.652  0.00  0.00    +0.000 OA
ATOM     33  N   PRO A   4      -3.008   6.417 132.706  0.00  0.00    +0.000 N 
ATOM     34  CD  PRO A   4      -2.948   5.349 133.700  0.00  0.00    +0.000 C 
ATOM     35  CG  PRO A   4      -3.781   5.911 134.811  0.00  0.00    +0.000 C 
ATOM     36  CB  PRO A   4      -3.260   7.329 134.895  0.00  0.00    +0.000 C 
ATOM     37  CA  PRO A   4      -2.837   7.694 133.453  0.00  0.00    +0.000 C 
BRANCH  37  38
ATOM     38  C   PRO A   4      -1.368   8.136 133.588  0.00  0.00    +0.000 C 
ATOM     39  O   PRO A   4      -0.465   7.312 133.435  0.00  0.00    +0.000 OA
ATOM     40  N   UNK A   5      -1.122   9.453 133.974  0.00  0.00    +0.000 N 
ATOM     41  H   UNK A   5      -1.858  10.020 134.385  0.00  0.00    +0.000 HD
BRANCH  40  42
ATOM     42  C   UNK A   5       0.240  10.062 133.962  0.00  0.00    +0.000 C 
BRANCH  42  43
ATOM     43  C   UNK A   5       0.935   9.942 135.370  0.00  0.00    +0.000 C 
ATOM     44  O   UNK A   5       1.063   8.849 135.927  0.00  0.00    +0.000 OA
ATOM     45  N   GLY A   6       1.399  11.104 135.963  0.00  0.00    +0.000 N 
ATOM     46  H   GLY A   6       1.307  12.008 135.506  0.00  0.00    +0.000 HD
BRANCH  45  47
ATOM     47  CA  GLY A   6       2.044  11.120 137.289  0.00  0.00    +0.000 C 
BRANCH  47  48
ATOM     48  C   GLY A   6       3.567  11.263 137.175  0.00  0.00    +0.000 C 
ATOM     49  O   GLY A   6       4.122  11.659 136.157  0.00  0.00    +0.000 OA
BRANCH  48  50
ATOM     50  OXT GLY A   6       4.276  10.926 138.278  0.00  0.00    +0.000 OA
ATOM     51  HXT GLY A   6       3.904  11.152 139.153  0.00  0.00    +0.000 HD
ENDBRANCH  48  50
ENDBRANCH  47  48
ENDBRANCH  45  47
ENDBRANCH  42  43
BRANCH  42  52
ATOM     52  C   UNK A   5       0.153  11.553 133.570  0.00  0.00    +0.000 C 
BRANCH  52  53
ATOM     53  C   UNK A   5       1.045  11.896 132.384  0.00  0.00    +0.000 C 
BRANCH  53  54
ATOM     54  C   UNK A   5       0.455  12.845 131.378  0.00  0.00    +0.000 C 
BRANCH  54  55
ATOM     55  C   UNK A   5      -1.068  12.730 131.414  0.00  0.00    +0.000 C 
BRANCH  55  56
ATOM     56  N   UNK A   5      -1.682  13.994 131.765  0.00  0.00    +0.000 N 
ATOM     57  C   UNK A   5      -2.607  14.059 132.785  0.00  0.00    +0.000 C 
ATOM     58  O   UNK A   5      -2.946  13.069 133.427  0.00  0.00    +0.000 OA
ATOM     59  H   UNK A   5      -1.398  14.826 131.267  0.00  0.00    +0.000 HD
BRANCH  57  60
ATOM     60  C   UNK A   5      -3.171  15.446 133.049  0.00  0.00    +0.000 C 
BRANCH  60  61
ATOM     61  C   UNK A   5      -2.612  15.992 134.364  0.00  0.00    +0.000 C 
BRANCH  61  62
ATOM     62  N   UNK A   5      -1.684  15.049 134.990  0.00  0.00    +0.000 NA
ATOM     63  H   UNK A   5      -1.018  15.557 135.570  0.00  0.00    +0.000 HD
ATOM     64  H   UNK A   5      -1.130  14.603 134.256  0.00  0.00    +0.000 HD
ENDBRANCH  61  62
ENDBRANCH  60  61
ENDBRANCH  57  60
ENDBRANCH  55  56
ENDBRANCH  54  55
ENDBRANCH  53  54
ENDBRANCH  52  53
ENDBRANCH  42  52
ENDBRANCH  40  42
ENDBRANCH  37  38
ENDBRANCH  18  31
BRANCH  22  65
ATOM     65  CB  ASN A   2      -5.051   2.633 128.265  0.00  0.00    +0.000 C 
BRANCH  65  66
ATOM     66  CG  ASN A   2      -3.829   2.530 127.556  0.00  0.00    +0.000 C 
ATOM     67  ND2 ASN A   2      -2.626   2.598 128.009  0.00  0.00    +0.000 N 
ATOM     68  OD1 ASN A   2      -3.857   2.216 126.366  0.00  0.00    +0.000 OA
ATOM     69 HD21 ASN A   2      -2.465   1.844 128.625  0.00  0.00    +0.000 HD
ATOM     70 HD22 ASN A   2      -1.907   2.581 127.299  0.00  0.00    +0.000 HD
ENDBRANCH  65  66
ENDBRANCH  22  65
BRANCH   9  71
ATOM     71  CB  TYR A   1      -8.469   0.015 129.885  0.00  0.00    +0.000 C 
BRANCH  71  72
ATOM     72  CG  TYR A   1      -8.391   1.605 130.332  0.00  0.00    +0.000 A 
ATOM     73  CD1 TYR A   1      -8.667   1.848 131.633  0.00  0.00    +0.000 A 
ATOM     74  CE1 TYR A   1      -9.265   2.999 132.163  0.00  0.00    +0.000 A 
ATOM     75  CZ  TYR A   1      -9.622   4.126 131.466  0.00  0.00    +0.000 A 
ATOM     76  CE2 TYR A   1      -9.380   3.988 130.115  0.00  0.00    +0.000 A 
ATOM     77  CD2 TYR A   1      -8.722   2.767 129.559  0.00  0.00    +0.000 A 
BRANCH  75  78
ATOM     78  OH  TYR A   1     -10.573   5.020 131.914  0.00  0.00    +0.000 OA
ATOM     79  HH  TYR A   1     -11.344   5.170 131.318  0.00  0.00    +0.000 HD
ENDBRANCH  75  78
ENDBRANCH  71  72
ENDBRANCH   9  71
BRANCH   5  80
ATOM     80  CB  TYR A   1      -8.004  -0.945 125.340  0.00  0.00    +0.000 C 
BRANCH  80  81
ATOM     81  CG  TYR A   1      -7.266  -1.881 124.437  0.00  0.00    +0.000 A 
ATOM     82  CD1 TYR A   1      -6.797  -3.154 124.818  0.00  0.00    +0.000 A 
ATOM     83  CE1 TYR A   1      -5.807  -3.816 124.142  0.00  0.00    +0.000 A 
ATOM     84  CZ  TYR A   1      -5.510  -3.357 122.885  0.00  0.00    +0.000 A 
ATOM     85  CE2 TYR A   1      -6.041  -2.144 122.427  0.00  0.00    +0.000 A 
ATOM     86  CD2 TYR A   1      -6.866  -1.370 123.224  0.00  0.00    +0.000 A 
ENDBRANCH  80  81
ENDBRANCH   5  80
BRANCH   1  87
ATOM     87  CB  TYR A   1      -5.587   3.803 124.478  0.00  0.00    +0.000 C 
BRANCH  87  89
ATOM     88  CD1 TYR A   1      -5.284   4.340 122.171  0.00  0.00    +0.000 C 
ATOM     89  CG  TYR A   1      -6.281   3.775 123.151  0.00  0.00    +0.000 C 
ATOM     90  CD2 TYR A   1      -6.667   2.377 122.723  0.00  0.00    +0.000 C 
ENDBRANCH  87  89
ENDBRANCH   1  87
TORSDOF 24
ENDMDL
MODEL 5
REMARK VINA RESULT:      -9.5      2.541      3.284
REMARK  Name = CHEMBL1765666
REMARK  26 active torsions:
REMARK  status: ('A' for Active; 'I' for Inactive)
REMARK    1  A    between atoms: CD1_1  and  CG_2
REMARK    2  A    between atoms: CG_2  and  CD2_3
REMARK    3  A    between atoms: CG_2  and  CB_4
REMARK    4  A    between atoms: CB_4  and  CA_5
REMARK    5  A    between atoms: CA_9  and  CB_10
REMARK    6  A    between atoms: CB_10  and  CG_11
REMARK    7  A    between atoms: CA_20  and  CB_21
REMARK    8  A    between atoms: CB_21  and  CG_22
REMARK    9  A    between atoms: CZ_25  and  OH_26
REMARK   10  A    between atoms: C_37  and  C_38
REMARK   11  A    between atoms: CA_44  and  C_45
REMARK   12  A    between atoms: N_47  and  C_48
REMARK   13  A    between atoms: C_48  and  C_49
REMARK   14  A    between atoms: C_48  and  C_59
REMARK   15  A    between atoms: C_49  and  C_50
REMARK   16  A    between atoms: C_50  and  C_51
REMARK   17  A    between atoms: C_51  and  C_52
REMARK   18  A    between atoms: C_52  and  N_53
REMARK   19  A    between atoms: C_54  and  C_56
REMARK   20  A    between atoms: C_56  and  C_57
REMARK   21  A    between atoms: C_57  and  N_58
REMARK   22  A    between atoms: N_61  and  CA_62
REMARK   23  A    between atoms: CA_62  and  C_63
REMARK   24  A    between atoms: C_63  and  OXT_65
REMARK   25  A    between atoms: CA_69  and  CB_70
REMARK   26  A    between atoms: CB_70  and  CG_71
REMARK                            x       y       z     vdW  Elec       q    Type
REMARK                         _______ _______ _______ _____ _____    ______ ____
ROOT
ATOM      1  CA  TYR A   1      -6.801   3.016 126.083  0.00  0.00    +0.000 C 
ATOM      2  N   TYR A   1      -8.059   2.203 126.292  0.00  0.00    +0.000 N 
ATOM      3  C   TYR A   1      -8.299   0.956 126.834  0.00  0.00    +0.000 C 
ATOM      4  O   TYR A   1      -9.391   0.687 127.356  0.00  0.00    +0.000 OA
ATOM      5  CA  TYR A   1      -7.300  -0.128 126.545  0.00  0.00    +0.000 C 
ATOM      6  N   TYR A   1      -6.157  -0.232 127.373  0.00  0.00    +0.000 N 
ATOM      7  C   TYR A   1      -6.131  -0.917 128.576  0.00  0.00    +0.000 C 
ATOM      8  O   TYR A   1      -4.983  -1.268 128.896  0.00  0.00    +0.000 OA
ATOM      9  CA  TYR A   1      -7.612  -0.978 129.642  0.00  0.00    +0.000 C 
ATOM     10  N   TYR A   1      -7.363  -2.234 130.310  0.00  0.00    +0.000 N 
ATOM     11  C   UNK A   0      -6.432  -2.518 131.261  0.00  0.00    +0.000 C 
ATOM     12  O   UNK A   0      -6.434  -3.695 131.650  0.00  0.00    +0.000 OA
ATOM     13  C   UNK A   0      -5.395  -1.543 131.912  0.00  0.00    +0.000 C 
ATOM     14  C   UNK A   0      -5.243  -0.077 131.589  0.00  0.00    +0.000 C 
ATOM     15  S   UNK A   3      -3.820   1.006 132.180  0.00  0.00    +0.000 S 
ATOM     16  S   UNK A   3      -4.573   2.937 132.280  0.00  0.00    +0.000 S 
ATOM     17  C   UNK A   3      -3.709   4.270 131.352  0.00  0.00    +0.000 C 
ATOM     18  C   UNK A   3      -4.173   5.621 130.734  0.00  0.00    +0.000 C 
ATOM     19  N   UNK A   3      -3.954   5.624 129.271  0.00  0.00    +0.000 N 
ATOM     20  C   ASN A   2      -4.491   4.819 128.336  0.00  0.00    +0.000 C 
ATOM     21  O   ASN A   2      -4.083   4.760 127.181  0.00  0.00    +0.000 OA
ATOM     22  CA  ASN A   2      -5.688   4.073 128.728  0.00  0.00    +0.000 C 
ATOM     23  N   ASN A   2      -6.645   4.682 127.781  0.00  0.00    +0.000 N 
ATOM     24  C   TYR A   1      -7.250   4.307 126.633  0.00  0.00    +0.000 C 
ATOM     25  O   TYR A   1      -8.349   4.799 126.352  0.00  0.00    +0.000 OA
ATOM     26  H   TYR A   1      -8.933   2.739 126.329  0.00  0.00    +0.000 HD
ATOM     27  H   TYR A   1      -5.264   0.106 127.026  0.00  0.00    +0.000 HD
ATOM     28  H   TYR A   1      -7.920  -3.020 129.989  0.00  0.00    +0.000 HD
ATOM     29  H   UNK A   3      -3.245   6.237 128.884  0.00  0.00    +0.000 HD
ATOM     30  H   ASN A   2      -7.352   5.186 128.262  0.00  0.00    +0.000 HD
ENDROOT
BRANCH  18  31
ATOM     31  C   UNK A   3      -3.359   6.836 131.341  0.00  0.00    +0.000 C 
ATOM     32  O   UNK A   3      -3.219   7.858 130.660  0.00  0.00    +0.000 OA
ATOM     33  N   PRO A   4      -2.993   6.791 132.688  0.00  0.00    +0.000 N 
ATOM     34  CD  PRO A   4      -2.354   5.712 133.437  0.00  0.00    +0.000 C 
ATOM     35  CG  PRO A   4      -2.868   5.949 134.824  0.00  0.00    +0.000 C 
ATOM     36  CB  PRO A   4      -2.695   7.445 134.962  0.00  0.00    +0.000 C 
ATOM     37  CA  PRO A   4      -2.882   8.011 133.535  0.00  0.00    +0.000 C 
BRANCH  37  38
ATOM     38  C   PRO A   4      -1.599   8.824 133.277  0.00  0.00    +0.000 C 
ATOM     39  O   PRO A   4      -0.561   8.242 132.959  0.00  0.00    +0.000 OA
ATOM     40  N   UNK A   5      -1.649  10.198 133.506  0.00  0.00    +0.000 N 
ATOM     41  H   UNK A   5      -2.404  10.608 134.048  0.00  0.00    +0.000 HD
BRANCH  40  42
ATOM     42  C   UNK A   5      -0.545  11.125 133.122  0.00  0.00    +0.000 C 
BRANCH  42  43
ATOM     43  C   UNK A   5       0.366  11.477 134.357  0.00  0.00    +0.000 C 
ATOM     44  O   UNK A   5       0.359  10.779 135.374  0.00  0.00    +0.000 OA
ATOM     45  N   GLY A   6       1.178  12.596 134.264  0.00  0.00    +0.000 N 
ATOM     46  H   GLY A   6       1.198  13.170 133.425  0.00  0.00    +0.000 HD
BRANCH  45  47
ATOM     47  CA  GLY A   6       2.054  13.038 135.365  0.00  0.00    +0.000 C 
BRANCH  47  48
ATOM     48  C   GLY A   6       3.440  12.388 135.279  0.00  0.00    +0.000 C 
ATOM     49  O   GLY A   6       3.972  11.827 136.230  0.00  0.00    +0.000 OA
BRANCH  48  50
ATOM     50  OXT GLY A   6       4.056  12.466 134.075  0.00  0.00    +0.000 OA
ATOM     51  HXT GLY A   6       3.499  12.544 133.277  0.00  0.00    +0.000 HD
ENDBRANCH  48  50
ENDBRANCH  47  48
ENDBRANCH  45  47
ENDBRANCH  42  43
BRANCH  42  52
ATOM     52  C   UNK A   5      -1.126  12.431 132.538  0.00  0.00    +0.000 C 
BRANCH  52  53
ATOM     53  C   UNK A   5      -2.359  12.909 133.294  0.00  0.00    +0.000 C 
BRANCH  53  54
ATOM     54  C   UNK A   5      -2.489  14.400 133.452  0.00  0.00    +0.000 C 
BRANCH  54  55
ATOM     55  C   UNK A   5      -1.947  14.808 134.820  0.00  0.00    +0.000 C 
BRANCH  55  56
ATOM     56  N   UNK A   5      -2.008  13.706 135.758  0.00  0.00    +0.000 N 
ATOM     57  C   UNK A   5      -1.285  13.749 136.931  0.00  0.00    +0.000 C 
ATOM     58  O   UNK A   5      -0.572  14.704 137.227  0.00  0.00    +0.000 OA
ATOM     59  H   UNK A   5      -2.609  12.922 135.546  0.00  0.00    +0.000 HD
BRANCH  57  60
ATOM     60  C   UNK A   5      -1.440  12.529 137.824  0.00  0.00    +0.000 C 
BRANCH  60  61
ATOM     61  C   UNK A   5      -2.739  11.796 137.482  0.00  0.00    +0.000 C 
BRANCH  61  62
ATOM     62  N   UNK A   5      -2.538  10.804 136.424  0.00  0.00    +0.000 NA
ATOM     63  H   UNK A   5      -2.697  11.236 135.515  0.00  0.00    +0.000 HD
ATOM     64  H   UNK A   5      -3.253  10.081 136.516  0.00  0.00    +0.000 HD
ENDBRANCH  61  62
ENDBRANCH  60  61
ENDBRANCH  57  60
ENDBRANCH  55  56
ENDBRANCH  54  55
ENDBRANCH  53  54
ENDBRANCH  52  53
ENDBRANCH  42  52
ENDBRANCH  40  42
ENDBRANCH  37  38
ENDBRANCH  18  31
BRANCH  22  65
ATOM     65  CB  ASN A   2      -5.253   2.634 128.823  0.00  0.00    +0.000 C 
BRANCH  65  66
ATOM     66  CG  ASN A   2      -4.041   2.503 128.102  0.00  0.00    +0.000 C 
ATOM     67  ND2 ASN A   2      -2.834   2.666 128.518  0.00  0.00    +0.000 N 
ATOM     68  OD1 ASN A   2      -4.077   2.061 126.953  0.00  0.00    +0.000 OA
ATOM     69 HD21 ASN A   2      -2.631   1.989 129.207  0.00  0.00    +0.000 HD
ATOM     70 HD22 ASN A   2      -2.128   2.600 127.798  0.00  0.00    +0.000 HD
ENDBRANCH  65  66
ENDBRANCH  22  65
BRANCH   9  71
ATOM     71  CB  TYR A   1      -8.518   0.057 130.788  0.00  0.00    +0.000 C 
BRANCH  71  72
ATOM     72  CG  TYR A   1      -8.339   1.643 131.220  0.00  0.00    +0.000 A 
ATOM     73  CD1 TYR A   1      -8.403   1.885 132.549  0.00  0.00    +0.000 A 
ATOM     74  CE1 TYR A   1      -8.887   3.044 133.169  0.00  0.00    +0.000 A 
ATOM     75  CZ  TYR A   1      -9.328   4.180 132.539  0.00  0.00    +0.000 A 
ATOM     76  CE2 TYR A   1      -9.305   4.045 131.166  0.00  0.00    +0.000 A 
ATOM     77  CD2 TYR A   1      -8.766   2.815 130.511  0.00  0.00    +0.000 A 
BRANCH  75  78
ATOM     78  OH  TYR A   1     -10.179   5.091 133.132  0.00  0.00    +0.000 OA
ATOM     79  HH  TYR A   1     -10.384   4.938 134.085  0.00  0.00    +0.000 HD
ENDBRANCH  75  78
ENDBRANCH  71  72
ENDBRANCH   9  71
BRANCH   5  80
ATOM     80  CB  TYR A   1      -7.970  -1.477 126.413  0.00  0.00    +0.000 C 
BRANCH  80  81
ATOM     81  CG  TYR A   1      -8.022  -1.995 125.012  0.00  0.00    +0.000 A 
ATOM     82  CD1 TYR A   1      -7.110  -1.645 123.997  0.00  0.00    +0.000 A 
ATOM     83  CE1 TYR A   1      -7.385  -1.795 122.664  0.00  0.00    +0.000 A 
ATOM     84  CZ  TYR A   1      -8.443  -2.606 122.344  0.00  0.00    +0.000 A 
ATOM     85  CE2 TYR A   1      -9.317  -3.062 123.340  0.00  0.00    +0.000 A 
ATOM     86  CD2 TYR A   1      -9.149  -2.706 124.666  0.00  0.00    +0.000 A 
ENDBRANCH  80  81
ENDBRANCH   5  80
BRANCH   1  87
ATOM     87  CB  TYR A   1      -5.836   3.249 124.914  0.00  0.00    +0.000 C 
BRANCH  87  89
ATOM     88  CD1 TYR A   1      -5.661   4.110 122.694  0.00  0.00    +0.000 C 
ATOM     89  CG  TYR A   1      -6.586   3.364 123.622  0.00  0.00    +0.000 C 
ATOM     90  CD2 TYR A   1      -6.921   2.018 123.020  0.00  0.00    +0.000 C 
ENDBRANCH  87  89
ENDBRANCH   1  87
TORSDOF 24
ENDMDL
MODEL 6
REMARK VINA RESULT:      -9.4      2.897      7.491
REMARK  Name = CHEMBL1765666
REMARK  26 active torsions:
REMARK  status: ('A' for Active; 'I' for Inactive)
REMARK    1  A    between atoms: CD1_1  and  CG_2
REMARK    2  A    between atoms: CG_2  and  CD2_3
REMARK    3  A    between atoms: CG_2  and  CB_4
REMARK    4  A    between atoms: CB_4  and  CA_5
REMARK    5  A    between atoms: CA_9  and  CB_10
REMARK    6  A    between atoms: CB_10  and  CG_11
REMARK    7  A    between atoms: CA_20  and  CB_21
REMARK    8  A    between atoms: CB_21  and  CG_22
REMARK    9  A    between atoms: CZ_25  and  OH_26
REMARK   10  A    between atoms: C_37  and  C_38
REMARK   11  A    between atoms: CA_44  and  C_45
REMARK   12  A    between atoms: N_47  and  C_48
REMARK   13  A    between atoms: C_48  and  C_49
REMARK   14  A    between atoms: C_48  and  C_59
REMARK   15  A    between atoms: C_49  and  C_50
REMARK   16  A    between atoms: C_50  and  C_51
REMARK   17  A    between atoms: C_51  and  C_52
REMARK   18  A    between atoms: C_52  and  N_53
REMARK   19  A    between atoms: C_54  and  C_56
REMARK   20  A    between atoms: C_56  and  C_57
REMARK   21  A    between atoms: C_57  and  N_58
REMARK   22  A    between atoms: N_61  and  CA_62
REMARK   23  A    between atoms: CA_62  and  C_63
REMARK   24  A    between atoms: C_63  and  OXT_65
REMARK   25  A    between atoms: CA_69  and  CB_70
REMARK   26  A    between atoms: CB_70  and  CG_71
REMARK                            x       y       z     vdW  Elec       q    Type
REMARK                         _______ _______ _______ _____ _____    ______ ____
ROOT
ATOM      1  CA  TYR A   1      -5.233   0.039 131.842  0.00  0.00    +0.000 C 
ATOM      2  N   TYR A   1      -4.513   0.133 130.515  0.00  0.00    +0.000 N 
ATOM      3  C   TYR A   1      -4.908   0.526 129.251  0.00  0.00    +0.000 C 
ATOM      4  O   TYR A   1      -4.092   0.995 128.445  0.00  0.00    +0.000 OA
ATOM      5  CA  TYR A   1      -6.287   0.131 128.804  0.00  0.00    +0.000 C 
ATOM      6  N   TYR A   1      -7.377   0.960 129.161  0.00  0.00    +0.000 N 
ATOM      7  C   TYR A   1      -7.769   2.077 128.443  0.00  0.00    +0.000 C 
ATOM      8  O   TYR A   1      -8.958   2.374 128.641  0.00  0.00    +0.000 OA
ATOM      9  CA  TYR A   1      -6.532   3.104 127.576  0.00  0.00    +0.000 C 
ATOM     10  N   TYR A   1      -7.369   3.628 126.521  0.00  0.00    +0.000 N 
ATOM     11  C   UNK A   0      -8.360   4.555 126.607  0.00  0.00    +0.000 C 
ATOM     12  O   UNK A   0      -8.926   4.807 125.534  0.00  0.00    +0.000 OA
ATOM     13  C   UNK A   0      -8.842   5.331 127.878  0.00  0.00    +0.000 C 
ATOM     14  C   UNK A   0      -8.276   5.181 129.269  0.00  0.00    +0.000 C 
ATOM     15  S   UNK A   3      -9.045   5.915 130.823  0.00  0.00    +0.000 S 
ATOM     16  S   UNK A   3      -7.479   6.223 132.148  0.00  0.00    +0.000 S 
ATOM     17  C   UNK A   3      -7.579   5.468 133.823  0.00  0.00    +0.000 C 
ATOM     18  C   UNK A   3      -6.511   5.001 134.854  0.00  0.00    +0.000 C 
ATOM     19  N   UNK A   3      -6.645   3.552 135.119  0.00  0.00    +0.000 N 
ATOM     20  C   ASN A   2      -6.512   2.522 134.263  0.00  0.00    +0.000 C 
ATOM     21  O   ASN A   2      -6.854   1.375 134.529  0.00  0.00    +0.000 OA
ATOM     22  CA  ASN A   2      -5.822   2.807 133.004  0.00  0.00    +0.000 C 
ATOM     23  N   ASN A   2      -4.655   1.919 133.189  0.00  0.00    +0.000 N 
ATOM     24  C   TYR A   1      -4.252   0.726 132.701  0.00  0.00    +0.000 C 
ATOM     25  O   TYR A   1      -3.040   0.485 132.644  0.00  0.00    +0.000 OA
ATOM     26  H   TYR A   1      -3.492   0.217 130.569  0.00  0.00    +0.000 HD
ATOM     27  H   TYR A   1      -7.991   0.669 129.915  0.00  0.00    +0.000 HD
ATOM     28  H   TYR A   1      -7.233   3.210 125.606  0.00  0.00    +0.000 HD
ATOM     29  H   UNK A   3      -6.967   3.249 136.031  0.00  0.00    +0.000 HD
ATOM     30  H   ASN A   2      -3.814   2.443 133.245  0.00  0.00    +0.000 HD
ENDROOT
BRANCH  18  31
ATOM     31  C   UNK A   3      -6.682   5.757 136.235  0.00  0.00    +0.000 C 
ATOM     32  O   UNK A   3      -7.756   6.318 136.478  0.00  0.00    +0.000 OA
ATOM     33  N   PRO A   4      -5.692   5.605 137.209  0.00  0.00    +0.000 N 
ATOM     34  CD  PRO A   4      -4.242   5.724 137.080  0.00  0.00    +0.000 C 
ATOM     35  CG  PRO A   4      -3.758   4.805 138.159  0.00  0.00    +0.000 C 
ATOM     36  CB  PRO A   4      -4.652   5.193 139.315  0.00  0.00    +0.000 C 
ATOM     37  CA  PRO A   4      -5.986   5.634 138.668  0.00  0.00    +0.000 C 
BRANCH  37  38
ATOM     38  C   PRO A   4      -6.226   7.052 139.220  0.00  0.00    +0.000 C 
ATOM     39  O   PRO A   4      -6.678   7.198 140.357  0.00  0.00    +0.000 OA
ATOM     40  N   UNK A   5      -6.000   8.125 138.360  0.00  0.00    +0.000 N 
ATOM     41  H   UNK A   5      -5.924   7.982 137.357  0.00  0.00    +0.000 HD
BRANCH  40  42
ATOM     42  C   UNK A   5      -6.012   9.547 138.815  0.00  0.00    +0.000 C 
BRANCH  42  43
ATOM     43  C   UNK A   5      -7.478  10.117 138.879  0.00  0.00    +0.000 C 
ATOM     44  O   UNK A   5      -7.691  11.299 139.161  0.00  0.00    +0.000 OA
ATOM     45  N   GLY A   6      -8.522   9.249 138.605  0.00  0.00    +0.000 N 
ATOM     46  H   GLY A   6      -8.354   8.276 138.360  0.00  0.00    +0.000 HD
BRANCH  45  47
ATOM     47  CA  GLY A   6      -9.937   9.662 138.657  0.00  0.00    +0.000 C 
BRANCH  47  48
ATOM     48  C   GLY A   6     -10.772   8.951 137.586  0.00  0.00    +0.000 C 
ATOM     49  O   GLY A   6     -11.973   8.737 137.714  0.00  0.00    +0.000 OA
BRANCH  48  50
ATOM     50  OXT GLY A   6     -10.104   8.567 136.473  0.00  0.00    +0.000 OA
ATOM     51  HXT GLY A   6     -10.359   7.726 136.049  0.00  0.00    +0.000 HD
ENDBRANCH  48  50
ENDBRANCH  47  48
ENDBRANCH  45  47
ENDBRANCH  42  43
BRANCH  42  52
ATOM     52  C   UNK A   5      -5.174  10.419 137.856  0.00  0.00    +0.000 C 
BRANCH  52  53
ATOM     53  C   UNK A   5      -3.813   9.807 137.550  0.00  0.00    +0.000 C 
BRANCH  53  54
ATOM     54  C   UNK A   5      -3.606   9.357 136.129  0.00  0.00    +0.000 C 
BRANCH  54  55
ATOM     55  C   UNK A   5      -2.731  10.376 135.403  0.00  0.00    +0.000 C 
BRANCH  55  56
ATOM     56  N   UNK A   5      -1.431   9.821 135.088  0.00  0.00    +0.000 N 
ATOM     57  C   UNK A   5      -1.210   9.215 133.870  0.00  0.00    +0.000 C 
ATOM     58  O   UNK A   5      -2.087   9.121 133.015  0.00  0.00    +0.000 OA
ATOM     59  H   UNK A   5      -0.688   9.912 135.766  0.00  0.00    +0.000 HD
BRANCH  57  60
ATOM     60  C   UNK A   5       0.198   8.677 133.669  0.00  0.00    +0.000 C 
BRANCH  60  61
ATOM     61  C   UNK A   5       0.376   7.380 134.461  0.00  0.00    +0.000 C 
BRANCH  61  62
ATOM     62  N   UNK A   5      -0.857   6.589 134.487  0.00  0.00    +0.000 NA
ATOM     63  H   UNK A   5      -1.198   6.518 135.444  0.00  0.00    +0.000 HD
ATOM     64  H   UNK A   5      -0.636   5.634 134.199  0.00  0.00    +0.000 HD
ENDBRANCH  61  62
ENDBRANCH  60  61
ENDBRANCH  57  60
ENDBRANCH  55  56
ENDBRANCH  54  55
ENDBRANCH  53  54
ENDBRANCH  52  53
ENDBRANCH  42  52
ENDBRANCH  40  42
ENDBRANCH  37  38
ENDBRANCH  18  31
BRANCH  22  65
ATOM     65  CB  ASN A   2      -6.885   2.743 131.938  0.00  0.00    +0.000 C 
BRANCH  65  66
ATOM     66  CG  ASN A   2      -8.028   2.128 132.507  0.00  0.00    +0.000 C 
ATOM     67  ND2 ASN A   2      -8.964   2.661 133.210  0.00  0.00    +0.000 N 
ATOM     68  OD1 ASN A   2      -8.274   0.955 132.225  0.00  0.00    +0.000 OA
ATOM     69 HD21 ASN A   2      -9.451   3.322 132.662  0.00  0.00    +0.000 HD
ATOM     70 HD22 ASN A   2      -9.638   2.006 133.581  0.00  0.00    +0.000 HD
ENDBRANCH  65  66
ENDBRANCH  22  65
BRANCH   9  71
ATOM     71  CB  TYR A   1      -5.293   4.346 127.931  0.00  0.00    +0.000 C 
BRANCH  71  72
ATOM     72  CG  TYR A   1      -4.654   4.892 129.355  0.00  0.00    +0.000 A 
ATOM     73  CD1 TYR A   1      -4.323   6.202 129.369  0.00  0.00    +0.000 A 
ATOM     74  CE1 TYR A   1      -3.281   6.797 130.092  0.00  0.00    +0.000 A 
ATOM     75  CZ  TYR A   1      -2.440   6.168 130.976  0.00  0.00    +0.000 A 
ATOM     76  CE2 TYR A   1      -2.692   4.813 131.043  0.00  0.00    +0.000 A 
ATOM     77  CD2 TYR A   1      -3.819   4.189 130.287  0.00  0.00    +0.000 A 
BRANCH  75  78
ATOM     78  OH  TYR A   1      -1.197   6.661 131.316  0.00  0.00    +0.000 OA
ATOM     79  HH  TYR A   1      -0.850   6.395 132.201  0.00  0.00    +0.000 HD
ENDBRANCH  75  78
ENDBRANCH  71  72
ENDBRANCH   9  71
BRANCH   5  80
ATOM     80  CB  TYR A   1      -6.324  -0.166 127.322  0.00  0.00    +0.000 C 
BRANCH  80  81
ATOM     81  CG  TYR A   1      -7.196  -1.324 126.955  0.00  0.00    +0.000 A 
ATOM     82  CD1 TYR A   1      -7.984  -1.391 125.789  0.00  0.00    +0.000 A 
ATOM     83  CE1 TYR A   1      -9.051  -2.238 125.659  0.00  0.00    +0.000 A 
ATOM     84  CZ  TYR A   1      -9.136  -3.261 126.567  0.00  0.00    +0.000 A 
ATOM     85  CE2 TYR A   1      -8.298  -3.288 127.689  0.00  0.00    +0.000 A 
ATOM     86  CD2 TYR A   1      -7.372  -2.286 127.922  0.00  0.00    +0.000 A 
ENDBRANCH  80  81
ENDBRANCH   5  80
BRANCH   1  87
ATOM     87  CB  TYR A   1      -5.928  -1.078 132.627  0.00  0.00    +0.000 C 
BRANCH  87  89
ATOM     88  CD1 TYR A   1      -5.081  -3.273 132.218  0.00  0.00    +0.000 C 
ATOM     89  CG  TYR A   1      -6.128  -2.287 131.765  0.00  0.00    +0.000 C 
ATOM     90  CD2 TYR A   1      -7.500  -2.902 131.930  0.00  0.00    +0.000 C 
ENDBRANCH  87  89
ENDBRANCH   1  87
TORSDOF 24
ENDMDL
MODEL 7
REMARK VINA RESULT:      -9.2      2.728      4.130
REMARK  Name = CHEMBL1765666
REMARK  26 active torsions:
REMARK  status: ('A' for Active; 'I' for Inactive)
REMARK    1  A    between atoms: CD1_1  and  CG_2
REMARK    2  A    between atoms: CG_2  and  CD2_3
REMARK    3  A    between atoms: CG_2  and  CB_4
REMARK    4  A    between atoms: CB_4  and  CA_5
REMARK    5  A    between atoms: CA_9  and  CB_10
REMARK    6  A    between atoms: CB_10  and  CG_11
REMARK    7  A    between atoms: CA_20  and  CB_21
REMARK    8  A    between atoms: CB_21  and  CG_22
REMARK    9  A    between atoms: CZ_25  and  OH_26
REMARK   10  A    between atoms: C_37  and  C_38
REMARK   11  A    between atoms: CA_44  and  C_45
REMARK   12  A    between atoms: N_47  and  C_48
REMARK   13  A    between atoms: C_48  and  C_49
REMARK   14  A    between atoms: C_48  and  C_59
REMARK   15  A    between atoms: C_49  and  C_50
REMARK   16  A    between atoms: C_50  and  C_51
REMARK   17  A    between atoms: C_51  and  C_52
REMARK   18  A    between atoms: C_52  and  N_53
REMARK   19  A    between atoms: C_54  and  C_56
REMARK   20  A    between atoms: C_56  and  C_57
REMARK   21  A    between atoms: C_57  and  N_58
REMARK   22  A    between atoms: N_61  and  CA_62
REMARK   23  A    between atoms: CA_62  and  C_63
REMARK   24  A    between atoms: C_63  and  OXT_65
REMARK   25  A    between atoms: CA_69  and  CB_70
REMARK   26  A    between atoms: CB_70  and  CG_71
REMARK                            x       y       z     vdW  Elec       q    Type
REMARK                         _______ _______ _______ _____ _____    ______ ____
ROOT
ATOM      1  CA  TYR A   1      -6.752   3.293 125.651  0.00  0.00    +0.000 C 
ATOM      2  N   TYR A   1      -8.016   2.466 125.742  0.00  0.00    +0.000 N 
ATOM      3  C   TYR A   1      -8.264   1.153 126.090  0.00  0.00    +0.000 C 
ATOM      4  O   TYR A   1      -9.355   0.816 126.572  0.00  0.00    +0.000 OA
ATOM      5  CA  TYR A   1      -7.275   0.118 125.633  0.00  0.00    +0.000 C 
ATOM      6  N   TYR A   1      -6.128  -0.119 126.428  0.00  0.00    +0.000 N 
ATOM      7  C   TYR A   1      -6.102  -0.979 127.513  0.00  0.00    +0.000 C 
ATOM      8  O   TYR A   1      -4.956  -1.383 127.769  0.00  0.00    +0.000 OA
ATOM      9  CA  TYR A   1      -7.578  -1.191 128.567  0.00  0.00    +0.000 C 
ATOM     10  N   TYR A   1      -7.336  -2.536 129.034  0.00  0.00    +0.000 N 
ATOM     11  C   UNK A   0      -6.403  -2.968 129.925  0.00  0.00    +0.000 C 
ATOM     12  O   UNK A   0      -6.412  -4.190 130.131  0.00  0.00    +0.000 OA
ATOM     13  C   UNK A   0      -5.355  -2.110 130.710  0.00  0.00    +0.000 C 
ATOM     14  C   UNK A   0      -5.192  -0.614 130.613  0.00  0.00    +0.000 C 
ATOM     15  S   UNK A   3      -3.757   0.357 131.352  0.00  0.00    +0.000 S 
ATOM     16  S   UNK A   3      -4.493   2.255 131.750  0.00  0.00    +0.000 S 
ATOM     17  C   UNK A   3      -3.623   3.708 131.030  0.00  0.00    +0.000 C 
ATOM     18  C   UNK A   3      -4.079   5.140 130.627  0.00  0.00    +0.000 C 
ATOM     19  N   UNK A   3      -3.868   5.364 129.181  0.00  0.00    +0.000 N 
ATOM     20  C   ASN A   2      -4.417   4.714 128.137  0.00  0.00    +0.000 C 
ATOM     21  O   ASN A   2      -4.015   4.830 126.984  0.00  0.00    +0.000 OA
ATOM     22  CA  ASN A   2      -5.618   3.927 128.419  0.00  0.00    +0.000 C 
ATOM     23  N   ASN A   2      -6.574   4.679 127.581  0.00  0.00    +0.000 N 
ATOM     24  C   TYR A   1      -7.188   4.488 126.394  0.00  0.00    +0.000 C 
ATOM     25  O   TYR A   1      -8.285   5.025 126.197  0.00  0.00    +0.000 OA
ATOM     26  H   TYR A   1      -8.885   2.997 125.866  0.00  0.00    +0.000 HD
ATOM     27  H   TYR A   1      -5.235   0.261 126.131  0.00  0.00    +0.000 HD
ATOM     28  H   TYR A   1      -7.901  -3.259 128.601  0.00  0.00    +0.000 HD
ATOM     29  H   UNK A   3      -3.156   6.023 128.887  0.00  0.00    +0.000 HD
ATOM     30  H   ASN A   2      -7.274   5.110 128.138  0.00  0.00    +0.000 HD
ENDROOT
BRANCH  18  31
ATOM     31  C   UNK A   3      -3.252   6.243 131.407  0.00  0.00    +0.000 C 
ATOM     32  O   UNK A   3      -2.709   7.147 130.762  0.00  0.00    +0.000 OA
ATOM     33  N   PRO A   4      -3.322   6.271 132.802  0.00  0.00    +0.000 N 
ATOM     34  CD  PRO A   4      -3.170   5.176 133.757  0.00  0.00    +0.000 C 
ATOM     35  CG  PRO A   4      -4.015   5.645 134.902  0.00  0.00    +0.000 C 
ATOM     36  CB  PRO A   4      -3.588   7.091 135.025  0.00  0.00    +0.000 C 
ATOM     37  CA  PRO A   4      -3.221   7.531 133.589  0.00  0.00    +0.000 C 
BRANCH  37  38
ATOM     38  C   PRO A   4      -1.781   8.066 133.711  0.00  0.00    +0.000 C 
ATOM     39  O   PRO A   4      -1.210   8.517 132.717  0.00  0.00    +0.000 OA
ATOM     40  N   UNK A   5      -1.145   7.931 134.944  0.00  0.00    +0.000 N 
ATOM     41  H   UNK A   5      -1.508   7.296 135.650  0.00  0.00    +0.000 HD
BRANCH  40  42
ATOM     42  C   UNK A   5       0.169   8.566 135.254  0.00  0.00    +0.000 C 
BRANCH  42  43
ATOM     43  C   UNK A   5       0.843   7.907 136.515  0.00  0.00    +0.000 C 
ATOM     44  O   UNK A   5       1.016   8.547 137.554  0.00  0.00    +0.000 OA
ATOM     45  N   GLY A   6       1.233   6.581 136.419  0.00  0.00    +0.000 N 
ATOM     46  H   GLY A   6       1.084   6.042 135.570  0.00  0.00    +0.000 HD
BRANCH  45  47
ATOM     47  CA  GLY A   6       1.896   5.864 137.525  0.00  0.00    +0.000 C 
BRANCH  47  48
ATOM     48  C   GLY A   6       3.422   5.994 137.448  0.00  0.00    +0.000 C 
ATOM     49  O   GLY A   6       4.125   6.157 138.438  0.00  0.00    +0.000 OA
BRANCH  48  50
ATOM     50  OXT GLY A   6       3.960   5.914 136.208  0.00  0.00    +0.000 OA
ATOM     51  HXT GLY A   6       3.513   5.350 135.547  0.00  0.00    +0.000 HD
ENDBRANCH  48  50
ENDBRANCH  47  48
ENDBRANCH  45  47
ENDBRANCH  42  43
BRANCH  42  52
ATOM     52  C   UNK A   5      -0.019  10.076 135.516  0.00  0.00    +0.000 C 
BRANCH  52  53
ATOM     53  C   UNK A   5       0.730  10.940 134.510  0.00  0.00    +0.000 C 
BRANCH  53  54
ATOM     54  C   UNK A   5       1.579  12.035 135.095  0.00  0.00    +0.000 C 
BRANCH  54  55
ATOM     55  C   UNK A   5       1.047  13.387 134.625  0.00  0.00    +0.000 C 
BRANCH  55  56
ATOM     56  N   UNK A   5      -0.204  13.239 133.912  0.00  0.00    +0.000 N 
ATOM     57  C   UNK A   5      -1.320  13.943 134.310  0.00  0.00    +0.000 C 
ATOM     58  O   UNK A   5      -1.304  14.710 135.269  0.00  0.00    +0.000 OA
ATOM     59  H   UNK A   5      -0.233  12.633 133.104  0.00  0.00    +0.000 HD
BRANCH  57  60
ATOM     60  C   UNK A   5      -2.566  13.695 133.475  0.00  0.00    +0.000 C 
BRANCH  60  61
ATOM     61  C   UNK A   5      -3.072  15.016 132.891  0.00  0.00    +0.000 C 
BRANCH  61  62
ATOM     62  N   UNK A   5      -2.628  15.200 131.508  0.00  0.00    +0.000 NA
ATOM     63  H   UNK A   5      -3.301  15.778 131.007  0.00  0.00    +0.000 HD
ATOM     64  H   UNK A   5      -2.639  14.293 131.040  0.00  0.00    +0.000 HD
ENDBRANCH  61  62
ENDBRANCH  60  61
ENDBRANCH  57  60
ENDBRANCH  55  56
ENDBRANCH  54  55
ENDBRANCH  53  54
ENDBRANCH  52  53
ENDBRANCH  42  52
ENDBRANCH  40  42
ENDBRANCH  37  38
ENDBRANCH  18  31
BRANCH  22  65
ATOM     65  CB  ASN A   2      -5.194   2.487 128.291  0.00  0.00    +0.000 C 
BRANCH  65  66
ATOM     66  CG  ASN A   2      -3.963   2.461 127.591  0.00  0.00    +0.000 C 
ATOM     67  ND2 ASN A   2      -2.768   2.576 128.056  0.00  0.00    +0.000 N 
ATOM     68  OD1 ASN A   2      -3.966   2.176 126.393  0.00  0.00    +0.000 OA
ATOM     69 HD21 ASN A   2      -2.575   1.816 128.655  0.00  0.00    +0.000 HD
ATOM     70 HD22 ASN A   2      -2.044   2.612 127.352  0.00  0.00    +0.000 HD
ENDBRANCH  65  66
ENDBRANCH  22  65
BRANCH   9  71
ATOM     71  CB  TYR A   1      -8.470  -0.335 129.862  0.00  0.00    +0.000 C 
BRANCH  71  72
ATOM     72  CG  TYR A   1      -8.296   1.177 130.508  0.00  0.00    +0.000 A 
ATOM     73  CD1 TYR A   1      -8.408   1.242 131.853  0.00  0.00    +0.000 A 
ATOM     74  CE1 TYR A   1      -8.907   2.315 132.603  0.00  0.00    +0.000 A 
ATOM     75  CZ  TYR A   1      -9.316   3.530 132.114  0.00  0.00    +0.000 A 
ATOM     76  CE2 TYR A   1      -9.243   3.577 130.737  0.00  0.00    +0.000 A 
ATOM     77  CD2 TYR A   1      -8.688   2.438 129.944  0.00  0.00    +0.000 A 
BRANCH  75  78
ATOM     78  OH  TYR A   1     -10.183   4.364 132.791  0.00  0.00    +0.000 OA
ATOM     79  HH  TYR A   1      -9.892   4.660 133.686  0.00  0.00    +0.000 HD
ENDBRANCH  75  78
ENDBRANCH  71  72
ENDBRANCH   9  71
BRANCH   5  80
ATOM     80  CB  TYR A   1      -7.957  -1.189 125.302  0.00  0.00    +0.000 C 
BRANCH  80  81
ATOM     81  CG  TYR A   1      -7.146  -2.094 124.429  0.00  0.00    +0.000 A 
ATOM     82  CD1 TYR A   1      -6.805  -3.421 124.755  0.00  0.00    +0.000 A 
ATOM     83  CE1 TYR A   1      -5.765  -4.089 124.167  0.00  0.00    +0.000 A 
ATOM     84  CZ  TYR A   1      -5.265  -3.549 123.011  0.00  0.00    +0.000 A 
ATOM     85  CE2 TYR A   1      -5.659  -2.269 122.595  0.00  0.00    +0.000 A 
ATOM     86  CD2 TYR A   1      -6.548  -1.512 123.336  0.00  0.00    +0.000 A 
ENDBRANCH  80  81
ENDBRANCH   5  80
BRANCH   1  87
ATOM     87  CB  TYR A   1      -5.792   3.694 124.525  0.00  0.00    +0.000 C 
BRANCH  87  89
ATOM     88  CD1 TYR A   1      -5.507   4.251 122.221  0.00  0.00    +0.000 C 
ATOM     89  CG  TYR A   1      -6.480   3.639 123.196  0.00  0.00    +0.000 C 
ATOM     90  CD2 TYR A   1      -6.801   2.226 122.762  0.00  0.00    +0.000 C 
ENDBRANCH  87  89
ENDBRANCH   1  87
TORSDOF 24
ENDMDL
MODEL 8
REMARK VINA RESULT:      -9.1      4.840     10.267
REMARK  Name = CHEMBL1765666
REMARK  26 active torsions:
REMARK  status: ('A' for Active; 'I' for Inactive)
REMARK    1  A    between atoms: CD1_1  and  CG_2
REMARK    2  A    between atoms: CG_2  and  CD2_3
REMARK    3  A    between atoms: CG_2  and  CB_4
REMARK    4  A    between atoms: CB_4  and  CA_5
REMARK    5  A    between atoms: CA_9  and  CB_10
REMARK    6  A    between atoms: CB_10  and  CG_11
REMARK    7  A    between atoms: CA_20  and  CB_21
REMARK    8  A    between atoms: CB_21  and  CG_22
REMARK    9  A    between atoms: CZ_25  and  OH_26
REMARK   10  A    between atoms: C_37  and  C_38
REMARK   11  A    between atoms: CA_44  and  C_45
REMARK   12  A    between atoms: N_47  and  C_48
REMARK   13  A    between atoms: C_48  and  C_49
REMARK   14  A    between atoms: C_48  and  C_59
REMARK   15  A    between atoms: C_49  and  C_50
REMARK   16  A    between atoms: C_50  and  C_51
REMARK   17  A    between atoms: C_51  and  C_52
REMARK   18  A    between atoms: C_52  and  N_53
REMARK   19  A    between atoms: C_54  and  C_56
REMARK   20  A    between atoms: C_56  and  C_57
REMARK   21  A    between atoms: C_57  and  N_58
REMARK   22  A    between atoms: N_61  and  CA_62
REMARK   23  A    between atoms: CA_62  and  C_63
REMARK   24  A    between atoms: C_63  and  OXT_65
REMARK   25  A    between atoms: CA_69  and  CB_70
REMARK   26  A    between atoms: CB_70  and  CG_71
REMARK                            x       y       z     vdW  Elec       q    Type
REMARK                         _______ _______ _______ _____ _____    ______ ____
ROOT
ATOM      1  CA  TYR A   1      -6.338  -0.211 128.079  0.00  0.00    +0.000 C 
ATOM      2  N   TYR A   1      -5.286   0.565 127.317  0.00  0.00    +0.000 N 
ATOM      3  C   TYR A   1      -5.025   1.912 127.172  0.00  0.00    +0.000 C 
ATOM      4  O   TYR A   1      -3.878   2.318 126.934  0.00  0.00    +0.000 OA
ATOM      5  CA  TYR A   1      -6.204   2.837 127.057  0.00  0.00    +0.000 C 
ATOM      6  N   TYR A   1      -6.813   3.308 128.245  0.00  0.00    +0.000 N 
ATOM      7  C   TYR A   1      -6.373   4.411 128.955  0.00  0.00    +0.000 C 
ATOM      8  O   TYR A   1      -7.268   4.909 129.658  0.00  0.00    +0.000 OA
ATOM      9  CA  TYR A   1      -4.595   4.824 129.024  0.00  0.00    +0.000 C 
ATOM     10  N   TYR A   1      -4.699   6.251 129.222  0.00  0.00    +0.000 N 
ATOM     11  C   UNK A   0      -5.094   6.927 130.334  0.00  0.00    +0.000 C 
ATOM     12  O   UNK A   0      -5.101   8.160 130.214  0.00  0.00    +0.000 OA
ATOM     13  C   UNK A   0      -5.517   6.333 131.719  0.00  0.00    +0.000 C 
ATOM     14  C   UNK A   0      -5.561   4.866 132.071  0.00  0.00    +0.000 C 
ATOM     15  S   UNK A   3      -6.328   4.166 133.641  0.00  0.00    +0.000 S 
ATOM     16  S   UNK A   3      -5.313   2.400 134.038  0.00  0.00    +0.000 S 
ATOM     17  C   UNK A   3      -6.282   0.848 134.225  0.00  0.00    +0.000 C 
ATOM     18  C   UNK A   3      -5.955  -0.656 133.993  0.00  0.00    +0.000 C 
ATOM     19  N   UNK A   3      -6.842  -1.226 132.956  0.00  0.00    +0.000 N 
ATOM     20  C   ASN A   2      -6.957  -0.879 131.661  0.00  0.00    +0.000 C 
ATOM     21  O   ASN A   2      -7.871  -1.263 130.938  0.00  0.00    +0.000 OA
ATOM     22  CA  ASN A   2      -5.860  -0.091 131.097  0.00  0.00    +0.000 C 
ATOM     23  N   ASN A   2      -5.387  -1.064 130.091  0.00  0.00    +0.000 N 
ATOM     24  C   TYR A   1      -5.474  -1.198 128.750  0.00  0.00    +0.000 C 
ATOM     25  O   TYR A   1      -4.579  -1.808 128.153  0.00  0.00    +0.000 OA
ATOM     26  H   TYR A   1      -4.426   0.049 127.099  0.00  0.00    +0.000 HD
ATOM     27  H   TYR A   1      -7.692   2.899 128.543  0.00  0.00    +0.000 HD
ATOM     28  H   TYR A   1      -4.501   6.822 128.406  0.00  0.00    +0.000 HD
ATOM     29  H   UNK A   3      -7.537  -1.911 133.230  0.00  0.00    +0.000 HD
ATOM     30  H   ASN A   2      -4.464  -1.367 130.295  0.00  0.00    +0.000 HD
ENDROOT
BRANCH  18  31
ATOM     31  C   UNK A   3      -6.166  -1.498 135.318  0.00  0.00    +0.000 C 
ATOM     32  O   UNK A   3      -6.401  -0.898 136.373  0.00  0.00    +0.000 OA
ATOM     33  N   PRO A   4      -6.272  -2.887 135.219  0.00  0.00    +0.000 N 
ATOM     34  CD  PRO A   4      -5.418  -3.831 134.503  0.00  0.00    +0.000 C 
ATOM     35  CG  PRO A   4      -6.378  -4.936 134.185  0.00  0.00    +0.000 C 
ATOM     36  CB  PRO A   4      -7.097  -5.106 135.504  0.00  0.00    +0.000 C 
ATOM     37  CA  PRO A   4      -7.109  -3.699 136.146  0.00  0.00    +0.000 C 
BRANCH  37  38
ATOM     38  C   PRO A   4      -6.468  -3.907 137.531  0.00  0.00    +0.000 C 
ATOM     39  O   PRO A   4      -6.140  -5.040 137.889  0.00  0.00    +0.000 OA
ATOM     40  N   UNK A   5      -6.368  -2.798 138.369  0.00  0.00    +0.000 N 
ATOM     41  H   UNK A   5      -6.907  -1.956 138.185  0.00  0.00    +0.000 HD
BRANCH  40  42
ATOM     42  C   UNK A   5      -5.606  -2.816 139.652  0.00  0.00    +0.000 C 
BRANCH  42  43
ATOM     43  C   UNK A   5      -5.849  -1.500 140.483  0.00  0.00    +0.000 C 
ATOM     44  O   UNK A   5      -5.244  -1.290 141.537  0.00  0.00    +0.000 OA
ATOM     45  N   GLY A   6      -6.765  -0.585 139.990  0.00  0.00    +0.000 N 
ATOM     46  H   GLY A   6      -7.260  -0.745 139.116  0.00  0.00    +0.000 HD
BRANCH  45  47
ATOM     47  CA  GLY A   6      -7.094   0.670 140.692  0.00  0.00    +0.000 C 
BRANCH  47  48
ATOM     48  C   GLY A   6      -8.504   0.629 141.292  0.00  0.00    +0.000 C 
ATOM     49  O   GLY A   6      -9.299   1.555 141.184  0.00  0.00    +0.000 OA
BRANCH  48  50
ATOM     50  OXT GLY A   6      -8.831  -0.505 141.956  0.00  0.00    +0.000 OA
ATOM     51  HXT GLY A   6      -9.307  -1.204 141.468  0.00  0.00    +0.000 HD
ENDBRANCH  48  50
ENDBRANCH  47  48
ENDBRANCH  45  47
ENDBRANCH  42  43
BRANCH  42  52
ATOM     52  C   UNK A   5      -4.095  -2.961 139.372  0.00  0.00    +0.000 C 
BRANCH  52  53
ATOM     53  C   UNK A   5      -3.602  -1.984 138.313  0.00  0.00    +0.000 C 
BRANCH  53  54
ATOM     54  C   UNK A   5      -2.877  -2.598 137.147  0.00  0.00    +0.000 C 
BRANCH  54  55
ATOM     55  C   UNK A   5      -2.641  -1.528 136.083  0.00  0.00    +0.000 C 
BRANCH  55  56
ATOM     56  N   UNK A   5      -1.239  -1.435 135.735  0.00  0.00    +0.000 N 
ATOM     57  C   UNK A   5      -0.792  -1.893 134.515  0.00  0.00    +0.000 C 
ATOM     58  O   UNK A   5      -1.548  -2.392 133.685  0.00  0.00    +0.000 OA
ATOM     59  H   UNK A   5      -0.604  -1.004 136.393  0.00  0.00    +0.000 HD
BRANCH  57  60
ATOM     60  C   UNK A   5       0.702  -1.734 134.279  0.00  0.00    +0.000 C 
BRANCH  60  61
ATOM     61  C   UNK A   5       1.367  -3.110 134.216  0.00  0.00    +0.000 C 
BRANCH  61  62
ATOM     62  N   UNK A   5       0.826  -4.019 135.228  0.00  0.00    +0.000 NA
ATOM     63  H   UNK A   5       1.556  -4.261 135.896  0.00  0.00    +0.000 HD
ATOM     64  H   UNK A   5       0.566  -4.895 134.772  0.00  0.00    +0.000 HD
ENDBRANCH  61  62
ENDBRANCH  60  61
ENDBRANCH  57  60
ENDBRANCH  55  56
ENDBRANCH  54  55
ENDBRANCH  53  54
ENDBRANCH  52  53
ENDBRANCH  42  52
ENDBRANCH  40  42
ENDBRANCH  37  38
ENDBRANCH  18  31
BRANCH  22  65
ATOM     65  CB  ASN A   2      -6.427   1.286 130.871  0.00  0.00    +0.000 C 
BRANCH  65  66
ATOM     66  CG  ASN A   2      -7.836   1.196 130.989  0.00  0.00    +0.000 C 
ATOM     67  ND2 ASN A   2      -8.559   1.211 132.054  0.00  0.00    +0.000 N 
ATOM     68  OD1 ASN A   2      -8.521   1.224 129.967  0.00  0.00    +0.000 OA
ATOM     69 HD21 ASN A   2      -8.462   2.085 132.504  0.00  0.00    +0.000 HD
ATOM     70 HD22 ASN A   2      -9.543   1.047 131.898  0.00  0.00    +0.000 HD
ENDBRANCH  65  66
ENDBRANCH  22  65
BRANCH   9  71
ATOM     71  CB  TYR A   1      -3.096   4.287 129.841  0.00  0.00    +0.000 C 
BRANCH  71  72
ATOM     72  CG  TYR A   1      -2.103   5.036 130.930  0.00  0.00    +0.000 A 
ATOM     73  CD1 TYR A   1      -2.168   4.554 132.191  0.00  0.00    +0.000 A 
ATOM     74  CE1 TYR A   1      -1.979   5.277 133.377  0.00  0.00    +0.000 A 
ATOM     75  CZ  TYR A   1      -1.626   6.599 133.477  0.00  0.00    +0.000 A 
ATOM     76  CE2 TYR A   1      -1.528   7.197 132.237  0.00  0.00    +0.000 A 
ATOM     77  CD2 TYR A   1      -1.709   6.415 130.976  0.00  0.00    +0.000 A 
BRANCH  75  78
ATOM     78  OH  TYR A   1      -1.875   7.364 134.599  0.00  0.00    +0.000 OA
ATOM     79  HH  TYR A   1      -1.518   8.284 134.586  0.00  0.00    +0.000 HD
ENDBRANCH  75  78
ENDBRANCH  71  72
ENDBRANCH   9  71
BRANCH   5  80
ATOM     80  CB  TYR A   1      -5.911   3.994 126.130  0.00  0.00    +0.000 C 
BRANCH  80  81
ATOM     81  CG  TYR A   1      -6.222   3.716 124.693  0.00  0.00    +0.000 A 
ATOM     82  CD1 TYR A   1      -7.040   2.662 124.243  0.00  0.00    +0.000 A 
ATOM     83  CE1 TYR A   1      -6.998   2.181 122.962  0.00  0.00    +0.000 A 
ATOM     84  CZ  TYR A   1      -6.375   2.969 122.031  0.00  0.00    +0.000 A 
ATOM     85  CE2 TYR A   1      -5.634   4.090 122.430  0.00  0.00    +0.000 A 
ATOM     86  CD2 TYR A   1      -5.500   4.430 123.764  0.00  0.00    +0.000 A 
ENDBRANCH  80  81
ENDBRANCH   5  80
BRANCH   1  87
ATOM     87  CB  TYR A   1      -7.690  -0.844 127.731  0.00  0.00    +0.000 C 
BRANCH  87  89
ATOM     88  CD1 TYR A   1      -8.870  -1.557 125.781  0.00  0.00    +0.000 C 
ATOM     89  CG  TYR A   1      -8.169  -0.370 126.393  0.00  0.00    +0.000 C 
ATOM     90  CD2 TYR A   1      -9.138   0.785 126.495  0.00  0.00    +0.000 C 
ENDBRANCH  87  89
ENDBRANCH   1  87
TORSDOF 24
ENDMDL
MODEL 9
REMARK VINA RESULT:      -8.9      4.375     10.101
REMARK  Name = CHEMBL1765666
REMARK  26 active torsions:
REMARK  status: ('A' for Active; 'I' for Inactive)
REMARK    1  A    between atoms: CD1_1  and  CG_2
REMARK    2  A    between atoms: CG_2  and  CD2_3
REMARK    3  A    between atoms: CG_2  and  CB_4
REMARK    4  A    between atoms: CB_4  and  CA_5
REMARK    5  A    between atoms: CA_9  and  CB_10
REMARK    6  A    between atoms: CB_10  and  CG_11
REMARK    7  A    between atoms: CA_20  and  CB_21
REMARK    8  A    between atoms: CB_21  and  CG_22
REMARK    9  A    between atoms: CZ_25  and  OH_26
REMARK   10  A    between atoms: C_37  and  C_38
REMARK   11  A    between atoms: CA_44  and  C_45
REMARK   12  A    between atoms: N_47  and  C_48
REMARK   13  A    between atoms: C_48  and  C_49
REMARK   14  A    between atoms: C_48  and  C_59
REMARK   15  A    between atoms: C_49  and  C_50
REMARK   16  A    between atoms: C_50  and  C_51
REMARK   17  A    between atoms: C_51  and  C_52
REMARK   18  A    between atoms: C_52  and  N_53
REMARK   19  A    between atoms: C_54  and  C_56
REMARK   20  A    between atoms: C_56  and  C_57
REMARK   21  A    between atoms: C_57  and  N_58
REMARK   22  A    between atoms: N_61  and  CA_62
REMARK   23  A    between atoms: CA_62  and  C_63
REMARK   24  A    between atoms: C_63  and  OXT_65
REMARK   25  A    between atoms: CA_69  and  CB_70
REMARK   26  A    between atoms: CB_70  and  CG_71
REMARK                            x       y       z     vdW  Elec       q    Type
REMARK                         _______ _______ _______ _____ _____    ______ ____
ROOT
ATOM      1  CA  TYR A   1      -6.330  -0.140 128.059  0.00  0.00    +0.000 C 
ATOM      2  N   TYR A   1      -5.281   0.605 127.262  0.00  0.00    +0.000 N 
ATOM      3  C   TYR A   1      -5.006   1.946 127.081  0.00  0.00    +0.000 C 
ATOM      4  O   TYR A   1      -3.858   2.332 126.817  0.00  0.00    +0.000 OA
ATOM      5  CA  TYR A   1      -6.176   2.881 126.962  0.00  0.00    +0.000 C 
ATOM      6  N   TYR A   1      -6.761   3.388 128.147  0.00  0.00    +0.000 N 
ATOM      7  C   TYR A   1      -6.298   4.503 128.824  0.00  0.00    +0.000 C 
ATOM      8  O   TYR A   1      -7.176   5.027 129.528  0.00  0.00    +0.000 OA
ATOM      9  CA  TYR A   1      -4.515   4.896 128.857  0.00  0.00    +0.000 C 
ATOM     10  N   TYR A   1      -4.598   6.328 129.021  0.00  0.00    +0.000 N 
ATOM     11  C   UNK A   0      -4.969   7.035 130.123  0.00  0.00    +0.000 C 
ATOM     12  O   UNK A   0      -4.963   8.265 129.974  0.00  0.00    +0.000 OA
ATOM     13  C   UNK A   0      -5.378   6.479 131.528  0.00  0.00    +0.000 C 
ATOM     14  C   UNK A   0      -5.434   5.022 131.916  0.00  0.00    +0.000 C 
ATOM     15  S   UNK A   3      -6.185   4.368 133.514  0.00  0.00    +0.000 S 
ATOM     16  S   UNK A   3      -5.185   2.601 133.937  0.00  0.00    +0.000 S 
ATOM     17  C   UNK A   3      -6.169   1.065 134.176  0.00  0.00    +0.000 C 
ATOM     18  C   UNK A   3      -5.862  -0.448 133.975  0.00  0.00    +0.000 C 
ATOM     19  N   UNK A   3      -6.771  -1.032 132.966  0.00  0.00    +0.000 N 
ATOM     20  C   ASN A   2      -6.903  -0.714 131.664  0.00  0.00    +0.000 C 
ATOM     21  O   ASN A   2      -7.832  -1.104 130.965  0.00  0.00    +0.000 OA
ATOM     22  CA  ASN A   2      -5.805   0.047 131.066  0.00  0.00    +0.000 C 
ATOM     23  N   ASN A   2      -5.358  -0.956 130.076  0.00  0.00    +0.000 N 
ATOM     24  C   TYR A   1      -5.468  -1.121 128.740  0.00  0.00    +0.000 C 
ATOM     25  O   TYR A   1      -4.589  -1.755 128.145  0.00  0.00    +0.000 OA
ATOM     26  H   TYR A   1      -4.430   0.074 127.044  0.00  0.00    +0.000 HD
ATOM     27  H   TYR A   1      -7.641   2.996 128.468  0.00  0.00    +0.000 HD
ATOM     28  H   TYR A   1      -4.406   6.877 128.189  0.00  0.00    +0.000 HD
ATOM     29  H   UNK A   3      -7.471  -1.701 133.266  0.00  0.00    +0.000 HD
ATOM     30  H   ASN A   2      -4.436  -1.265 130.274  0.00  0.00    +0.000 HD
ENDROOT
BRANCH  18  31
ATOM     31  C   UNK A   3      -6.064  -1.255 135.323  0.00  0.00    +0.000 C 
ATOM     32  O   UNK A   3      -5.672  -0.752 136.382  0.00  0.00    +0.000 OA
ATOM     33  N   PRO A   4      -6.843  -2.413 135.300  0.00  0.00    +0.000 N 
ATOM     34  CD  PRO A   4      -6.788  -3.547 134.380  0.00  0.00    +0.000 C 
ATOM     35  CG  PRO A   4      -8.204  -4.035 134.405  0.00  0.00    +0.000 C 
ATOM     36  CB  PRO A   4      -8.508  -4.017 135.886  0.00  0.00    +0.000 C 
ATOM     37  CA  PRO A   4      -7.663  -2.856 136.461  0.00  0.00    +0.000 C 
BRANCH  37  38
ATOM     38  C   PRO A   4      -6.836  -3.508 137.586  0.00  0.00    +0.000 C 
ATOM     39  O   PRO A   4      -7.410  -4.020 138.549  0.00  0.00    +0.000 OA
ATOM     40  N   UNK A   5      -5.448  -3.410 137.506  0.00  0.00    +0.000 N 
ATOM     41  H   UNK A   5      -5.009  -2.738 136.883  0.00  0.00    +0.000 HD
BRANCH  40  42
ATOM     42  C   UNK A   5      -4.528  -4.150 138.419  0.00  0.00    +0.000 C 
BRANCH  42  43
ATOM     43  C   UNK A   5      -3.568  -3.166 139.186  0.00  0.00    +0.000 C 
ATOM     44  O   UNK A   5      -2.925  -3.540 140.170  0.00  0.00    +0.000 OA
ATOM     45  N   GLY A   6      -3.466  -1.866 138.719  0.00  0.00    +0.000 N 
ATOM     46  H   GLY A   6      -3.984  -1.552 137.902  0.00  0.00    +0.000 HD
BRANCH  45  47
ATOM     47  CA  GLY A   6      -2.618  -0.849 139.370  0.00  0.00    +0.000 C 
BRANCH  47  48
ATOM     48  C   GLY A   6      -3.075   0.573 139.023  0.00  0.00    +0.000 C 
ATOM     49  O   GLY A   6      -3.789   1.240 139.761  0.00  0.00    +0.000 OA
BRANCH  48  50
ATOM     50  OXT GLY A   6      -2.637   1.061 137.838  0.00  0.00    +0.000 OA
ATOM     51  HXT GLY A   6      -3.299   1.246 137.143  0.00  0.00    +0.000 HD
ENDBRANCH  48  50
ENDBRANCH  47  48
ENDBRANCH  45  47
ENDBRANCH  42  43
BRANCH  42  52
ATOM     52  C   UNK A   5      -3.678  -5.157 137.615  0.00  0.00    +0.000 C 
BRANCH  52  53
ATOM     53  C   UNK A   5      -3.423  -4.695 136.186  0.00  0.00    +0.000 C 
BRANCH  53  54
ATOM     54  C   UNK A   5      -3.615  -5.739 135.120  0.00  0.00    +0.000 C 
BRANCH  54  55
ATOM     55  C   UNK A   5      -3.481  -5.083 133.747  0.00  0.00    +0.000 C 
BRANCH  55  56
ATOM     56  N   UNK A   5      -2.877  -3.771 133.849  0.00  0.00    +0.000 N 
ATOM     57  C   UNK A   5      -3.285  -2.750 133.018  0.00  0.00    +0.000 C 
ATOM     58  O   UNK A   5      -4.161  -2.905 132.170  0.00  0.00    +0.000 OA
ATOM     59  H   UNK A   5      -2.174  -3.615 134.557  0.00  0.00    +0.000 HD
BRANCH  57  60
ATOM     60  C   UNK A   5      -2.570  -1.426 133.231  0.00  0.00    +0.000 C 
BRANCH  60  61
ATOM     61  C   UNK A   5      -1.750  -1.480 134.522  0.00  0.00    +0.000 C 
BRANCH  61  62
ATOM     62  N   UNK A   5      -2.551  -1.100 135.688  0.00  0.00    +0.000 NA
ATOM     63  H   UNK A   5      -2.853  -0.132 135.594  0.00  0.00    +0.000 HD
ATOM     64  H   UNK A   5      -1.952  -1.125 136.515  0.00  0.00    +0.000 HD
ENDBRANCH  61  62
ENDBRANCH  60  61
ENDBRANCH  57  60
ENDBRANCH  55  56
ENDBRANCH  54  55
ENDBRANCH  53  54
ENDBRANCH  52  53
ENDBRANCH  42  52
ENDBRANCH  40  42
ENDBRANCH  37  38
ENDBRANCH  18  31
BRANCH  22  65
ATOM     65  CB  ASN A   2      -6.359   1.425 130.815  0.00  0.00    +0.000 C 
BRANCH  65  66
ATOM     66  CG  ASN A   2      -7.768   1.352 130.946  0.00  0.00    +0.000 C 
ATOM     67  ND2 ASN A   2      -8.482   1.410 132.016  0.00  0.00    +0.000 N 
ATOM     68  OD1 ASN A   2      -8.461   1.353 129.929  0.00  0.00    +0.000 OA
ATOM     69 HD21 ASN A   2      -8.374   2.297 132.435  0.00  0.00    +0.000 HD
ATOM     70 HD22 ASN A   2      -9.470   1.250 131.872  0.00  0.00    +0.000 HD
ENDBRANCH  65  66
ENDBRANCH  22  65
BRANCH   9  71
ATOM     71  CB  TYR A   1      -3.009   4.360 129.664  0.00  0.00    +0.000 C 
BRANCH  71  72
ATOM     72  CG  TYR A   1      -2.050   5.082 130.801  0.00  0.00    +0.000 A 
ATOM     73  CD1 TYR A   1      -2.138   4.555 132.043  0.00  0.00    +0.000 A 
ATOM     74  CE1 TYR A   1      -1.984   5.237 133.257  0.00  0.00    +0.000 A 
ATOM     75  CZ  TYR A   1      -1.648   6.558 133.411  0.00  0.00    +0.000 A 
ATOM     76  CE2 TYR A   1      -1.530   7.201 132.195  0.00  0.00    +0.000 A 
ATOM     77  CD2 TYR A   1      -1.673   6.462 130.904  0.00  0.00    +0.000 A 
BRANCH  75  78
ATOM     78  OH  TYR A   1      -1.931   7.281 134.553  0.00  0.00    +0.000 OA
ATOM     79  HH  TYR A   1      -1.543   6.937 135.392  0.00  0.00    +0.000 HD
ENDBRANCH  75  78
ENDBRANCH  71  72
ENDBRANCH   9  71
BRANCH   5  80
ATOM     80  CB  TYR A   1      -5.884   4.012 126.003  0.00  0.00    +0.000 C 
BRANCH  80  81
ATOM     81  CG  TYR A   1      -5.980   3.628 124.561  0.00  0.00    +0.000 A 
ATOM     82  CD1 TYR A   1      -5.259   4.247 123.520  0.00  0.00    +0.000 A 
ATOM     83  CE1 TYR A   1      -5.635   4.171 122.206  0.00  0.00    +0.000 A 
ATOM     84  CZ  TYR A   1      -6.547   3.200 121.884  0.00  0.00    +0.000 A 
ATOM     85  CE2 TYR A   1      -7.212   2.487 122.891  0.00  0.00    +0.000 A 
ATOM     86  CD2 TYR A   1      -6.980   2.743 124.230  0.00  0.00    +0.000 A 
ENDBRANCH  80  81
ENDBRANCH   5  80
BRANCH   1  87
ATOM     87  CB  TYR A   1      -7.694  -0.764 127.746  0.00  0.00    +0.000 C 
BRANCH  87  89
ATOM     88  CD1 TYR A   1      -8.658  -1.782 125.813  0.00  0.00    +0.000 C 
ATOM     89  CG  TYR A   1      -8.095  -0.482 126.331  0.00  0.00    +0.000 C 
ATOM     90  CD2 TYR A   1      -9.149   0.597 126.226  0.00  0.00    +0.000 C 
ENDBRANCH  87  89
ENDBRANCH   1  87
TORSDOF 24
ENDMDL
