MODEL 1
REMARK VINA RESULT:     -11.3      0.000      0.000
REMARK  Name = CHEMBL2113213
REMARK  10 active torsions:
REMARK  status: ('A' for Active; 'I' for Inactive)
REMARK    1  A    between atoms: C_1  and  C_2
REMARK    2  A    between atoms: C_2  and  C_3
REMARK    3  A    between atoms: C_2  and  C_4
REMARK    4  A    between atoms: C_2  and  C_5
REMARK    5  A    between atoms: C_8  and  S_9
REMARK    6  A    between atoms: S_9  and  N_12
REMARK    7  A    between atoms: N_12  and  C_13
REMARK    8  A    between atoms: N_12  and  C_28
REMARK    9  A    between atoms: C_13  and  C_14
REMARK   10  A    between atoms: N_16  and  N_17
REMARK                            x       y       z     vdW  Elec       q    Type
REMARK                         _______ _______ _______ _____ _____    ______ ____
ROOT
ATOM      1  N   UNL     1      -8.640   2.091 123.468  0.00  0.00    +0.000 N 
ENDROOT
BRANCH   1   2
ATOM      2  C   UNL     1      -8.020   2.846 122.273  0.00  0.00    +0.000 A 
ATOM      3  C   UNL     1      -8.839   3.391 121.266  0.00  0.00    +0.000 A 
ATOM      4  C   UNL     1      -8.316   4.048 120.116  0.00  0.00    +0.000 A 
ATOM      5  C   UNL     1      -6.947   4.249 119.975  0.00  0.00    +0.000 A 
ATOM      6 CL   UNL     1      -6.330   5.158 118.645  0.00  0.00    +0.000 Cl
ATOM      7  C   UNL     1      -6.094   3.731 120.939  0.00  0.00    +0.000 A 
ATOM      8  C   UNL     1      -6.625   3.028 122.061  0.00  0.00    +0.000 A 
ENDBRANCH   1   2
BRANCH   1   9
ATOM      9  S   UNL     1      -8.239   2.814 125.033  0.00  0.00    +0.000 S 
ATOM     10  O   UNL     1      -8.834   1.947 126.035  0.00  0.00    +0.000 OA
ATOM     11  O   UNL     1      -8.655   4.206 124.974  0.00  0.00    +0.000 OA
BRANCH   9  15
ATOM     12  C   UNL     1      -4.248   3.267 127.074  0.00  0.00    +0.000 A 
ATOM     13  C   UNL     1      -4.660   1.984 126.810  0.00  0.00    +0.000 A 
ATOM     14  C   UNL     1      -5.864   1.792 126.096  0.00  0.00    +0.000 A 
ATOM     15  C   UNL     1      -6.516   2.879 125.487  0.00  0.00    +0.000 A 
ATOM     16  C   UNL     1      -5.820   4.031 125.438  0.00  0.00    +0.000 A 
ATOM     17  C   UNL     1      -5.026   4.245 126.540  0.00  0.00    +0.000 A 
BRANCH  12  19
ATOM     18  C   UNL     1      -1.780   3.145 126.999  0.00  0.00    +0.000 C 
ATOM     19  C   UNL     1      -2.993   3.777 127.738  0.00  0.00    +0.000 C 
ATOM     20  C   UNL     1      -3.196   3.572 129.284  0.00  0.00    +0.000 C 
ATOM     21  C   UNL     1      -2.853   5.274 127.632  0.00  0.00    +0.000 C 
ENDBRANCH  12  19
ENDBRANCH   9  15
ENDBRANCH   1   9
BRANCH   1  22
ATOM     22  C   UNL     1      -9.315   0.646 123.201  0.00  0.00    +0.000 C 
BRANCH  22  23
ATOM     23  C   UNL     1      -8.775  -0.789 123.940  0.00  0.00    +0.000 C 
ATOM     24  O   UNL     1      -8.103  -1.483 123.160  0.00  0.00    +0.000 OA
ATOM     25  N   UNL     1      -9.051  -1.192 125.509  0.00  0.00    +0.000 N 
ATOM     26  H   UNL     1     -10.041  -1.309 125.700  0.00  0.00    +0.000 HD
BRANCH  25  27
ATOM     27  N   UNL     1      -8.015  -2.121 126.553  0.00  0.00    +0.000 NA
ATOM     28  C   UNL     1      -7.250  -2.046 127.746  0.00  0.00    +0.000 C 
ATOM     29  C   UNL     1      -8.210  -2.860 128.661  0.00  0.00    +0.000 C 
ATOM     30  O   UNL     1      -8.273  -4.044 128.586  0.00  0.00    +0.000 OA
ATOM     31  N   UNL     1      -8.091  -2.205 129.862  0.00  0.00    +0.000 N 
ATOM     32  C   UNL     1      -6.854  -2.705 130.197  0.00  0.00    +0.000 A 
ATOM     33  C   UNL     1      -6.831  -3.171 131.564  0.00  0.00    +0.000 A 
ATOM     34  C   UNL     1      -5.832  -3.899 132.125  0.00  0.00    +0.000 A 
ATOM     35  C   UNL     1      -4.880  -4.187 131.177  0.00  0.00    +0.000 A 
ATOM     36  C   UNL     1      -4.977  -3.674 129.653  0.00  0.00    +0.000 A 
ATOM     37  C   UNL     1      -6.081  -2.877 129.032  0.00  0.00    +0.000 A 
ATOM     38  H   UNL     1      -7.969  -1.212 129.759  0.00  0.00    +0.000 HD
ENDBRANCH  25  27
ENDBRANCH  22  23
ENDBRANCH   1  22
TORSDOF 7
ENDMDL
MODEL 2
REMARK VINA RESULT:     -11.1      5.758      8.713
REMARK  Name = CHEMBL2113213
REMARK  10 active torsions:
REMARK  status: ('A' for Active; 'I' for Inactive)
REMARK    1  A    between atoms: C_1  and  C_2
REMARK    2  A    between atoms: C_2  and  C_3
REMARK    3  A    between atoms: C_2  and  C_4
REMARK    4  A    between atoms: C_2  and  C_5
REMARK    5  A    between atoms: C_8  and  S_9
REMARK    6  A    between atoms: S_9  and  N_12
REMARK    7  A    between atoms: N_12  and  C_13
REMARK    8  A    between atoms: N_12  and  C_28
REMARK    9  A    between atoms: C_13  and  C_14
REMARK   10  A    between atoms: N_16  and  N_17
REMARK                            x       y       z     vdW  Elec       q    Type
REMARK                         _______ _______ _______ _____ _____    ______ ____
ROOT
ATOM      1  N   UNL     1      -9.881   4.704 131.544  0.00  0.00    +0.000 N 
ENDROOT
BRANCH   1   2
ATOM      2  C   UNL     1     -10.608   5.920 130.930  0.00  0.00    +0.000 A 
ATOM      3  C   UNL     1     -11.914   6.254 131.336  0.00  0.00    +0.000 A 
ATOM      4  C   UNL     1     -12.649   7.331 130.763  0.00  0.00    +0.000 A 
ATOM      5  C   UNL     1     -12.067   8.160 129.810  0.00  0.00    +0.000 A 
ATOM      6 CL   UNL     1     -12.917   9.538 129.215  0.00  0.00    +0.000 Cl
ATOM      7  C   UNL     1     -10.782   7.874 129.374  0.00  0.00    +0.000 A 
ATOM      8  C   UNL     1     -10.071   6.761 129.916  0.00  0.00    +0.000 A 
ENDBRANCH   1   2
BRANCH   1   9
ATOM      9  S   UNL     1      -8.751   5.147 132.833  0.00  0.00    +0.000 S 
ATOM     10  O   UNL     1      -8.680   3.993 133.711  0.00  0.00    +0.000 OA
ATOM     11  O   UNL     1      -9.208   6.415 133.377  0.00  0.00    +0.000 OA
BRANCH   9  15
ATOM     12  C   UNL     1      -4.713   6.855 131.799  0.00  0.00    +0.000 A 
ATOM     13  C   UNL     1      -4.809   6.187 132.996  0.00  0.00    +0.000 A 
ATOM     14  C   UNL     1      -6.031   5.561 133.325  0.00  0.00    +0.000 A 
ATOM     15  C   UNL     1      -7.055   5.441 132.370  0.00  0.00    +0.000 A 
ATOM     16  C   UNL     1      -6.716   5.746 131.102  0.00  0.00    +0.000 A 
ATOM     17  C   UNL     1      -5.812   6.776 131.004  0.00  0.00    +0.000 A 
BRANCH  12  19
ATOM     18  C   UNL     1      -2.702   8.210 132.282  0.00  0.00    +0.000 C 
ATOM     19  C   UNL     1      -3.537   7.544 131.152  0.00  0.00    +0.000 C 
ATOM     20  C   UNL     1      -4.121   8.398 129.967  0.00  0.00    +0.000 C 
ATOM     21  C   UNL     1      -2.630   6.580 130.431  0.00  0.00    +0.000 C 
ENDBRANCH  12  19
ENDBRANCH   9  15
ENDBRANCH   1   9
BRANCH   1  22
ATOM     22  C   UNL     1     -10.008   3.274 130.802  0.00  0.00    +0.000 C 
BRANCH  22  23
ATOM     23  C   UNL     1      -8.915   2.738 129.611  0.00  0.00    +0.000 C 
ATOM     24  O   UNL     1      -8.682   1.522 129.716  0.00  0.00    +0.000 OA
ATOM     25  N   UNL     1      -8.285   3.686 128.427  0.00  0.00    +0.000 N 
ATOM     26  H   UNL     1      -7.711   4.433 128.806  0.00  0.00    +0.000 HD
BRANCH  25  27
ATOM     27  N   UNL     1      -7.838   3.200 126.818  0.00  0.00    +0.000 NA
ATOM     28  C   UNL     1      -7.633   3.694 125.503  0.00  0.00    +0.000 C 
ATOM     29  C   UNL     1      -6.077   3.646 125.503  0.00  0.00    +0.000 C 
ATOM     30  O   UNL     1      -5.495   2.619 125.381  0.00  0.00    +0.000 OA
ATOM     31  N   UNL     1      -5.753   4.767 124.777  0.00  0.00    +0.000 N 
ATOM     32  C   UNL     1      -6.073   4.256 123.541  0.00  0.00    +0.000 A 
ATOM     33  C   UNL     1      -5.031   4.526 122.577  0.00  0.00    +0.000 A 
ATOM     34  C   UNL     1      -4.953   3.981 121.337  0.00  0.00    +0.000 A 
ATOM     35  C   UNL     1      -5.975   3.080 121.161  0.00  0.00    +0.000 A 
ATOM     36  C   UNL     1      -7.089   2.787 122.288  0.00  0.00    +0.000 A 
ATOM     37  C   UNL     1      -7.172   3.383 123.659  0.00  0.00    +0.000 A 
ATOM     38  H   UNL     1      -6.386   5.533 124.932  0.00  0.00    +0.000 HD
ENDBRANCH  25  27
ENDBRANCH  22  23
ENDBRANCH   1  22
TORSDOF 7
ENDMDL
MODEL 3
REMARK VINA RESULT:     -10.9      6.317     10.111
REMARK  Name = CHEMBL2113213
REMARK  10 active torsions:
REMARK  status: ('A' for Active; 'I' for Inactive)
REMARK    1  A    between atoms: C_1  and  C_2
REMARK    2  A    between atoms: C_2  and  C_3
REMARK    3  A    between atoms: C_2  and  C_4
REMARK    4  A    between atoms: C_2  and  C_5
REMARK    5  A    between atoms: C_8  and  S_9
REMARK    6  A    between atoms: S_9  and  N_12
REMARK    7  A    between atoms: N_12  and  C_13
REMARK    8  A    between atoms: N_12  and  C_28
REMARK    9  A    between atoms: C_13  and  C_14
REMARK   10  A    between atoms: N_16  and  N_17
REMARK                            x       y       z     vdW  Elec       q    Type
REMARK                         _______ _______ _______ _____ _____    ______ ____
ROOT
ATOM      1  N   UNL     1      -8.188   0.809 129.943  0.00  0.00    +0.000 N 
ENDROOT
BRANCH   1   2
ATOM      2  C   UNL     1      -7.518  -0.576 130.072  0.00  0.00    +0.000 A 
ATOM      3  C   UNL     1      -8.212  -1.744 129.709  0.00  0.00    +0.000 A 
ATOM      4  C   UNL     1      -7.660  -3.049 129.859  0.00  0.00    +0.000 A 
ATOM      5  C   UNL     1      -6.356  -3.220 130.312  0.00  0.00    +0.000 A 
ATOM      6 CL   UNL     1      -5.651  -4.794 130.369  0.00  0.00    +0.000 Cl
ATOM      7  C   UNL     1      -5.628  -2.100 130.685  0.00  0.00    +0.000 A 
ATOM      8  C   UNL     1      -6.208  -0.800 130.580  0.00  0.00    +0.000 A 
ENDBRANCH   1   2
BRANCH   1   9
ATOM      9  S   UNL     1      -7.780   1.643 128.436  0.00  0.00    +0.000 S 
ATOM     10  O   UNL     1      -6.396   2.060 128.576  0.00  0.00    +0.000 OA
ATOM     11  O   UNL     1      -8.800   2.658 128.226  0.00  0.00    +0.000 OA
BRANCH   9  15
ATOM     12  C   UNL     1      -8.000  -1.560 125.276  0.00  0.00    +0.000 A 
ATOM     13  C   UNL     1      -9.040  -0.665 125.316  0.00  0.00    +0.000 A 
ATOM     14  C   UNL     1      -8.976   0.408 126.233  0.00  0.00    +0.000 A 
ATOM     15  C   UNL     1      -7.791   0.678 126.938  0.00  0.00    +0.000 A 
ATOM     16  C   UNL     1      -6.695   0.012 126.525  0.00  0.00    +0.000 A 
ATOM     17  C   UNL     1      -6.955  -1.268 126.095  0.00  0.00    +0.000 A 
BRANCH  12  19
ATOM     18  C   UNL     1      -8.295  -4.008 125.091  0.00  0.00    +0.000 C 
ATOM     19  C   UNL     1      -7.755  -2.741 124.369  0.00  0.00    +0.000 C 
ATOM     20  C   UNL     1      -6.253  -2.647 123.916  0.00  0.00    +0.000 C 
ATOM     21  C   UNL     1      -8.490  -2.623 123.059  0.00  0.00    +0.000 C 
ENDBRANCH  12  19
ENDBRANCH   9  15
ENDBRANCH   1   9
BRANCH   1  22
ATOM     22  C   UNL     1      -8.919   1.436 131.242  0.00  0.00    +0.000 C 
BRANCH  22  23
ATOM     23  C   UNL     1      -9.639   2.979 131.258  0.00  0.00    +0.000 C 
ATOM     24  O   UNL     1      -8.975   3.788 131.927  0.00  0.00    +0.000 OA
ATOM     25  N   UNL     1     -11.009   3.378 130.444  0.00  0.00    +0.000 N 
ATOM     26  H   UNL     1     -11.812   2.854 130.776  0.00  0.00    +0.000 HD
BRANCH  25  27
ATOM     27  N   UNL     1     -11.409   4.925 129.757  0.00  0.00    +0.000 NA
ATOM     28  C   UNL     1     -12.359   5.978 129.817  0.00  0.00    +0.000 C 
ATOM     29  C   UNL     1     -11.480   7.009 130.582  0.00  0.00    +0.000 C 
ATOM     30  O   UNL     1     -10.614   7.606 130.029  0.00  0.00    +0.000 OA
ATOM     31  N   UNL     1     -12.399   7.629 131.393  0.00  0.00    +0.000 N 
ATOM     32  C   UNL     1     -12.986   8.396 130.415  0.00  0.00    +0.000 A 
ATOM     33  C   UNL     1     -13.140   9.766 130.846  0.00  0.00    +0.000 A 
ATOM     34  C   UNL     1     -13.492  10.803 130.045  0.00  0.00    +0.000 A 
ATOM     35  C   UNL     1     -13.612  10.367 128.748  0.00  0.00    +0.000 A 
ATOM     36  C   UNL     1     -13.389   8.831 128.316  0.00  0.00    +0.000 A 
ATOM     37  C   UNL     1     -12.994   7.688 129.197  0.00  0.00    +0.000 A 
ATOM     38  H   UNL     1     -13.115   7.005 131.724  0.00  0.00    +0.000 HD
ENDBRANCH  25  27
ENDBRANCH  22  23
ENDBRANCH   1  22
TORSDOF 7
ENDMDL
MODEL 4
REMARK VINA RESULT:     -10.8      6.002      9.662
REMARK  Name = CHEMBL2113213
REMARK  10 active torsions:
REMARK  status: ('A' for Active; 'I' for Inactive)
REMARK    1  A    between atoms: C_1  and  C_2
REMARK    2  A    between atoms: C_2  and  C_3
REMARK    3  A    between atoms: C_2  and  C_4
REMARK    4  A    between atoms: C_2  and  C_5
REMARK    5  A    between atoms: C_8  and  S_9
REMARK    6  A    between atoms: S_9  and  N_12
REMARK    7  A    between atoms: N_12  and  C_13
REMARK    8  A    between atoms: N_12  and  C_28
REMARK    9  A    between atoms: C_13  and  C_14
REMARK   10  A    between atoms: N_16  and  N_17
REMARK                            x       y       z     vdW  Elec       q    Type
REMARK                         _______ _______ _______ _____ _____    ______ ____
ROOT
ATOM      1  N   UNL     1      -7.449   4.527 131.680  0.00  0.00    +0.000 N 
ENDROOT
BRANCH   1   2
ATOM      2  C   UNL     1      -6.213   5.442 131.815  0.00  0.00    +0.000 A 
ATOM      3  C   UNL     1      -5.923   6.405 130.831  0.00  0.00    +0.000 A 
ATOM      4  C   UNL     1      -4.767   7.236 130.880  0.00  0.00    +0.000 A 
ATOM      5  C   UNL     1      -3.898   7.180 131.965  0.00  0.00    +0.000 A 
ATOM      6 CL   UNL     1      -2.572   8.277 132.080  0.00  0.00    +0.000 Cl
ATOM      7  C   UNL     1      -4.138   6.247 132.963  0.00  0.00    +0.000 A 
ATOM      8  C   UNL     1      -5.270   5.382 132.879  0.00  0.00    +0.000 A 
ENDBRANCH   1   2
BRANCH   1   9
ATOM      9  S   UNL     1      -8.876   5.155 132.518  0.00  0.00    +0.000 S 
ATOM     10  O   UNL     1      -8.369   5.909 133.651  0.00  0.00    +0.000 OA
ATOM     11  O   UNL     1      -9.752   4.022 132.766  0.00  0.00    +0.000 OA
BRANCH   9  15
ATOM     12  C   UNL     1     -11.581   7.349 129.661  0.00  0.00    +0.000 A 
ATOM     13  C   UNL     1     -12.114   7.024 130.885  0.00  0.00    +0.000 A 
ATOM     14  C   UNL     1     -11.280   6.411 131.846  0.00  0.00    +0.000 A 
ATOM     15  C   UNL     1      -9.892   6.326 131.640  0.00  0.00    +0.000 A 
ATOM     16  C   UNL     1      -9.404   7.046 130.611  0.00  0.00    +0.000 A 
ATOM     17  C   UNL     1     -10.250   7.108 129.529  0.00  0.00    +0.000 A 
BRANCH  12  19
ATOM     18  C   UNL     1     -11.116   8.137 127.365  0.00  0.00    +0.000 C 
ATOM     19  C   UNL     1     -12.193   8.065 128.483  0.00  0.00    +0.000 C 
ATOM     20  C   UNL     1     -12.855   9.372 129.055  0.00  0.00    +0.000 C 
ATOM     21  C   UNL     1     -13.381   7.330 127.916  0.00  0.00    +0.000 C 
ENDBRANCH  12  19
ENDBRANCH   9  15
ENDBRANCH   1   9
BRANCH   1  22
ATOM     22  C   UNL     1      -7.248   3.046 131.064  0.00  0.00    +0.000 C 
BRANCH  22  23
ATOM     23  C   UNL     1      -7.123   2.736 129.395  0.00  0.00    +0.000 C 
ATOM     24  O   UNL     1      -8.093   2.084 128.974  0.00  0.00    +0.000 OA
ATOM     25  N   UNL     1      -5.904   3.277 128.434  0.00  0.00    +0.000 N 
ATOM     26  H   UNL     1      -5.007   2.890 128.709  0.00  0.00    +0.000 HD
BRANCH  25  27
ATOM     27  N   UNL     1      -6.005   3.704 126.751  0.00  0.00    +0.000 NA
ATOM     28  C   UNL     1      -6.265   3.171 125.462  0.00  0.00    +0.000 C 
ATOM     29  C   UNL     1      -7.689   3.768 125.272  0.00  0.00    +0.000 C 
ATOM     30  O   UNL     1      -7.843   4.915 125.004  0.00  0.00    +0.000 OA
ATOM     31  N   UNL     1      -8.338   2.762 124.598  0.00  0.00    +0.000 N 
ATOM     32  C   UNL     1      -7.750   2.983 123.374  0.00  0.00    +0.000 A 
ATOM     33  C   UNL     1      -8.733   2.994 122.316  0.00  0.00    +0.000 A 
ATOM     34  C   UNL     1      -8.501   3.387 121.038  0.00  0.00    +0.000 A 
ATOM     35  C   UNL     1      -7.210   3.840 120.919  0.00  0.00    +0.000 A 
ATOM     36  C   UNL     1      -6.166   3.842 122.146  0.00  0.00    +0.000 A 
ATOM     37  C   UNL     1      -6.422   3.415 123.557  0.00  0.00    +0.000 A 
ATOM     38  H   UNL     1      -8.045   1.844 124.884  0.00  0.00    +0.000 HD
ENDBRANCH  25  27
ENDBRANCH  22  23
ENDBRANCH   1  22
TORSDOF 7
ENDMDL
MODEL 5
REMARK VINA RESULT:     -10.7      5.856      7.731
REMARK  Name = CHEMBL2113213
REMARK  10 active torsions:
REMARK  status: ('A' for Active; 'I' for Inactive)
REMARK    1  A    between atoms: C_1  and  C_2
REMARK    2  A    between atoms: C_2  and  C_3
REMARK    3  A    between atoms: C_2  and  C_4
REMARK    4  A    between atoms: C_2  and  C_5
REMARK    5  A    between atoms: C_8  and  S_9
REMARK    6  A    between atoms: S_9  and  N_12
REMARK    7  A    between atoms: N_12  and  C_13
REMARK    8  A    between atoms: N_12  and  C_28
REMARK    9  A    between atoms: C_13  and  C_14
REMARK   10  A    between atoms: N_16  and  N_17
REMARK                            x       y       z     vdW  Elec       q    Type
REMARK                         _______ _______ _______ _____ _____    ______ ____
ROOT
ATOM      1  N   UNL     1     -10.097   4.828 131.302  0.00  0.00    +0.000 N 
ENDROOT
BRANCH   1   2
ATOM      2  C   UNL     1     -10.813   6.081 130.755  0.00  0.00    +0.000 A 
ATOM      3  C   UNL     1     -12.070   6.466 131.259  0.00  0.00    +0.000 A 
ATOM      4  C   UNL     1     -12.797   7.581 130.752  0.00  0.00    +0.000 A 
ATOM      5  C   UNL     1     -12.249   8.397 129.768  0.00  0.00    +0.000 A 
ATOM      6 CL   UNL     1     -13.079   9.819 129.250  0.00  0.00    +0.000 Cl
ATOM      7  C   UNL     1     -11.013   8.062 129.236  0.00  0.00    +0.000 A 
ATOM      8  C   UNL     1     -10.315   6.913 129.713  0.00  0.00    +0.000 A 
ENDBRANCH   1   2
BRANCH   1   9
ATOM      9  S   UNL     1      -8.963   5.189 132.611  0.00  0.00    +0.000 S 
ATOM     10  O   UNL     1      -8.948   4.010 133.460  0.00  0.00    +0.000 OA
ATOM     11  O   UNL     1      -9.372   6.461 133.185  0.00  0.00    +0.000 OA
BRANCH   9  15
ATOM     12  C   UNL     1      -4.838   6.750 131.693  0.00  0.00    +0.000 A 
ATOM     13  C   UNL     1      -4.973   6.015 132.846  0.00  0.00    +0.000 A 
ATOM     14  C   UNL     1      -6.228   5.433 133.134  0.00  0.00    +0.000 A 
ATOM     15  C   UNL     1      -7.252   5.424 132.171  0.00  0.00    +0.000 A 
ATOM     16  C   UNL     1      -6.891   5.789 130.925  0.00  0.00    +0.000 A 
ATOM     17  C   UNL     1      -5.936   6.777 130.893  0.00  0.00    +0.000 A 
BRANCH  12  19
ATOM     18  C   UNL     1      -4.124   8.393 129.990  0.00  0.00    +0.000 C 
ATOM     19  C   UNL     1      -3.625   7.417 131.092  0.00  0.00    +0.000 C 
ATOM     20  C   UNL     1      -2.609   6.265 130.754  0.00  0.00    +0.000 C 
ATOM     21  C   UNL     1      -2.857   8.232 132.101  0.00  0.00    +0.000 C 
ENDBRANCH  12  19
ENDBRANCH   9  15
ENDBRANCH   1   9
BRANCH   1  22
ATOM     22  C   UNL     1     -10.239   3.441 130.484  0.00  0.00    +0.000 C 
BRANCH  22  23
ATOM     23  C   UNL     1      -8.908   2.471 130.050  0.00  0.00    +0.000 C 
ATOM     24  O   UNL     1      -8.831   1.453 130.759  0.00  0.00    +0.000 OA
ATOM     25  N   UNL     1      -7.880   2.796 128.811  0.00  0.00    +0.000 N 
ATOM     26  H   UNL     1      -7.370   3.661 128.960  0.00  0.00    +0.000 HD
BRANCH  25  27
ATOM     27  N   UNL     1      -7.043   1.646 127.811  0.00  0.00    +0.000 NA
ATOM     28  C   UNL     1      -7.246   0.541 126.943  0.00  0.00    +0.000 C 
ATOM     29  C   UNL     1      -6.981   1.279 125.599  0.00  0.00    +0.000 C 
ATOM     30  O   UNL     1      -5.877   1.550 125.255  0.00  0.00    +0.000 OA
ATOM     31  N   UNL     1      -7.888   0.682 124.757  0.00  0.00    +0.000 N 
ATOM     32  C   UNL     1      -7.204  -0.500 124.595  0.00  0.00    +0.000 A 
ATOM     33  C   UNL     1      -7.139  -0.880 123.203  0.00  0.00    +0.000 A 
ATOM     34  C   UNL     1      -6.365  -1.875 122.700  0.00  0.00    +0.000 A 
ATOM     35  C   UNL     1      -5.600  -2.420 123.703  0.00  0.00    +0.000 A 
ATOM     36  C   UNL     1      -5.685  -1.928 125.235  0.00  0.00    +0.000 A 
ATOM     37  C   UNL     1      -6.533  -0.826 125.789  0.00  0.00    +0.000 A 
ATOM     38  H   UNL     1      -8.751   0.442 125.214  0.00  0.00    +0.000 HD
ENDBRANCH  25  27
ENDBRANCH  22  23
ENDBRANCH   1  22
TORSDOF 7
ENDMDL
MODEL 6
REMARK VINA RESULT:     -10.4      4.977      8.150
REMARK  Name = CHEMBL2113213
REMARK  10 active torsions:
REMARK  status: ('A' for Active; 'I' for Inactive)
REMARK    1  A    between atoms: C_1  and  C_2
REMARK    2  A    between atoms: C_2  and  C_3
REMARK    3  A    between atoms: C_2  and  C_4
REMARK    4  A    between atoms: C_2  and  C_5
REMARK    5  A    between atoms: C_8  and  S_9
REMARK    6  A    between atoms: S_9  and  N_12
REMARK    7  A    between atoms: N_12  and  C_13
REMARK    8  A    between atoms: N_12  and  C_28
REMARK    9  A    between atoms: C_13  and  C_14
REMARK   10  A    between atoms: N_16  and  N_17
REMARK                            x       y       z     vdW  Elec       q    Type
REMARK                         _______ _______ _______ _____ _____    ______ ____
ROOT
ATOM      1  N   UNL     1      -8.259   3.524 131.120  0.00  0.00    +0.000 N 
ENDROOT
BRANCH   1   2
ATOM      2  C   UNL     1      -9.445   4.507 131.214  0.00  0.00    +0.000 A 
ATOM      3  C   UNL     1      -9.496   5.474 132.236  0.00  0.00    +0.000 A 
ATOM      4  C   UNL     1     -10.592   6.368 132.400  0.00  0.00    +0.000 A 
ATOM      5  C   UNL     1     -11.646   6.372 131.492  0.00  0.00    +0.000 A 
ATOM      6 CL   UNL     1     -12.906   7.543 131.622  0.00  0.00    +0.000 Cl
ATOM      7  C   UNL     1     -11.646   5.439 130.466  0.00  0.00    +0.000 A 
ATOM      8  C   UNL     1     -10.568   4.512 130.341  0.00  0.00    +0.000 A 
ENDBRANCH   1   2
BRANCH   1   9
ATOM      9  S   UNL     1      -8.367   2.189 132.277  0.00  0.00    +0.000 S 
ATOM     10  O   UNL     1      -9.684   2.294 132.881  0.00  0.00    +0.000 OA
ATOM     11  O   UNL     1      -7.195   2.274 133.132  0.00  0.00    +0.000 OA
BRANCH   9  15
ATOM     12  C   UNL     1      -7.312  -1.764 130.390  0.00  0.00    +0.000 A 
ATOM     13  C   UNL     1      -7.467  -1.757 131.755  0.00  0.00    +0.000 A 
ATOM     14  C   UNL     1      -7.880  -0.561 132.383  0.00  0.00    +0.000 A 
ATOM     15  C   UNL     1      -8.326   0.532 131.621  0.00  0.00    +0.000 A 
ATOM     16  C   UNL     1      -8.541   0.289 130.313  0.00  0.00    +0.000 A 
ATOM     17  C   UNL     1      -7.655  -0.607 129.764  0.00  0.00    +0.000 A 
BRANCH  12  19
ATOM     18  C   UNL     1      -5.853  -2.369 128.488  0.00  0.00    +0.000 C 
ATOM     19  C   UNL     1      -6.960  -2.889 129.448  0.00  0.00    +0.000 C 
ATOM     20  C   UNL     1      -8.323  -3.440 128.889  0.00  0.00    +0.000 C 
ATOM     21  C   UNL     1      -6.404  -4.090 130.168  0.00  0.00    +0.000 C 
ENDBRANCH  12  19
ENDBRANCH   9  15
ENDBRANCH   1   9
BRANCH   1  22
ATOM     22  C   UNL     1      -6.979   3.944 130.227  0.00  0.00    +0.000 C 
BRANCH  22  23
ATOM     23  C   UNL     1      -6.741   3.415 128.626  0.00  0.00    +0.000 C 
ATOM     24  O   UNL     1      -5.593   2.973 128.453  0.00  0.00    +0.000 OA
ATOM     25  N   UNL     1      -7.897   3.426 127.458  0.00  0.00    +0.000 N 
ATOM     26  H   UNL     1      -8.207   4.368 127.242  0.00  0.00    +0.000 HD
BRANCH  25  27
ATOM     27  N   UNL     1      -8.068   2.305 126.139  0.00  0.00    +0.000 NA
ATOM     28  C   UNL     1      -7.774   0.976 125.738  0.00  0.00    +0.000 C 
ATOM     29  C   UNL     1      -9.211   0.394 125.874  0.00  0.00    +0.000 C 
ATOM     30  O   UNL     1     -10.046   0.625 125.062  0.00  0.00    +0.000 OA
ATOM     31  N   UNL     1      -8.967  -0.876 126.339  0.00  0.00    +0.000 N 
ATOM     32  C   UNL     1      -8.537  -1.404 125.144  0.00  0.00    +0.000 A 
ATOM     33  C   UNL     1      -9.166  -2.677 124.878  0.00  0.00    +0.000 A 
ATOM     34  C   UNL     1      -9.109  -3.346 123.698  0.00  0.00    +0.000 A 
ATOM     35  C   UNL     1      -8.424  -2.597 122.773  0.00  0.00    +0.000 A 
ATOM     36  C   UNL     1      -7.776  -1.161 123.114  0.00  0.00    +0.000 A 
ATOM     37  C   UNL     1      -7.844  -0.420 124.412  0.00  0.00    +0.000 A 
ATOM     38  H   UNL     1      -8.179  -0.922 126.961  0.00  0.00    +0.000 HD
ENDBRANCH  25  27
ENDBRANCH  22  23
ENDBRANCH   1  22
TORSDOF 7
ENDMDL
MODEL 7
REMARK VINA RESULT:     -10.3      5.808      9.338
REMARK  Name = CHEMBL2113213
REMARK  10 active torsions:
REMARK  status: ('A' for Active; 'I' for Inactive)
REMARK    1  A    between atoms: C_1  and  C_2
REMARK    2  A    between atoms: C_2  and  C_3
REMARK    3  A    between atoms: C_2  and  C_4
REMARK    4  A    between atoms: C_2  and  C_5
REMARK    5  A    between atoms: C_8  and  S_9
REMARK    6  A    between atoms: S_9  and  N_12
REMARK    7  A    between atoms: N_12  and  C_13
REMARK    8  A    between atoms: N_12  and  C_28
REMARK    9  A    between atoms: C_13  and  C_14
REMARK   10  A    between atoms: N_16  and  N_17
REMARK                            x       y       z     vdW  Elec       q    Type
REMARK                         _______ _______ _______ _____ _____    ______ ____
ROOT
ATOM      1  N   UNL     1      -7.432   0.465 130.584  0.00  0.00    +0.000 N 
ENDROOT
BRANCH   1   2
ATOM      2  C   UNL     1      -7.354   1.194 129.225  0.00  0.00    +0.000 A 
ATOM      3  C   UNL     1      -6.188   1.887 128.850  0.00  0.00    +0.000 A 
ATOM      4  C   UNL     1      -6.083   2.620 127.633  0.00  0.00    +0.000 A 
ATOM      5  C   UNL     1      -7.125   2.620 126.712  0.00  0.00    +0.000 A 
ATOM      6 CL   UNL     1      -6.943   3.402 125.185  0.00  0.00    +0.000 Cl
ATOM      7  C   UNL     1      -8.298   1.952 127.033  0.00  0.00    +0.000 A 
ATOM      8  C   UNL     1      -8.413   1.263 128.278  0.00  0.00    +0.000 A 
ENDBRANCH   1   2
BRANCH   1   9
ATOM      9  S   UNL     1      -6.810  -1.191 130.523  0.00  0.00    +0.000 S 
ATOM     10  O   UNL     1      -7.775  -2.003 131.244  0.00  0.00    +0.000 OA
ATOM     11  O   UNL     1      -5.438  -1.144 131.000  0.00  0.00    +0.000 OA
BRANCH   9  15
ATOM     12  C   UNL     1      -6.849  -2.255 126.146  0.00  0.00    +0.000 A 
ATOM     13  C   UNL     1      -5.615  -2.124 126.735  0.00  0.00    +0.000 A 
ATOM     14  C   UNL     1      -5.551  -1.875 128.124  0.00  0.00    +0.000 A 
ATOM     15  C   UNL     1      -6.704  -1.967 128.922  0.00  0.00    +0.000 A 
ATOM     16  C   UNL     1      -7.785  -2.513 128.334  0.00  0.00    +0.000 A 
ATOM     17  C   UNL     1      -7.905  -2.203 127.000  0.00  0.00    +0.000 A 
BRANCH  12  19
ATOM     18  C   UNL     1      -8.388  -3.623 124.778  0.00  0.00    +0.000 C 
ATOM     19  C   UNL     1      -7.227  -2.590 124.724  0.00  0.00    +0.000 C 
ATOM     20  C   UNL     1      -5.884  -2.920 123.976  0.00  0.00    +0.000 C 
ATOM     21  C   UNL     1      -7.728  -1.390 123.962  0.00  0.00    +0.000 C 
ENDBRANCH  12  19
ENDBRANCH   9  15
ENDBRANCH   1   9
BRANCH   1  22
ATOM     22  C   UNL     1      -8.280   1.149 131.777  0.00  0.00    +0.000 C 
BRANCH  22  23
ATOM     23  C   UNL     1      -8.965   2.704 131.666  0.00  0.00    +0.000 C 
ATOM     24  O   UNL     1      -8.202   3.575 132.115  0.00  0.00    +0.000 OA
ATOM     25  N   UNL     1     -10.429   3.033 130.997  0.00  0.00    +0.000 N 
ATOM     26  H   UNL     1     -11.187   2.591 131.509  0.00  0.00    +0.000 HD
BRANCH  25  27
ATOM     27  N   UNL     1     -10.897   4.481 130.154  0.00  0.00    +0.000 NA
ATOM     28  C   UNL     1     -11.918   5.463 130.072  0.00  0.00    +0.000 C 
ATOM     29  C   UNL     1     -11.155   6.618 130.781  0.00  0.00    +0.000 C 
ATOM     30  O   UNL     1     -10.304   7.227 130.219  0.00  0.00    +0.000 OA
ATOM     31  N   UNL     1     -12.157   7.237 131.487  0.00  0.00    +0.000 N 
ATOM     32  C   UNL     1     -12.742   7.871 130.416  0.00  0.00    +0.000 A 
ATOM     33  C   UNL     1     -13.012   9.259 130.713  0.00  0.00    +0.000 A 
ATOM     34  C   UNL     1     -13.390  10.193 129.804  0.00  0.00    +0.000 A 
ATOM     35  C   UNL     1     -13.409   9.638 128.548  0.00  0.00    +0.000 A 
ATOM     36  C   UNL     1     -13.058   8.090 128.269  0.00  0.00    +0.000 A 
ATOM     37  C   UNL     1     -12.635   7.060 129.269  0.00  0.00    +0.000 A 
ATOM     38  H   UNL     1     -12.846   6.595 131.838  0.00  0.00    +0.000 HD
ENDBRANCH  25  27
ENDBRANCH  22  23
ENDBRANCH   1  22
TORSDOF 7
ENDMDL
MODEL 8
REMARK VINA RESULT:     -10.3      5.830      6.947
REMARK  Name = CHEMBL2113213
REMARK  10 active torsions:
REMARK  status: ('A' for Active; 'I' for Inactive)
REMARK    1  A    between atoms: C_1  and  C_2
REMARK    2  A    between atoms: C_2  and  C_3
REMARK    3  A    between atoms: C_2  and  C_4
REMARK    4  A    between atoms: C_2  and  C_5
REMARK    5  A    between atoms: C_8  and  S_9
REMARK    6  A    between atoms: S_9  and  N_12
REMARK    7  A    between atoms: N_12  and  C_13
REMARK    8  A    between atoms: N_12  and  C_28
REMARK    9  A    between atoms: C_13  and  C_14
REMARK   10  A    between atoms: N_16  and  N_17
REMARK                            x       y       z     vdW  Elec       q    Type
REMARK                         _______ _______ _______ _____ _____    ______ ____
ROOT
ATOM      1  N   UNL     1      -9.425   5.121 130.611  0.00  0.00    +0.000 N 
ENDROOT
BRANCH   1   2
ATOM      2  C   UNL     1     -10.434   6.203 130.169  0.00  0.00    +0.000 A 
ATOM      3  C   UNL     1     -10.014   7.302 129.396  0.00  0.00    +0.000 A 
ATOM      4  C   UNL     1     -10.892   8.354 129.009  0.00  0.00    +0.000 A 
ATOM      5  C   UNL     1     -12.245   8.301 129.322  0.00  0.00    +0.000 A 
ATOM      6 CL   UNL     1     -13.326   9.514 128.740  0.00  0.00    +0.000 Cl
ATOM      7  C   UNL     1     -12.712   7.240 130.084  0.00  0.00    +0.000 A 
ATOM      8  C   UNL     1     -11.815   6.216 130.512  0.00  0.00    +0.000 A 
ENDBRANCH   1   2
BRANCH   1   9
ATOM      9  S   UNL     1      -8.646   5.485 132.157  0.00  0.00    +0.000 S 
ATOM     10  O   UNL     1      -8.464   4.205 132.820  0.00  0.00    +0.000 OA
ATOM     11  O   UNL     1      -9.454   6.503 132.808  0.00  0.00    +0.000 OA
BRANCH   9  15
ATOM     12  C   UNL     1      -4.292   6.421 131.476  0.00  0.00    +0.000 A 
ATOM     13  C   UNL     1      -5.200   7.200 130.801  0.00  0.00    +0.000 A 
ATOM     14  C   UNL     1      -6.577   7.001 131.046  0.00  0.00    +0.000 A 
ATOM     15  C   UNL     1      -7.005   6.180 132.104  0.00  0.00    +0.000 A 
ATOM     16  C   UNL     1      -6.051   5.796 132.974  0.00  0.00    +0.000 A 
ATOM     17  C   UNL     1      -4.828   5.570 132.390  0.00  0.00    +0.000 A 
BRANCH  12  19
ATOM     18  C   UNL     1      -2.312   6.500 129.999  0.00  0.00    +0.000 C 
ATOM     19  C   UNL     1      -2.783   6.453 131.479  0.00  0.00    +0.000 C 
ATOM     20  C   UNL     1      -2.319   5.298 132.440  0.00  0.00    +0.000 C 
ATOM     21  C   UNL     1      -2.234   7.677 132.165  0.00  0.00    +0.000 C 
ENDBRANCH  12  19
ENDBRANCH   9  15
ENDBRANCH   1   9
BRANCH   1  22
ATOM     22  C   UNL     1      -9.004   3.980 129.546  0.00  0.00    +0.000 C 
BRANCH  22  23
ATOM     23  C   UNL     1      -8.837   2.336 129.953  0.00  0.00    +0.000 C 
ATOM     24  O   UNL     1      -8.590   1.638 128.956  0.00  0.00    +0.000 OA
ATOM     25  N   UNL     1      -8.932   1.738 131.480  0.00  0.00    +0.000 N 
ATOM     26  H   UNL     1      -9.851   1.883 131.887  0.00  0.00    +0.000 HD
BRANCH  25  27
ATOM     27  N   UNL     1      -8.083   0.364 132.125  0.00  0.00    +0.000 NA
ATOM     28  C   UNL     1      -7.983  -1.049 132.035  0.00  0.00    +0.000 C 
ATOM     29  C   UNL     1      -6.644  -1.114 131.245  0.00  0.00    +0.000 C 
ATOM     30  O   UNL     1      -5.604  -0.916 131.783  0.00  0.00    +0.000 OA
ATOM     31  N   UNL     1      -6.849  -2.190 130.415  0.00  0.00    +0.000 N 
ATOM     32  C   UNL     1      -6.686  -3.165 131.371  0.00  0.00    +0.000 A 
ATOM     33  C   UNL     1      -5.813  -4.216 130.903  0.00  0.00    +0.000 A 
ATOM     34  C   UNL     1      -5.295  -5.204 131.675  0.00  0.00    +0.000 A 
ATOM     35  C   UNL     1      -5.670  -5.015 132.983  0.00  0.00    +0.000 A 
ATOM     36  C   UNL     1      -6.615  -3.799 133.457  0.00  0.00    +0.000 A 
ATOM     37  C   UNL     1      -7.181  -2.704 132.607  0.00  0.00    +0.000 A 
ATOM     38  H   UNL     1      -7.800  -2.268 130.099  0.00  0.00    +0.000 HD
ENDBRANCH  25  27
ENDBRANCH  22  23
ENDBRANCH   1  22
TORSDOF 7
ENDMDL
MODEL 9
REMARK VINA RESULT:     -10.2      5.454      7.700
REMARK  Name = CHEMBL2113213
REMARK  10 active torsions:
REMARK  status: ('A' for Active; 'I' for Inactive)
REMARK    1  A    between atoms: C_1  and  C_2
REMARK    2  A    between atoms: C_2  and  C_3
REMARK    3  A    between atoms: C_2  and  C_4
REMARK    4  A    between atoms: C_2  and  C_5
REMARK    5  A    between atoms: C_8  and  S_9
REMARK    6  A    between atoms: S_9  and  N_12
REMARK    7  A    between atoms: N_12  and  C_13
REMARK    8  A    between atoms: N_12  and  C_28
REMARK    9  A    between atoms: C_13  and  C_14
REMARK   10  A    between atoms: N_16  and  N_17
REMARK                            x       y       z     vdW  Elec       q    Type
REMARK                         _______ _______ _______ _____ _____    ______ ____
ROOT
ATOM      1  N   UNL     1      -7.866   3.354 131.932  0.00  0.00    +0.000 N 
ENDROOT
BRANCH   1   2
ATOM      2  C   UNL     1      -7.464   3.597 130.460  0.00  0.00    +0.000 A 
ATOM      3  C   UNL     1      -6.139   3.931 130.125  0.00  0.00    +0.000 A 
ATOM      4  C   UNL     1      -5.729   4.218 128.791  0.00  0.00    +0.000 A 
ATOM      5  C   UNL     1      -6.624   4.103 127.733  0.00  0.00    +0.000 A 
ATOM      6 CL   UNL     1      -6.090   4.326 126.108  0.00  0.00    +0.000 Cl
ATOM      7  C   UNL     1      -7.944   3.776 128.009  0.00  0.00    +0.000 A 
ATOM      8  C   UNL     1      -8.358   3.542 129.355  0.00  0.00    +0.000 A 
ENDBRANCH   1   2
BRANCH   1   9
ATOM      9  S   UNL     1      -8.196   4.850 132.819  0.00  0.00    +0.000 S 
ATOM     10  O   UNL     1      -6.919   5.534 132.931  0.00  0.00    +0.000 OA
ATOM     11  O   UNL     1      -8.898   4.472 134.035  0.00  0.00    +0.000 OA
BRANCH   9  15
ATOM     12  C   UNL     1     -11.003   7.155 130.155  0.00  0.00    +0.000 A 
ATOM     13  C   UNL     1     -11.512   6.724 131.356  0.00  0.00    +0.000 A 
ATOM     14  C   UNL     1     -10.647   6.071 132.262  0.00  0.00    +0.000 A 
ATOM     15  C   UNL     1      -9.259   6.047 132.038  0.00  0.00    +0.000 A 
ATOM     16  C   UNL     1      -8.807   6.856 131.060  0.00  0.00    +0.000 A 
ATOM     17  C   UNL     1      -9.667   6.968 129.993  0.00  0.00    +0.000 A 
BRANCH  12  19
ATOM     18  C   UNL     1     -10.520   8.462 128.113  0.00  0.00    +0.000 C 
ATOM     19  C   UNL     1     -11.653   7.933 129.037  0.00  0.00    +0.000 C 
ATOM     20  C   UNL     1     -12.668   8.922 129.719  0.00  0.00    +0.000 C 
ATOM     21  C   UNL     1     -12.561   7.079 128.191  0.00  0.00    +0.000 C 
ENDBRANCH  12  19
ENDBRANCH   9  15
ENDBRANCH   1   9
BRANCH   1  22
ATOM     22  C   UNL     1      -7.680   1.871 132.547  0.00  0.00    +0.000 C 
BRANCH  22  23
ATOM     23  C   UNL     1      -7.978   0.447 131.663  0.00  0.00    +0.000 C 
ATOM     24  O   UNL     1      -9.189   0.172 131.630  0.00  0.00    +0.000 OA
ATOM     25  N   UNL     1      -6.824  -0.432 130.892  0.00  0.00    +0.000 N 
ATOM     26  H   UNL     1      -6.146  -0.819 131.542  0.00  0.00    +0.000 HD
BRANCH  25  27
ATOM     27  N   UNL     1      -7.008  -1.357 129.431  0.00  0.00    +0.000 NA
ATOM     28  C   UNL     1      -7.921  -1.648 128.384  0.00  0.00    +0.000 C 
ATOM     29  C   UNL     1      -7.241  -0.800 127.271  0.00  0.00    +0.000 C 
ATOM     30  O   UNL     1      -6.253  -1.177 126.730  0.00  0.00    +0.000 OA
ATOM     31  N   UNL     1      -8.322  -0.315 126.575  0.00  0.00    +0.000 N 
ATOM     32  C   UNL     1      -8.630  -1.485 125.920  0.00  0.00    +0.000 A 
ATOM     33  C   UNL     1      -8.859  -1.253 124.513  0.00  0.00    +0.000 A 
ATOM     34  C   UNL     1      -8.978  -2.222 123.570  0.00  0.00    +0.000 A 
ATOM     35  C   UNL     1      -8.778  -3.454 124.143  0.00  0.00    +0.000 A 
ATOM     36  C   UNL     1      -8.485  -3.652 125.715  0.00  0.00    +0.000 A 
ATOM     37  C   UNL     1      -8.346  -2.584 126.755  0.00  0.00    +0.000 A 
ATOM     38  H   UNL     1      -9.110  -0.112 127.164  0.00  0.00    +0.000 HD
ENDBRANCH  25  27
ENDBRANCH  22  23
ENDBRANCH   1  22
TORSDOF 7
ENDMDL
