MODEL 1
REMARK VINA RESULT:      -9.0      0.000      0.000
REMARK  Name = CHEMBL281403
REMARK  12 active torsions:
REMARK  status: ('A' for Active; 'I' for Inactive)
REMARK    1  A    between atoms: C_1  and  C_2
REMARK    2  A    between atoms: C_2  and  C_4
REMARK    3  A    between atoms: C_4  and  C_5
REMARK    4  A    between atoms: C_5  and  C_6
REMARK    5  A    between atoms: C_6  and  C_7
REMARK    6  A    between atoms: N_9  and  C_10
REMARK    7  A    between atoms: C_12  and  C_13
REMARK    8  A    between atoms: N_25  and  C_26
REMARK    9  A    between atoms: C_26  and  C_27
REMARK   10  A    between atoms: N_29  and  C_30
REMARK   11  A    between atoms: C_30  and  C_31
REMARK   12  A    between atoms: C_31  and  C_32
REMARK                            x       y       z     vdW  Elec       q    Type
REMARK                         _______ _______ _______ _____ _____    ______ ____
ROOT
ATOM      1  C   UNL     1     -10.127   5.992 130.814  0.00  0.00    +0.000 C 
ATOM      2  N   UNL     1      -9.156   6.283 131.880  0.00  0.00    +0.000 NA
ATOM      3  C   UNL     1      -8.483   5.292 132.383  0.00  0.00    +0.000 C 
ATOM      4  C   UNL     1      -8.637   3.852 131.988  0.00  0.00    +0.000 A 
ATOM      5  C   UNL     1      -8.505   2.871 132.992  0.00  0.00    +0.000 A 
ATOM      6  C   UNL     1      -8.561   1.511 132.682  0.00  0.00    +0.000 A 
ATOM      7  C   UNL     1      -8.826   1.112 131.381  0.00  0.00    +0.000 A 
ATOM      8  C   UNL     1      -9.027   2.074 130.394  0.00  0.00    +0.000 A 
ATOM      9  C   UNL     1      -8.837   3.444 130.657  0.00  0.00    +0.000 A 
ATOM     10  N   UNL     1      -8.709   4.335 129.550  0.00  0.00    +0.000 N 
ATOM     11  C   UNL     1      -9.333   5.586 129.525  0.00  0.00    +0.000 C 
ATOM     12  O   UNL     1      -9.266   6.309 128.523  0.00  0.00    +0.000 OA
ENDROOT
BRANCH   3  13
ATOM     13  C   UNL     1      -7.463   5.605 133.441  0.00  0.00    +0.000 A 
ATOM     14  C   UNL     1      -6.126   5.838 133.098  0.00  0.00    +0.000 A 
ATOM     15  C   UNL     1      -5.172   6.022 134.106  0.00  0.00    +0.000 A 
ATOM     16  C   UNL     1      -5.563   6.066 135.446  0.00  0.00    +0.000 A 
ATOM     17  C   UNL     1      -6.912   5.947 135.778  0.00  0.00    +0.000 A 
ATOM     18  C   UNL     1      -7.855   5.671 134.784  0.00  0.00    +0.000 A 
ENDBRANCH   3  13
BRANCH   1  21
ATOM     19  C   UNL     1     -12.154   7.314 131.147  0.00  0.00    +0.000 C 
ATOM     20  O   UNL     1     -12.578   6.478 131.943  0.00  0.00    +0.000 OA
ATOM     21  N   UNL     1     -10.905   7.197 130.575  0.00  0.00    +0.000 N 
ATOM     22  H   UNL     1     -10.625   7.768 129.792  0.00  0.00    +0.000 HD
BRANCH  19  23
ATOM     23  C   UNL     1     -12.966   8.548 130.745  0.00  0.00    +0.000 C 
BRANCH  23  24
ATOM     24  C   UNL     1     -12.575   9.016 129.334  0.00  0.00    +0.000 C 
BRANCH  24  25
ATOM     25  C   UNL     1     -13.407   8.391 128.213  0.00  0.00    +0.000 C 
BRANCH  25  27
ATOM     26  C   UNL     1     -12.082   7.304 126.274  0.00  0.00    +0.000 C 
ATOM     27  C   UNL     1     -12.715   7.161 127.634  0.00  0.00    +0.000 C 
ATOM     28  O   UNL     1     -12.660   6.086 128.230  0.00  0.00    +0.000 OA
ENDBRANCH  25  27
ENDBRANCH  24  25
ENDBRANCH  23  24
ENDBRANCH  19  23
ENDBRANCH   1  21
BRANCH  10  29
ATOM     29  C   UNL     1      -7.915   3.940 128.361  0.00  0.00    +0.000 C 
BRANCH  29  30
ATOM     30  C   UNL     1      -6.379   4.058 128.430  0.00  0.00    +0.000 C 
ATOM     31  O   UNL     1      -5.748   5.008 127.948  0.00  0.00    +0.000 OA
ATOM     32  N   UNL     1      -5.683   3.040 129.047  0.00  0.00    +0.000 N 
ATOM     33  H   UNL     1      -6.054   2.096 129.031  0.00  0.00    +0.000 HD
BRANCH  32  34
ATOM     34  C   UNL     1      -4.270   3.279 129.268  0.00  0.00    +0.000 C 
BRANCH  34  35
ATOM     35  C   UNL     1      -3.836   3.260 130.724  0.00  0.00    +0.000 C 
BRANCH  35  36
ATOM     36  C   UNL     1      -3.188   4.566 131.134  0.00  0.00    +0.000 A 
ATOM     37  C   UNL     1      -2.247   4.572 132.168  0.00  0.00    +0.000 A 
ATOM     38  C   UNL     1      -1.691   5.774 132.608  0.00  0.00    +0.000 A 
ATOM     39  C   UNL     1      -2.144   6.992 132.093  0.00  0.00    +0.000 A 
ATOM     40 CL   UNL     1      -1.557   8.445 132.819  0.00  0.00    +0.000 Cl
ATOM     41  C   UNL     1      -3.059   6.999 131.041  0.00  0.00    +0.000 A 
ATOM     42 CL   UNL     1      -3.713   8.455 130.380  0.00  0.00    +0.000 Cl
ATOM     43  C   UNL     1      -3.514   5.787 130.515  0.00  0.00    +0.000 A 
ENDBRANCH  35  36
ENDBRANCH  34  35
ENDBRANCH  32  34
ENDBRANCH  29  30
ENDBRANCH  10  29
TORSDOF 11
ENDMDL
MODEL 2
REMARK VINA RESULT:      -8.8      4.781      8.023
REMARK  Name = CHEMBL281403
REMARK  12 active torsions:
REMARK  status: ('A' for Active; 'I' for Inactive)
REMARK    1  A    between atoms: C_1  and  C_2
REMARK    2  A    between atoms: C_2  and  C_4
REMARK    3  A    between atoms: C_4  and  C_5
REMARK    4  A    between atoms: C_5  and  C_6
REMARK    5  A    between atoms: C_6  and  C_7
REMARK    6  A    between atoms: N_9  and  C_10
REMARK    7  A    between atoms: C_12  and  C_13
REMARK    8  A    between atoms: N_25  and  C_26
REMARK    9  A    between atoms: C_26  and  C_27
REMARK   10  A    between atoms: N_29  and  C_30
REMARK   11  A    between atoms: C_30  and  C_31
REMARK   12  A    between atoms: C_31  and  C_32
REMARK                            x       y       z     vdW  Elec       q    Type
REMARK                         _______ _______ _______ _____ _____    ______ ____
ROOT
ATOM      1  C   UNL     1      -7.737   4.212 129.028  0.00  0.00    +0.000 C 
ATOM      2  N   UNL     1      -8.136   3.688 127.712  0.00  0.00    +0.000 NA
ATOM      3  C   UNL     1      -7.211   3.201 126.940  0.00  0.00    +0.000 C 
ATOM      4  C   UNL     1      -5.747   3.154 127.267  0.00  0.00    +0.000 A 
ATOM      5  C   UNL     1      -4.827   3.349 126.216  0.00  0.00    +0.000 A 
ATOM      6  C   UNL     1      -3.452   3.245 126.434  0.00  0.00    +0.000 A 
ATOM      7  C   UNL     1      -2.973   3.020 127.716  0.00  0.00    +0.000 A 
ATOM      8  C   UNL     1      -3.872   2.895 128.773  0.00  0.00    +0.000 A 
ATOM      9  C   UNL     1      -5.261   2.859 128.553  0.00  0.00    +0.000 A 
ATOM     10  N   UNL     1      -6.101   2.381 129.602  0.00  0.00    +0.000 N 
ATOM     11  C   UNL     1      -7.312   3.000 129.928  0.00  0.00    +0.000 C 
ATOM     12  O   UNL     1      -7.986   2.610 130.890  0.00  0.00    +0.000 OA
ENDROOT
BRANCH   3  13
ATOM     13  C   UNL     1      -7.635   2.630 125.616  0.00  0.00    +0.000 A 
ATOM     14  C   UNL     1      -8.035   3.470 124.571  0.00  0.00    +0.000 A 
ATOM     15  C   UNL     1      -8.528   2.916 123.383  0.00  0.00    +0.000 A 
ATOM     16  C   UNL     1      -8.534   1.532 123.202  0.00  0.00    +0.000 A 
ATOM     17  C   UNL     1      -8.029   0.700 124.202  0.00  0.00    +0.000 A 
ATOM     18  C   UNL     1      -7.623   1.243 125.424  0.00  0.00    +0.000 A 
ENDBRANCH   3  13
BRANCH   1  21
ATOM     19  C   UNL     1      -8.680   6.065 130.309  0.00  0.00    +0.000 C 
ATOM     20  O   UNL     1      -7.573   6.599 130.367  0.00  0.00    +0.000 OA
ATOM     21  N   UNL     1      -8.882   4.898 129.604  0.00  0.00    +0.000 N 
ATOM     22  H   UNL     1      -9.729   4.359 129.701  0.00  0.00    +0.000 HD
BRANCH  19  23
ATOM     23  C   UNL     1      -9.913   6.659 130.996  0.00  0.00    +0.000 C 
BRANCH  23  24
ATOM     24  C   UNL     1     -11.009   6.969 129.964  0.00  0.00    +0.000 C 
BRANCH  24  25
ATOM     25  C   UNL     1     -10.571   7.921 128.850  0.00  0.00    +0.000 C 
BRANCH  25  27
ATOM     26  C   UNL     1     -11.874   7.530 126.648  0.00  0.00    +0.000 C 
ATOM     27  C   UNL     1     -10.654   7.245 127.484  0.00  0.00    +0.000 C 
ATOM     28  O   UNL     1      -9.777   6.494 127.060  0.00  0.00    +0.000 OA
ENDBRANCH  25  27
ENDBRANCH  24  25
ENDBRANCH  23  24
ENDBRANCH  19  23
ENDBRANCH   1  21
BRANCH  10  29
ATOM     29  C   UNL     1      -5.693   1.206 130.410  0.00  0.00    +0.000 C 
BRANCH  29  30
ATOM     30  C   UNL     1      -5.700  -0.184 129.742  0.00  0.00    +0.000 C 
ATOM     31  O   UNL     1      -4.916  -0.509 128.841  0.00  0.00    +0.000 OA
ATOM     32  N   UNL     1      -6.645  -1.096 130.165  0.00  0.00    +0.000 N 
ATOM     33  H   UNL     1      -7.538  -0.768 130.516  0.00  0.00    +0.000 HD
BRANCH  32  34
ATOM     34  C   UNL     1      -6.494  -2.446 129.660  0.00  0.00    +0.000 C 
BRANCH  34  35
ATOM     35  C   UNL     1      -7.778  -3.095 129.170  0.00  0.00    +0.000 C 
BRANCH  35  36
ATOM     36  C   UNL     1      -7.958  -2.923 127.676  0.00  0.00    +0.000 A 
ATOM     37  C   UNL     1      -9.177  -3.272 127.086  0.00  0.00    +0.000 A 
ATOM     38  C   UNL     1      -9.340  -3.189 125.702  0.00  0.00    +0.000 A 
ATOM     39  C   UNL     1      -8.257  -2.856 124.883  0.00  0.00    +0.000 A 
ATOM     40 CL   UNL     1      -8.475  -2.962 123.173  0.00  0.00    +0.000 Cl
ATOM     41  C   UNL     1      -7.046  -2.477 125.460  0.00  0.00    +0.000 A 
ATOM     42 CL   UNL     1      -5.641  -2.103 124.526  0.00  0.00    +0.000 Cl
ATOM     43  C   UNL     1      -6.928  -2.436 126.851  0.00  0.00    +0.000 A 
ENDBRANCH  35  36
ENDBRANCH  34  35
ENDBRANCH  32  34
ENDBRANCH  29  30
ENDBRANCH  10  29
TORSDOF 11
ENDMDL
MODEL 3
REMARK VINA RESULT:      -8.7      4.475      6.466
REMARK  Name = CHEMBL281403
REMARK  12 active torsions:
REMARK  status: ('A' for Active; 'I' for Inactive)
REMARK    1  A    between atoms: C_1  and  C_2
REMARK    2  A    between atoms: C_2  and  C_4
REMARK    3  A    between atoms: C_4  and  C_5
REMARK    4  A    between atoms: C_5  and  C_6
REMARK    5  A    between atoms: C_6  and  C_7
REMARK    6  A    between atoms: N_9  and  C_10
REMARK    7  A    between atoms: C_12  and  C_13
REMARK    8  A    between atoms: N_25  and  C_26
REMARK    9  A    between atoms: C_26  and  C_27
REMARK   10  A    between atoms: N_29  and  C_30
REMARK   11  A    between atoms: C_30  and  C_31
REMARK   12  A    between atoms: C_31  and  C_32
REMARK                            x       y       z     vdW  Elec       q    Type
REMARK                         _______ _______ _______ _____ _____    ______ ____
ROOT
ATOM      1  C   UNL     1      -9.365   5.305 130.838  0.00  0.00    +0.000 C 
ATOM      2  N   UNL     1      -8.108   5.872 130.326  0.00  0.00    +0.000 NA
ATOM      3  C   UNL     1      -7.002   5.559 130.931  0.00  0.00    +0.000 C 
ATOM      4  C   UNL     1      -6.898   4.683 132.146  0.00  0.00    +0.000 A 
ATOM      5  C   UNL     1      -5.920   5.001 133.111  0.00  0.00    +0.000 A 
ATOM      6  C   UNL     1      -5.719   4.187 134.226  0.00  0.00    +0.000 A 
ATOM      7  C   UNL     1      -6.538   3.087 134.434  0.00  0.00    +0.000 A 
ATOM      8  C   UNL     1      -7.553   2.804 133.522  0.00  0.00    +0.000 A 
ATOM      9  C   UNL     1      -7.683   3.530 132.323  0.00  0.00    +0.000 A 
ATOM     10  N   UNL     1      -8.492   2.982 131.284  0.00  0.00    +0.000 N 
ATOM     11  C   UNL     1      -9.369   3.768 130.530  0.00  0.00    +0.000 C 
ATOM     12  O   UNL     1     -10.114   3.256 129.685  0.00  0.00    +0.000 OA
ENDROOT
BRANCH   3  13
ATOM     13  C   UNL     1      -5.720   6.110 130.374  0.00  0.00    +0.000 A 
ATOM     14  C   UNL     1      -5.338   7.432 130.632  0.00  0.00    +0.000 A 
ATOM     15  C   UNL     1      -4.195   7.958 130.016  0.00  0.00    +0.000 A 
ATOM     16  C   UNL     1      -3.386   7.143 129.222  0.00  0.00    +0.000 A 
ATOM     17  C   UNL     1      -3.707   5.796 129.057  0.00  0.00    +0.000 A 
ATOM     18  C   UNL     1      -4.895   5.290 129.593  0.00  0.00    +0.000 A 
ENDBRANCH   3  13
BRANCH   1  21
ATOM     19  C   UNL     1     -11.535   6.425 130.897  0.00  0.00    +0.000 C 
ATOM     20  O   UNL     1     -11.527   6.392 132.127  0.00  0.00    +0.000 OA
ATOM     21  N   UNL     1     -10.467   5.965 130.157  0.00  0.00    +0.000 N 
ATOM     22  H   UNL     1     -10.536   5.817 129.162  0.00  0.00    +0.000 HD
BRANCH  19  23
ATOM     23  C   UNL     1     -12.713   6.990 130.100  0.00  0.00    +0.000 C 
BRANCH  23  24
ATOM     24  C   UNL     1     -12.521   8.492 129.843  0.00  0.00    +0.000 C 
BRANCH  24  25
ATOM     25  C   UNL     1     -12.361   8.862 128.367  0.00  0.00    +0.000 C 
BRANCH  25  27
ATOM     26  C   UNL     1     -11.081   7.617 126.494  0.00  0.00    +0.000 C 
ATOM     27  C   UNL     1     -11.037   8.346 127.811  0.00  0.00    +0.000 C 
ATOM     28  O   UNL     1      -9.964   8.506 128.393  0.00  0.00    +0.000 OA
ENDBRANCH  25  27
ENDBRANCH  24  25
ENDBRANCH  23  24
ENDBRANCH  19  23
ENDBRANCH   1  21
BRANCH  10  29
ATOM     29  C   UNL     1      -8.444   1.529 130.987  0.00  0.00    +0.000 C 
BRANCH  29  30
ATOM     30  C   UNL     1      -7.423   1.025 129.947  0.00  0.00    +0.000 C 
ATOM     31  O   UNL     1      -6.574   1.756 129.420  0.00  0.00    +0.000 OA
ATOM     32  N   UNL     1      -7.480  -0.303 129.581  0.00  0.00    +0.000 N 
ATOM     33  H   UNL     1      -8.367  -0.793 129.602  0.00  0.00    +0.000 HD
BRANCH  32  34
ATOM     34  C   UNL     1      -6.386  -0.782 128.759  0.00  0.00    +0.000 C 
BRANCH  34  35
ATOM     35  C   UNL     1      -6.497  -2.235 128.325  0.00  0.00    +0.000 C 
BRANCH  35  36
ATOM     36  C   UNL     1      -7.318  -2.382 127.061  0.00  0.00    +0.000 A 
ATOM     37  C   UNL     1      -8.605  -2.923 127.137  0.00  0.00    +0.000 A 
ATOM     38  C   UNL     1      -9.351  -3.132 125.975  0.00  0.00    +0.000 A 
ATOM     39  C   UNL     1      -8.782  -2.901 124.720  0.00  0.00    +0.000 A 
ATOM     40 CL   UNL     1      -9.687  -3.365 123.325  0.00  0.00    +0.000 Cl
ATOM     41  C   UNL     1      -7.512  -2.333 124.631  0.00  0.00    +0.000 A 
ATOM     42 CL   UNL     1      -6.711  -2.062 123.125  0.00  0.00    +0.000 Cl
ATOM     43  C   UNL     1      -6.822  -2.003 125.801  0.00  0.00    +0.000 A 
ENDBRANCH  35  36
ENDBRANCH  34  35
ENDBRANCH  32  34
ENDBRANCH  29  30
ENDBRANCH  10  29
TORSDOF 11
ENDMDL
MODEL 4
REMARK VINA RESULT:      -8.7      4.902      7.622
REMARK  Name = CHEMBL281403
REMARK  12 active torsions:
REMARK  status: ('A' for Active; 'I' for Inactive)
REMARK    1  A    between atoms: C_1  and  C_2
REMARK    2  A    between atoms: C_2  and  C_4
REMARK    3  A    between atoms: C_4  and  C_5
REMARK    4  A    between atoms: C_5  and  C_6
REMARK    5  A    between atoms: C_6  and  C_7
REMARK    6  A    between atoms: N_9  and  C_10
REMARK    7  A    between atoms: C_12  and  C_13
REMARK    8  A    between atoms: N_25  and  C_26
REMARK    9  A    between atoms: C_26  and  C_27
REMARK   10  A    between atoms: N_29  and  C_30
REMARK   11  A    between atoms: C_30  and  C_31
REMARK   12  A    between atoms: C_31  and  C_32
REMARK                            x       y       z     vdW  Elec       q    Type
REMARK                         _______ _______ _______ _____ _____    ______ ____
ROOT
ATOM      1  C   UNL     1      -9.259   3.478 130.600  0.00  0.00    +0.000 C 
ATOM      2  N   UNL     1      -9.299   3.130 129.171  0.00  0.00    +0.000 NA
ATOM      3  C   UNL     1      -8.225   2.639 128.629  0.00  0.00    +0.000 C 
ATOM      4  C   UNL     1      -6.919   2.425 129.337  0.00  0.00    +0.000 A 
ATOM      5  C   UNL     1      -5.729   2.640 128.611  0.00  0.00    +0.000 A 
ATOM      6  C   UNL     1      -4.481   2.388 129.184  0.00  0.00    +0.000 A 
ATOM      7  C   UNL     1      -4.400   1.991 130.511  0.00  0.00    +0.000 A 
ATOM      8  C   UNL     1      -5.567   1.843 131.257  0.00  0.00    +0.000 A 
ATOM      9  C   UNL     1      -6.836   1.958 130.661  0.00  0.00    +0.000 A 
ATOM     10  N   UNL     1      -7.966   1.455 131.372  0.00  0.00    +0.000 N 
ATOM     11  C   UNL     1      -9.180   2.148 131.426  0.00  0.00    +0.000 C 
ATOM     12  O   UNL     1     -10.122   1.726 132.110  0.00  0.00    +0.000 OA
ENDROOT
BRANCH   3  13
ATOM     13  C   UNL     1      -8.290   2.247 127.180  0.00  0.00    +0.000 A 
ATOM     14  C   UNL     1      -7.909   3.148 126.178  0.00  0.00    +0.000 A 
ATOM     15  C   UNL     1      -8.077   2.802 124.832  0.00  0.00    +0.000 A 
ATOM     16  C   UNL     1      -8.536   1.530 124.485  0.00  0.00    +0.000 A 
ATOM     17  C   UNL     1      -8.808   0.594 125.482  0.00  0.00    +0.000 A 
ATOM     18  C   UNL     1      -8.730   0.965 126.828  0.00  0.00    +0.000 A 
ENDBRANCH   3  13
BRANCH   1  21
ATOM     19  C   UNL     1     -10.466   5.583 130.881  0.00  0.00    +0.000 C 
ATOM     20  O   UNL     1      -9.487   6.207 130.474  0.00  0.00    +0.000 OA
ATOM     21  N   UNL     1     -10.477   4.205 130.919  0.00  0.00    +0.000 N 
ATOM     22  H   UNL     1     -11.191   3.694 131.416  0.00  0.00    +0.000 HD
BRANCH  19  23
ATOM     23  C   UNL     1     -11.743   6.280 131.355  0.00  0.00    +0.000 C 
BRANCH  23  24
ATOM     24  C   UNL     1     -12.240   7.277 130.296  0.00  0.00    +0.000 C 
BRANCH  24  25
ATOM     25  C   UNL     1     -12.704   6.628 128.991  0.00  0.00    +0.000 C 
BRANCH  25  27
ATOM     26  C   UNL     1     -11.024   8.359 128.054  0.00  0.00    +0.000 C 
ATOM     27  C   UNL     1     -11.957   7.206 127.792  0.00  0.00    +0.000 C 
ATOM     28  O   UNL     1     -12.092   6.768 126.650  0.00  0.00    +0.000 OA
ENDBRANCH  25  27
ENDBRANCH  24  25
ENDBRANCH  23  24
ENDBRANCH  19  23
ENDBRANCH   1  21
BRANCH  10  29
ATOM     29  C   UNL     1      -7.875   0.172 132.110  0.00  0.00    +0.000 C 
BRANCH  29  30
ATOM     30  C   UNL     1      -7.369  -1.075 131.356  0.00  0.00    +0.000 C 
ATOM     31  O   UNL     1      -6.474  -1.813 131.789  0.00  0.00    +0.000 OA
ATOM     32  N   UNL     1      -7.935  -1.360 130.132  0.00  0.00    +0.000 N 
ATOM     33  H   UNL     1      -8.287  -0.606 129.553  0.00  0.00    +0.000 HD
BRANCH  32  34
ATOM     34  C   UNL     1      -7.579  -2.639 129.550  0.00  0.00    +0.000 C 
BRANCH  34  35
ATOM     35  C   UNL     1      -8.569  -3.181 128.532  0.00  0.00    +0.000 C 
BRANCH  35  36
ATOM     36  C   UNL     1      -8.065  -3.011 127.114  0.00  0.00    +0.000 A 
ATOM     37  C   UNL     1      -6.814  -2.428 126.895  0.00  0.00    +0.000 A 
ATOM     38  C   UNL     1      -6.362  -2.198 125.594  0.00  0.00    +0.000 A 
ATOM     39  C   UNL     1      -7.195  -2.452 124.502  0.00  0.00    +0.000 A 
ATOM     40 CL   UNL     1      -6.650  -1.963 122.938  0.00  0.00    +0.000 Cl
ATOM     41  C   UNL     1      -8.433  -3.061 124.705  0.00  0.00    +0.000 A 
ATOM     42 CL   UNL     1      -9.550  -3.362 123.421  0.00  0.00    +0.000 Cl
ATOM     43  C   UNL     1      -8.826  -3.409 126.000  0.00  0.00    +0.000 A 
ENDBRANCH  35  36
ENDBRANCH  34  35
ENDBRANCH  32  34
ENDBRANCH  29  30
ENDBRANCH  10  29
TORSDOF 11
ENDMDL
MODEL 5
REMARK VINA RESULT:      -8.3      4.813      7.935
REMARK  Name = CHEMBL281403
REMARK  12 active torsions:
REMARK  status: ('A' for Active; 'I' for Inactive)
REMARK    1  A    between atoms: C_1  and  C_2
REMARK    2  A    between atoms: C_2  and  C_4
REMARK    3  A    between atoms: C_4  and  C_5
REMARK    4  A    between atoms: C_5  and  C_6
REMARK    5  A    between atoms: C_6  and  C_7
REMARK    6  A    between atoms: N_9  and  C_10
REMARK    7  A    between atoms: C_12  and  C_13
REMARK    8  A    between atoms: N_25  and  C_26
REMARK    9  A    between atoms: C_26  and  C_27
REMARK   10  A    between atoms: N_29  and  C_30
REMARK   11  A    between atoms: C_30  and  C_31
REMARK   12  A    between atoms: C_31  and  C_32
REMARK                            x       y       z     vdW  Elec       q    Type
REMARK                         _______ _______ _______ _____ _____    ______ ____
ROOT
ATOM      1  C   UNL     1      -7.811   4.422 129.215  0.00  0.00    +0.000 C 
ATOM      2  N   UNL     1      -8.058   3.863 127.876  0.00  0.00    +0.000 NA
ATOM      3  C   UNL     1      -7.032   3.552 127.143  0.00  0.00    +0.000 C 
ATOM      4  C   UNL     1      -5.596   3.747 127.535  0.00  0.00    +0.000 A 
ATOM      5  C   UNL     1      -4.678   4.113 126.529  0.00  0.00    +0.000 A 
ATOM      6  C   UNL     1      -3.316   4.238 126.809  0.00  0.00    +0.000 A 
ATOM      7  C   UNL     1      -2.862   4.074 128.109  0.00  0.00    +0.000 A 
ATOM      8  C   UNL     1      -3.771   3.780 129.123  0.00  0.00    +0.000 A 
ATOM      9  C   UNL     1      -5.123   3.515 128.839  0.00  0.00    +0.000 A 
ATOM     10  N   UNL     1      -5.915   2.883 129.844  0.00  0.00    +0.000 N 
ATOM     11  C   UNL     1      -7.226   3.283 130.120  0.00  0.00    +0.000 C 
ATOM     12  O   UNL     1      -7.865   2.768 131.046  0.00  0.00    +0.000 OA
ENDROOT
BRANCH   3  13
ATOM     13  C   UNL     1      -7.295   2.942 125.794  0.00  0.00    +0.000 A 
ATOM     14  C   UNL     1      -6.823   1.661 125.485  0.00  0.00    +0.000 A 
ATOM     15  C   UNL     1      -6.986   1.155 124.190  0.00  0.00    +0.000 A 
ATOM     16  C   UNL     1      -7.697   1.883 123.234  0.00  0.00    +0.000 A 
ATOM     17  C   UNL     1      -8.265   3.109 123.578  0.00  0.00    +0.000 A 
ATOM     18  C   UNL     1      -8.027   3.660 124.840  0.00  0.00    +0.000 A 
ENDBRANCH   3  13
BRANCH   1  21
ATOM     19  C   UNL     1      -9.152   6.164 130.278  0.00  0.00    +0.000 C 
ATOM     20  O   UNL     1      -8.204   6.945 130.213  0.00  0.00    +0.000 OA
ATOM     21  N   UNL     1      -9.079   4.895 129.745  0.00  0.00    +0.000 N 
ATOM     22  H   UNL     1      -9.772   4.192 129.952  0.00  0.00    +0.000 HD
BRANCH  19  23
ATOM     23  C   UNL     1     -10.482   6.543 130.934  0.00  0.00    +0.000 C 
BRANCH  23  24
ATOM     24  C   UNL     1     -11.663   6.108 130.052  0.00  0.00    +0.000 C 
BRANCH  24  25
ATOM     25  C   UNL     1     -12.906   6.990 130.187  0.00  0.00    +0.000 C 
BRANCH  25  27
ATOM     26  C   UNL     1     -12.789   9.344 129.119  0.00  0.00    +0.000 C 
ATOM     27  C   UNL     1     -13.087   7.876 128.959  0.00  0.00    +0.000 C 
ATOM     28  O   UNL     1     -13.460   7.437 127.871  0.00  0.00    +0.000 OA
ENDBRANCH  25  27
ENDBRANCH  24  25
ENDBRANCH  23  24
ENDBRANCH  19  23
ENDBRANCH   1  21
BRANCH  10  29
ATOM     29  C   UNL     1      -5.349   1.779 130.657  0.00  0.00    +0.000 C 
BRANCH  29  30
ATOM     30  C   UNL     1      -4.935   0.476 129.942  0.00  0.00    +0.000 C 
ATOM     31  O   UNL     1      -4.008  -0.246 130.329  0.00  0.00    +0.000 OA
ATOM     32  N   UNL     1      -5.629   0.119 128.805  0.00  0.00    +0.000 N 
ATOM     33  H   UNL     1      -6.033   0.839 128.215  0.00  0.00    +0.000 HD
BRANCH  32  34
ATOM     34  C   UNL     1      -5.348  -1.202 128.278  0.00  0.00    +0.000 C 
BRANCH  34  35
ATOM     35  C   UNL     1      -6.473  -2.211 128.439  0.00  0.00    +0.000 C 
BRANCH  35  36
ATOM     36  C   UNL     1      -7.268  -2.374 127.160  0.00  0.00    +0.000 A 
ATOM     37  C   UNL     1      -8.593  -2.815 127.226  0.00  0.00    +0.000 A 
ATOM     38  C   UNL     1      -9.320  -3.040 126.055  0.00  0.00    +0.000 A 
ATOM     39  C   UNL     1      -8.701  -2.926 124.807  0.00  0.00    +0.000 A 
ATOM     40 CL   UNL     1      -9.600  -3.407 123.413  0.00  0.00    +0.000 Cl
ATOM     41  C   UNL     1      -7.391  -2.458 124.726  0.00  0.00    +0.000 A 
ATOM     42 CL   UNL     1      -6.530  -2.337 123.233  0.00  0.00    +0.000 Cl
ATOM     43  C   UNL     1      -6.710  -2.109 125.896  0.00  0.00    +0.000 A 
ENDBRANCH  35  36
ENDBRANCH  34  35
ENDBRANCH  32  34
ENDBRANCH  29  30
ENDBRANCH  10  29
TORSDOF 11
ENDMDL
MODEL 6
REMARK VINA RESULT:      -8.2      3.890      5.699
REMARK  Name = CHEMBL281403
REMARK  12 active torsions:
REMARK  status: ('A' for Active; 'I' for Inactive)
REMARK    1  A    between atoms: C_1  and  C_2
REMARK    2  A    between atoms: C_2  and  C_4
REMARK    3  A    between atoms: C_4  and  C_5
REMARK    4  A    between atoms: C_5  and  C_6
REMARK    5  A    between atoms: C_6  and  C_7
REMARK    6  A    between atoms: N_9  and  C_10
REMARK    7  A    between atoms: C_12  and  C_13
REMARK    8  A    between atoms: N_25  and  C_26
REMARK    9  A    between atoms: C_26  and  C_27
REMARK   10  A    between atoms: N_29  and  C_30
REMARK   11  A    between atoms: C_30  and  C_31
REMARK   12  A    between atoms: C_31  and  C_32
REMARK                            x       y       z     vdW  Elec       q    Type
REMARK                         _______ _______ _______ _____ _____    ______ ____
ROOT
ATOM      1  C   UNL     1      -9.438   5.966 131.053  0.00  0.00    +0.000 C 
ATOM      2  N   UNL     1      -8.135   6.385 130.514  0.00  0.00    +0.000 NA
ATOM      3  C   UNL     1      -7.061   5.916 131.075  0.00  0.00    +0.000 C 
ATOM      4  C   UNL     1      -7.034   4.998 132.262  0.00  0.00    +0.000 A 
ATOM      5  C   UNL     1      -5.996   5.161 133.202  0.00  0.00    +0.000 A 
ATOM      6  C   UNL     1      -5.867   4.294 134.289  0.00  0.00    +0.000 A 
ATOM      7  C   UNL     1      -6.814   3.302 134.495  0.00  0.00    +0.000 A 
ATOM      8  C   UNL     1      -7.882   3.177 133.610  0.00  0.00    +0.000 A 
ATOM      9  C   UNL     1      -7.954   3.949 132.435  0.00  0.00    +0.000 A 
ATOM     10  N   UNL     1      -8.857   3.539 131.410  0.00  0.00    +0.000 N 
ATOM     11  C   UNL     1      -9.648   4.452 130.705  0.00  0.00    +0.000 C 
ATOM     12  O   UNL     1     -10.476   4.064 129.871  0.00  0.00    +0.000 OA
ENDROOT
BRANCH   3  13
ATOM     13  C   UNL     1      -5.735   6.317 130.490  0.00  0.00    +0.000 A 
ATOM     14  C   UNL     1      -4.978   5.405 129.746  0.00  0.00    +0.000 A 
ATOM     15  C   UNL     1      -3.700   5.762 129.301  0.00  0.00    +0.000 A 
ATOM     16  C   UNL     1      -3.216   7.054 129.517  0.00  0.00    +0.000 A 
ATOM     17  C   UNL     1      -4.018   7.997 130.160  0.00  0.00    +0.000 A 
ATOM     18  C   UNL     1      -5.256   7.618 130.686  0.00  0.00    +0.000 A 
ENDBRANCH   3  13
BRANCH   1  21
ATOM     19  C   UNL     1     -11.696   6.899 131.037  0.00  0.00    +0.000 C 
ATOM     20  O   UNL     1     -11.906   6.428 132.154  0.00  0.00    +0.000 OA
ATOM     21  N   UNL     1     -10.466   6.781 130.425  0.00  0.00    +0.000 N 
ATOM     22  H   UNL     1     -10.337   6.997 129.449  0.00  0.00    +0.000 HD
BRANCH  19  23
ATOM     23  C   UNL     1     -12.767   7.663 130.255  0.00  0.00    +0.000 C 
BRANCH  23  24
ATOM     24  C   UNL     1     -13.202   6.866 129.016  0.00  0.00    +0.000 C 
BRANCH  24  25
ATOM     25  C   UNL     1     -12.960   7.586 127.688  0.00  0.00    +0.000 C 
BRANCH  25  27
ATOM     26  C   UNL     1     -11.197   7.897 125.819  0.00  0.00    +0.000 C 
ATOM     27  C   UNL     1     -11.590   7.236 127.114  0.00  0.00    +0.000 C 
ATOM     28  O   UNL     1     -10.820   6.450 127.664  0.00  0.00    +0.000 OA
ENDBRANCH  25  27
ENDBRANCH  24  25
ENDBRANCH  23  24
ENDBRANCH  19  23
ENDBRANCH   1  21
BRANCH  10  29
ATOM     29  C   UNL     1      -9.003   2.102 131.073  0.00  0.00    +0.000 C 
BRANCH  29  30
ATOM     30  C   UNL     1      -7.915   1.435 130.207  0.00  0.00    +0.000 C 
ATOM     31  O   UNL     1      -6.896   0.913 130.679  0.00  0.00    +0.000 OA
ATOM     32  N   UNL     1      -8.086   1.444 128.839  0.00  0.00    +0.000 N 
ATOM     33  H   UNL     1      -8.597   2.203 128.401  0.00  0.00    +0.000 HD
BRANCH  32  34
ATOM     34  C   UNL     1      -7.152   0.640 128.076  0.00  0.00    +0.000 C 
BRANCH  34  35
ATOM     35  C   UNL     1      -7.693  -0.700 127.604  0.00  0.00    +0.000 C 
BRANCH  35  36
ATOM     36  C   UNL     1      -7.142  -1.848 128.424  0.00  0.00    +0.000 A 
ATOM     37  C   UNL     1      -7.956  -2.462 129.380  0.00  0.00    +0.000 A 
ATOM     38  C   UNL     1      -7.445  -3.474 130.195  0.00  0.00    +0.000 A 
ATOM     39  C   UNL     1      -6.091  -3.813 130.136  0.00  0.00    +0.000 A 
ATOM     40 CL   UNL     1      -5.485  -4.931 131.304  0.00  0.00    +0.000 Cl
ATOM     41  C   UNL     1      -5.276  -3.230 129.166  0.00  0.00    +0.000 A 
ATOM     42 CL   UNL     1      -3.581  -3.548 129.054  0.00  0.00    +0.000 Cl
ATOM     43  C   UNL     1      -5.824  -2.312 128.266  0.00  0.00    +0.000 A 
ENDBRANCH  35  36
ENDBRANCH  34  35
ENDBRANCH  32  34
ENDBRANCH  29  30
ENDBRANCH  10  29
TORSDOF 11
ENDMDL
MODEL 7
REMARK VINA RESULT:      -8.1      4.735      7.591
REMARK  Name = CHEMBL281403
REMARK  12 active torsions:
REMARK  status: ('A' for Active; 'I' for Inactive)
REMARK    1  A    between atoms: C_1  and  C_2
REMARK    2  A    between atoms: C_2  and  C_4
REMARK    3  A    between atoms: C_4  and  C_5
REMARK    4  A    between atoms: C_5  and  C_6
REMARK    5  A    between atoms: C_6  and  C_7
REMARK    6  A    between atoms: N_9  and  C_10
REMARK    7  A    between atoms: C_12  and  C_13
REMARK    8  A    between atoms: N_25  and  C_26
REMARK    9  A    between atoms: C_26  and  C_27
REMARK   10  A    between atoms: N_29  and  C_30
REMARK   11  A    between atoms: C_30  and  C_31
REMARK   12  A    between atoms: C_31  and  C_32
REMARK                            x       y       z     vdW  Elec       q    Type
REMARK                         _______ _______ _______ _____ _____    ______ ____
ROOT
ATOM      1  C   UNL     1      -7.615   3.558 127.661  0.00  0.00    +0.000 C 
ATOM      2  N   UNL     1      -6.270   3.921 128.137  0.00  0.00    +0.000 NA
ATOM      3  C   UNL     1      -6.169   4.531 129.279  0.00  0.00    +0.000 C 
ATOM      4  C   UNL     1      -7.322   4.932 130.152  0.00  0.00    +0.000 A 
ATOM      5  C   UNL     1      -7.222   6.144 130.867  0.00  0.00    +0.000 A 
ATOM      6  C   UNL     1      -8.224   6.540 131.755  0.00  0.00    +0.000 A 
ATOM      7  C   UNL     1      -9.372   5.774 131.884  0.00  0.00    +0.000 A 
ATOM      8  C   UNL     1      -9.511   4.611 131.130  0.00  0.00    +0.000 A 
ATOM      9  C   UNL     1      -8.457   4.123 130.336  0.00  0.00    +0.000 A 
ATOM     10  N   UNL     1      -8.522   2.773 129.879  0.00  0.00    +0.000 N 
ATOM     11  C   UNL     1      -8.164   2.410 128.576  0.00  0.00    +0.000 C 
ATOM     12  O   UNL     1      -8.300   1.245 128.182  0.00  0.00    +0.000 OA
ENDROOT
BRANCH   3  13
ATOM     13  C   UNL     1      -4.788   4.860 129.776  0.00  0.00    +0.000 A 
ATOM     14  C   UNL     1      -4.227   4.153 130.846  0.00  0.00    +0.000 A 
ATOM     15  C   UNL     1      -2.986   4.545 131.362  0.00  0.00    +0.000 A 
ATOM     16  C   UNL     1      -2.265   5.575 130.756  0.00  0.00    +0.000 A 
ATOM     17  C   UNL     1      -2.775   6.203 129.619  0.00  0.00    +0.000 A 
ATOM     18  C   UNL     1      -4.054   5.879 129.156  0.00  0.00    +0.000 A 
ENDBRANCH   3  13
BRANCH   1  21
ATOM     19  C   UNL     1      -8.149   3.795 125.289  0.00  0.00    +0.000 C 
ATOM     20  O   UNL     1      -8.734   4.854 125.519  0.00  0.00    +0.000 OA
ATOM     21  N   UNL     1      -7.496   3.101 126.286  0.00  0.00    +0.000 N 
ATOM     22  H   UNL     1      -7.177   2.155 126.150  0.00  0.00    +0.000 HD
BRANCH  19  23
ATOM     23  C   UNL     1      -8.086   3.182 123.889  0.00  0.00    +0.000 C 
BRANCH  23  24
ATOM     24  C   UNL     1      -6.629   2.911 123.483  0.00  0.00    +0.000 C 
BRANCH  24  25
ATOM     25  C   UNL     1      -5.768   4.169 123.352  0.00  0.00    +0.000 C 
BRANCH  25  27
ATOM     26  C   UNL     1      -5.552   3.230 120.950  0.00  0.00    +0.000 C 
ATOM     27  C   UNL     1      -5.257   4.340 121.925  0.00  0.00    +0.000 C 
ATOM     28  O   UNL     1      -4.627   5.331 121.558  0.00  0.00    +0.000 OA
ENDBRANCH  25  27
ENDBRANCH  24  25
ENDBRANCH  23  24
ENDBRANCH  19  23
ENDBRANCH   1  21
BRANCH  10  29
ATOM     29  C   UNL     1      -9.007   1.700 130.781  0.00  0.00    +0.000 C 
BRANCH  29  30
ATOM     30  C   UNL     1      -8.020   0.591 131.199  0.00  0.00    +0.000 C 
ATOM     31  O   UNL     1      -7.029   0.797 131.911  0.00  0.00    +0.000 OA
ATOM     32  N   UNL     1      -8.255  -0.687 130.735  0.00  0.00    +0.000 N 
ATOM     33  H   UNL     1      -8.719  -0.820 129.844  0.00  0.00    +0.000 HD
BRANCH  32  34
ATOM     34  C   UNL     1      -7.428  -1.731 131.307  0.00  0.00    +0.000 C 
BRANCH  34  35
ATOM     35  C   UNL     1      -7.485  -3.065 130.580  0.00  0.00    +0.000 C 
BRANCH  35  36
ATOM     36  C   UNL     1      -7.291  -2.899 129.087  0.00  0.00    +0.000 A 
ATOM     37  C   UNL     1      -6.064  -2.439 128.601  0.00  0.00    +0.000 A 
ATOM     38  C   UNL     1      -5.888  -2.212 127.235  0.00  0.00    +0.000 A 
ATOM     39  C   UNL     1      -6.964  -2.342 126.353  0.00  0.00    +0.000 A 
ATOM     40 CL   UNL     1      -6.728  -1.858 124.712  0.00  0.00    +0.000 Cl
ATOM     41  C   UNL     1      -8.184  -2.829 126.820  0.00  0.00    +0.000 A 
ATOM     42 CL   UNL     1      -9.582  -2.972 125.814  0.00  0.00    +0.000 Cl
ATOM     43  C   UNL     1      -8.316  -3.181 128.166  0.00  0.00    +0.000 A 
ENDBRANCH  35  36
ENDBRANCH  34  35
ENDBRANCH  32  34
ENDBRANCH  29  30
ENDBRANCH  10  29
TORSDOF 11
ENDMDL
MODEL 8
REMARK VINA RESULT:      -8.0      2.728      4.964
REMARK  Name = CHEMBL281403
REMARK  12 active torsions:
REMARK  status: ('A' for Active; 'I' for Inactive)
REMARK    1  A    between atoms: C_1  and  C_2
REMARK    2  A    between atoms: C_2  and  C_4
REMARK    3  A    between atoms: C_4  and  C_5
REMARK    4  A    between atoms: C_5  and  C_6
REMARK    5  A    between atoms: C_6  and  C_7
REMARK    6  A    between atoms: N_9  and  C_10
REMARK    7  A    between atoms: C_12  and  C_13
REMARK    8  A    between atoms: N_25  and  C_26
REMARK    9  A    between atoms: C_26  and  C_27
REMARK   10  A    between atoms: N_29  and  C_30
REMARK   11  A    between atoms: C_30  and  C_31
REMARK   12  A    between atoms: C_31  and  C_32
REMARK                            x       y       z     vdW  Elec       q    Type
REMARK                         _______ _______ _______ _____ _____    ______ ____
ROOT
ATOM      1  C   UNL     1      -9.601   5.909 131.222  0.00  0.00    +0.000 C 
ATOM      2  N   UNL     1      -8.324   6.235 130.567  0.00  0.00    +0.000 NA
ATOM      3  C   UNL     1      -7.223   5.959 131.199  0.00  0.00    +0.000 C 
ATOM      4  C   UNL     1      -7.140   5.358 132.572  0.00  0.00    +0.000 A 
ATOM      5  C   UNL     1      -6.098   5.785 133.420  0.00  0.00    +0.000 A 
ATOM      6  C   UNL     1      -5.917   5.215 134.682  0.00  0.00    +0.000 A 
ATOM      7  C   UNL     1      -6.817   4.267 135.144  0.00  0.00    +0.000 A 
ATOM      8  C   UNL     1      -7.891   3.889 134.341  0.00  0.00    +0.000 A 
ATOM      9  C   UNL     1      -8.011   4.348 133.017  0.00  0.00    +0.000 A 
ATOM     10  N   UNL     1      -8.910   3.666 132.143  0.00  0.00    +0.000 N 
ATOM     11  C   UNL     1      -9.749   4.349 131.257  0.00  0.00    +0.000 C 
ATOM     12  O   UNL     1     -10.571   3.738 130.562  0.00  0.00    +0.000 OA
ENDROOT
BRANCH   3  13
ATOM     13  C   UNL     1      -5.924   6.256 130.503  0.00  0.00    +0.000 A 
ATOM     14  C   UNL     1      -5.259   5.261 129.776  0.00  0.00    +0.000 A 
ATOM     15  C   UNL     1      -4.000   5.527 129.226  0.00  0.00    +0.000 A 
ATOM     16  C   UNL     1      -3.447   6.806 129.320  0.00  0.00    +0.000 A 
ATOM     17  C   UNL     1      -4.162   7.826 129.947  0.00  0.00    +0.000 A 
ATOM     18  C   UNL     1      -5.377   7.543 130.578  0.00  0.00    +0.000 A 
ENDBRANCH   3  13
BRANCH   1  21
ATOM     19  C   UNL     1     -11.881   6.768 131.047  0.00  0.00    +0.000 C 
ATOM     20  O   UNL     1     -12.039   6.615 132.258  0.00  0.00    +0.000 OA
ATOM     21  N   UNL     1     -10.671   6.506 130.440  0.00  0.00    +0.000 N 
ATOM     22  H   UNL     1     -10.583   6.451 129.437  0.00  0.00    +0.000 HD
BRANCH  19  23
ATOM     23  C   UNL     1     -12.999   7.274 130.132  0.00  0.00    +0.000 C 
BRANCH  23  24
ATOM     24  C   UNL     1     -12.977   6.526 128.790  0.00  0.00    +0.000 C 
BRANCH  24  25
ATOM     25  C   UNL     1     -12.742   7.425 127.574  0.00  0.00    +0.000 C 
BRANCH  25  27
ATOM     26  C   UNL     1     -11.021   7.886 125.698  0.00  0.00    +0.000 C 
ATOM     27  C   UNL     1     -11.326   7.257 127.031  0.00  0.00    +0.000 C 
ATOM     28  O   UNL     1     -10.451   6.638 127.637  0.00  0.00    +0.000 OA
ENDBRANCH  25  27
ENDBRANCH  24  25
ENDBRANCH  23  24
ENDBRANCH  19  23
ENDBRANCH   1  21
BRANCH  10  29
ATOM     29  C   UNL     1      -8.998   2.186 132.168  0.00  0.00    +0.000 C 
BRANCH  29  30
ATOM     30  C   UNL     1      -8.465   1.397 130.955  0.00  0.00    +0.000 C 
ATOM     31  O   UNL     1      -8.644   0.181 130.804  0.00  0.00    +0.000 OA
ATOM     32  N   UNL     1      -7.739   2.087 130.007  0.00  0.00    +0.000 N 
ATOM     33  H   UNL     1      -7.193   2.896 130.283  0.00  0.00    +0.000 HD
BRANCH  32  34
ATOM     34  C   UNL     1      -7.428   1.360 128.792  0.00  0.00    +0.000 C 
BRANCH  34  35
ATOM     35  C   UNL     1      -8.317   1.687 127.603  0.00  0.00    +0.000 C 
BRANCH  35  36
ATOM     36  C   UNL     1      -7.573   2.480 126.548  0.00  0.00    +0.000 A 
ATOM     37  C   UNL     1      -8.197   2.754 125.328  0.00  0.00    +0.000 A 
ATOM     38  C   UNL     1      -7.505   3.421 124.316  0.00  0.00    +0.000 A 
ATOM     39  C   UNL     1      -6.150   3.729 124.472  0.00  0.00    +0.000 A 
ATOM     40 CL   UNL     1      -5.306   4.375 123.111  0.00  0.00    +0.000 Cl
ATOM     41  C   UNL     1      -5.524   3.488 125.694  0.00  0.00    +0.000 A 
ATOM     42 CL   UNL     1      -3.843   3.787 125.960  0.00  0.00    +0.000 Cl
ATOM     43  C   UNL     1      -6.259   2.940 126.749  0.00  0.00    +0.000 A 
ENDBRANCH  35  36
ENDBRANCH  34  35
ENDBRANCH  32  34
ENDBRANCH  29  30
ENDBRANCH  10  29
TORSDOF 11
ENDMDL
MODEL 9
REMARK VINA RESULT:      -7.8      5.366      7.966
REMARK  Name = CHEMBL281403
REMARK  12 active torsions:
REMARK  status: ('A' for Active; 'I' for Inactive)
REMARK    1  A    between atoms: C_1  and  C_2
REMARK    2  A    between atoms: C_2  and  C_4
REMARK    3  A    between atoms: C_4  and  C_5
REMARK    4  A    between atoms: C_5  and  C_6
REMARK    5  A    between atoms: C_6  and  C_7
REMARK    6  A    between atoms: N_9  and  C_10
REMARK    7  A    between atoms: C_12  and  C_13
REMARK    8  A    between atoms: N_25  and  C_26
REMARK    9  A    between atoms: C_26  and  C_27
REMARK   10  A    between atoms: N_29  and  C_30
REMARK   11  A    between atoms: C_30  and  C_31
REMARK   12  A    between atoms: C_31  and  C_32
REMARK                            x       y       z     vdW  Elec       q    Type
REMARK                         _______ _______ _______ _____ _____    ______ ____
ROOT
ATOM      1  C   UNL     1      -6.949  -2.362 129.468  0.00  0.00    +0.000 C 
ATOM      2  N   UNL     1      -7.446  -1.120 130.081  0.00  0.00    +0.000 NA
ATOM      3  C   UNL     1      -7.595  -1.090 131.371  0.00  0.00    +0.000 C 
ATOM      4  C   UNL     1      -7.331  -2.239 132.300  0.00  0.00    +0.000 A 
ATOM      5  C   UNL     1      -8.175  -2.393 133.420  0.00  0.00    +0.000 A 
ATOM      6  C   UNL     1      -7.941  -3.395 134.364  0.00  0.00    +0.000 A 
ATOM      7  C   UNL     1      -6.912  -4.302 134.166  0.00  0.00    +0.000 A 
ATOM      8  C   UNL     1      -6.116  -4.201 133.027  0.00  0.00    +0.000 A 
ATOM      9  C   UNL     1      -6.247  -3.119 132.136  0.00  0.00    +0.000 A 
ATOM     10  N   UNL     1      -5.194  -2.879 131.204  0.00  0.00    +0.000 N 
ATOM     11  C   UNL     1      -5.444  -2.537 129.871  0.00  0.00    +0.000 C 
ATOM     12  O   UNL     1      -4.514  -2.406 129.064  0.00  0.00    +0.000 OA
ENDROOT
BRANCH   3  13
ATOM     13  C   UNL     1      -8.062   0.197 131.991  0.00  0.00    +0.000 A 
ATOM     14  C   UNL     1      -9.374   0.647 131.800  0.00  0.00    +0.000 A 
ATOM     15  C   UNL     1      -9.758   1.899 132.296  0.00  0.00    +0.000 A 
ATOM     16  C   UNL     1      -8.868   2.657 133.059  0.00  0.00    +0.000 A 
ATOM     17  C   UNL     1      -7.598   2.155 133.344  0.00  0.00    +0.000 A 
ATOM     18  C   UNL     1      -7.178   0.950 132.775  0.00  0.00    +0.000 A 
ENDBRANCH   3  13
BRANCH   1  21
ATOM     19  C   UNL     1      -7.991  -3.027 127.362  0.00  0.00    +0.000 C 
ATOM     20  O   UNL     1      -8.773  -3.756 127.970  0.00  0.00    +0.000 OA
ATOM     21  N   UNL     1      -7.079  -2.234 128.026  0.00  0.00    +0.000 N 
ATOM     22  H   UNL     1      -6.320  -1.780 127.542  0.00  0.00    +0.000 HD
BRANCH  19  23
ATOM     23  C   UNL     1      -7.980  -2.931 125.834  0.00  0.00    +0.000 C 
BRANCH  23  24
ATOM     24  C   UNL     1      -7.383  -1.590 125.381  0.00  0.00    +0.000 C 
BRANCH  24  25
ATOM     25  C   UNL     1      -5.907  -1.660 124.984  0.00  0.00    +0.000 C 
BRANCH  25  27
ATOM     26  C   UNL     1      -4.815  -3.578 123.633  0.00  0.00    +0.000 C 
ATOM     27  C   UNL     1      -5.730  -2.382 123.652  0.00  0.00    +0.000 C 
ATOM     28  O   UNL     1      -6.298  -2.023 122.621  0.00  0.00    +0.000 OA
ENDBRANCH  25  27
ENDBRANCH  24  25
ENDBRANCH  23  24
ENDBRANCH  19  23
ENDBRANCH   1  21
BRANCH  10  29
ATOM     29  C   UNL     1      -3.778  -3.011 131.624  0.00  0.00    +0.000 C 
BRANCH  29  30
ATOM     30  C   UNL     1      -3.169  -1.909 132.515  0.00  0.00    +0.000 C 
ATOM     31  O   UNL     1      -2.242  -2.114 133.310  0.00  0.00    +0.000 OA
ATOM     32  N   UNL     1      -3.705  -0.642 132.427  0.00  0.00    +0.000 N 
ATOM     33  H   UNL     1      -4.683  -0.525 132.184  0.00  0.00    +0.000 HD
BRANCH  32  34
ATOM     34  C   UNL     1      -2.983   0.403 133.125  0.00  0.00    +0.000 C 
BRANCH  34  35
ATOM     35  C   UNL     1      -3.812   1.623 133.492  0.00  0.00    +0.000 C 
BRANCH  35  36
ATOM     36  C   UNL     1      -3.503   2.802 132.593  0.00  0.00    +0.000 A 
ATOM     37  C   UNL     1      -4.144   2.911 131.356  0.00  0.00    +0.000 A 
ATOM     38  C   UNL     1      -3.820   3.951 130.483  0.00  0.00    +0.000 A 
ATOM     39  C   UNL     1      -2.781   4.833 130.791  0.00  0.00    +0.000 A 
ATOM     40 CL   UNL     1      -2.304   5.972 129.584  0.00  0.00    +0.000 Cl
ATOM     41  C   UNL     1      -2.155   4.755 132.034  0.00  0.00    +0.000 A 
ATOM     42 CL   UNL     1      -0.828   5.769 132.479  0.00  0.00    +0.000 Cl
ATOM     43  C   UNL     1      -2.574   3.793 132.957  0.00  0.00    +0.000 A 
ENDBRANCH  35  36
ENDBRANCH  34  35
ENDBRANCH  32  34
ENDBRANCH  29  30
ENDBRANCH  10  29
TORSDOF 11
ENDMDL
