MODEL 1
REMARK VINA RESULT:      -9.9      0.000      0.000
REMARK  Name = CHEMBL119793
REMARK  4 active torsions:
REMARK  status: ('A' for Active; 'I' for Inactive)
REMARK    1  A    between atoms: C_1  and  C_2
REMARK    2  A    between atoms: C_7  and  C_8
REMARK    3  A    between atoms: N_10  and  C_11
REMARK    4  A    between atoms: C_14  and  C_15
REMARK                            x       y       z     vdW  Elec       q    Type
REMARK                         _______ _______ _______ _____ _____    ______ ____
ROOT
ATOM      1  C   UNL     1      -7.077   1.106 124.375  0.00  0.00    +0.000 A 
ATOM      2  C   UNL     1      -8.094   0.302 124.864  0.00  0.00    +0.000 A 
ATOM      3  C   UNL     1      -8.253  -0.340 126.382  0.00  0.00    +0.000 A 
ATOM      4  C   UNL     1      -7.505  -0.263 127.669  0.00  0.00    +0.000 A 
ATOM      5  C   UNL     1      -6.251   0.561 126.840  0.00  0.00    +0.000 A 
ATOM      6  C   UNL     1      -6.055   1.202 125.295  0.00  0.00    +0.000 A 
ENDROOT
BRANCH   4   7
ATOM      7  C   UNL     1      -7.779  -0.863 129.599  0.00  0.00    +0.000 C 
ATOM      8  O   UNL     1      -7.937   0.412 129.822  0.00  0.00    +0.000 OA
ATOM      9  N   UNL     1      -7.837  -2.062 131.171  0.00  0.00    +0.000 N 
ATOM     10  C   UNL     1      -6.658  -1.521 130.796  0.00  0.00    +0.000 C 
ATOM     11  C   UNL     1      -5.997  -2.782 130.289  0.00  0.00    +0.000 C 
ATOM     12  C   UNL     1      -5.948  -3.330 131.590  0.00  0.00    +0.000 C 
ATOM     13  C   UNL     1      -5.488  -4.555 132.078  0.00  0.00    +0.000 C 
ATOM     14  C   UNL     1      -6.352  -4.296 133.276  0.00  0.00    +0.000 A 
ATOM     15  C   UNL     1      -5.732  -5.687 134.227  0.00  0.00    +0.000 A 
ATOM     16  C   UNL     1      -6.104  -6.119 135.465  0.00  0.00    +0.000 A 
ATOM     17  C   UNL     1      -7.078  -5.156 135.713  0.00  0.00    +0.000 A 
ATOM     18  C   UNL     1      -7.679  -3.784 134.613  0.00  0.00    +0.000 A 
ATOM     19  C   UNL     1      -7.436  -2.895 133.056  0.00  0.00    +0.000 A 
ENDBRANCH   4   7
BRANCH   1  22
ATOM     20  C   UNL     1      -7.779   2.912 122.761  0.00  0.00    +0.000 C 
ATOM     21  O   UNL     1      -8.374   3.565 123.616  0.00  0.00    +0.000 OA
ATOM     22  N   UNL     1      -7.112   1.709 123.083  0.00  0.00    +0.000 N 
ATOM     23  H   UNL     1      -6.545   1.224 122.421  0.00  0.00    +0.000 HD
BRANCH  20  30
ATOM     24  C   UNL     1      -5.247   3.832 121.348  0.00  0.00    +0.000 C 
ATOM     25  C   UNL     1      -6.578   3.905 120.693  0.00  0.00    +0.000 A 
ATOM     26  C   UNL     1      -6.637   4.419 119.387  0.00  0.00    +0.000 A 
ATOM     27  C   UNL     1      -7.845   4.540 118.716  0.00  0.00    +0.000 A 
ATOM     28  C   UNL     1      -9.019   4.152 119.345  0.00  0.00    +0.000 A 
ATOM     29  C   UNL     1      -8.971   3.625 120.645  0.00  0.00    +0.000 A 
ATOM     30  C   UNL     1      -7.748   3.491 121.348  0.00  0.00    +0.000 A 
ENDBRANCH  20  30
ENDBRANCH   1  22
TORSDOF 3
ENDMDL
MODEL 2
REMARK VINA RESULT:      -9.3      1.524      2.003
REMARK  Name = CHEMBL119793
REMARK  4 active torsions:
REMARK  status: ('A' for Active; 'I' for Inactive)
REMARK    1  A    between atoms: C_1  and  C_2
REMARK    2  A    between atoms: C_7  and  C_8
REMARK    3  A    between atoms: N_10  and  C_11
REMARK    4  A    between atoms: C_14  and  C_15
REMARK                            x       y       z     vdW  Elec       q    Type
REMARK                         _______ _______ _______ _____ _____    ______ ____
ROOT
ATOM      1  C   UNL     1      -7.619   0.683 124.175  0.00  0.00    +0.000 A 
ATOM      2  C   UNL     1      -6.475   0.421 124.912  0.00  0.00    +0.000 A 
ATOM      3  C   UNL     1      -6.328  -0.489 126.287  0.00  0.00    +0.000 A 
ATOM      4  C   UNL     1      -7.228  -1.331 127.124  0.00  0.00    +0.000 A 
ATOM      5  C   UNL     1      -8.554  -0.740 126.213  0.00  0.00    +0.000 A 
ATOM      6  C   UNL     1      -8.734   0.203 124.830  0.00  0.00    +0.000 A 
ENDROOT
BRANCH   4   7
ATOM      7  C   UNL     1      -7.043  -2.625 128.690  0.00  0.00    +0.000 C 
ATOM      8  O   UNL     1      -8.345  -2.573 128.701  0.00  0.00    +0.000 OA
ATOM      9  N   UNL     1      -6.176  -3.703 130.103  0.00  0.00    +0.000 N 
ATOM     10  C   UNL     1      -6.444  -2.400 130.337  0.00  0.00    +0.000 C 
ATOM     11  C   UNL     1      -5.023  -1.886 130.335  0.00  0.00    +0.000 C 
ATOM     12  C   UNL     1      -4.721  -2.595 131.520  0.00  0.00    +0.000 C 
ATOM     13  C   UNL     1      -3.549  -2.720 132.268  0.00  0.00    +0.000 C 
ATOM     14  C   UNL     1      -4.156  -3.967 132.839  0.00  0.00    +0.000 A 
ATOM     15  C   UNL     1      -2.882  -4.217 134.078  0.00  0.00    +0.000 A 
ATOM     16  C   UNL     1      -2.749  -5.224 134.986  0.00  0.00    +0.000 A 
ATOM     17  C   UNL     1      -3.883  -5.947 134.631  0.00  0.00    +0.000 A 
ATOM     18  C   UNL     1      -5.110  -5.614 133.274  0.00  0.00    +0.000 A 
ATOM     19  C   UNL     1      -5.648  -4.458 131.990  0.00  0.00    +0.000 A 
ENDBRANCH   4   7
BRANCH   1  22
ATOM     20  C   UNL     1      -7.903   2.747 122.754  0.00  0.00    +0.000 C 
ATOM     21  O   UNL     1      -8.180   3.470 123.708  0.00  0.00    +0.000 OA
ATOM     22  N   UNL     1      -7.602   1.377 122.929  0.00  0.00    +0.000 N 
ATOM     23  H   UNL     1      -7.280   0.805 122.178  0.00  0.00    +0.000 HD
BRANCH  20  30
ATOM     24  C   UNL     1      -5.342   3.742 121.447  0.00  0.00    +0.000 C 
ATOM     25  C   UNL     1      -6.661   3.858 120.773  0.00  0.00    +0.000 A 
ATOM     26  C   UNL     1      -6.693   4.450 119.499  0.00  0.00    +0.000 A 
ATOM     27  C   UNL     1      -7.889   4.615 118.814  0.00  0.00    +0.000 A 
ATOM     28  C   UNL     1      -9.075   4.193 119.397  0.00  0.00    +0.000 A 
ATOM     29  C   UNL     1      -9.053   3.589 120.663  0.00  0.00    +0.000 A 
ATOM     30  C   UNL     1      -7.844   3.409 121.379  0.00  0.00    +0.000 A 
ENDBRANCH  20  30
ENDBRANCH   1  22
TORSDOF 3
ENDMDL
MODEL 3
REMARK VINA RESULT:      -8.9      6.839      7.790
REMARK  Name = CHEMBL119793
REMARK  4 active torsions:
REMARK  status: ('A' for Active; 'I' for Inactive)
REMARK    1  A    between atoms: C_1  and  C_2
REMARK    2  A    between atoms: C_7  and  C_8
REMARK    3  A    between atoms: N_10  and  C_11
REMARK    4  A    between atoms: C_14  and  C_15
REMARK                            x       y       z     vdW  Elec       q    Type
REMARK                         _______ _______ _______ _____ _____    ______ ____
ROOT
ATOM      1  C   UNL     1      -4.264   4.066 126.936  0.00  0.00    +0.000 A 
ATOM      2  C   UNL     1      -4.955   3.509 128.000  0.00  0.00    +0.000 A 
ATOM      3  C   UNL     1      -4.782   3.832 129.615  0.00  0.00    +0.000 A 
ATOM      4  C   UNL     1      -3.977   4.769 130.447  0.00  0.00    +0.000 A 
ATOM      5  C   UNL     1      -3.096   5.193 129.039  0.00  0.00    +0.000 A 
ATOM      6  C   UNL     1      -3.234   4.861 127.394  0.00  0.00    +0.000 A 
ENDROOT
BRANCH   4   7
ATOM      7  C   UNL     1      -3.889   5.339 132.403  0.00  0.00    +0.000 C 
ATOM      8  O   UNL     1      -2.772   4.666 132.401  0.00  0.00    +0.000 OA
ATOM      9  N   UNL     1      -4.461   6.118 134.129  0.00  0.00    +0.000 N 
ATOM     10  C   UNL     1      -4.844   4.863 133.812  0.00  0.00    +0.000 C 
ATOM     11  C   UNL     1      -6.314   5.137 133.591  0.00  0.00    +0.000 C 
ATOM     12  C   UNL     1      -6.507   5.429 134.961  0.00  0.00    +0.000 C 
ATOM     13  C   UNL     1      -7.630   5.828 135.687  0.00  0.00    +0.000 C 
ATOM     14  C   UNL     1      -6.668   6.331 136.721  0.00  0.00    +0.000 A 
ATOM     15  C   UNL     1      -7.925   6.706 137.946  0.00  0.00    +0.000 A 
ATOM     16  C   UNL     1      -7.784   7.254 139.186  0.00  0.00    +0.000 A 
ATOM     17  C   UNL     1      -6.402   7.413 139.163  0.00  0.00    +0.000 A 
ATOM     18  C   UNL     1      -5.199   7.037 137.796  0.00  0.00    +0.000 A 
ATOM     19  C   UNL     1      -4.974   6.307 136.156  0.00  0.00    +0.000 A 
ENDBRANCH   4   7
BRANCH   1  22
ATOM     20  C   UNL     1      -5.480   4.566 124.784  0.00  0.00    +0.000 C 
ATOM     21  O   UNL     1      -6.035   5.568 125.230  0.00  0.00    +0.000 OA
ATOM     22  N   UNL     1      -4.589   3.804 125.572  0.00  0.00    +0.000 N 
ATOM     23  H   UNL     1      -4.057   3.049 125.193  0.00  0.00    +0.000 HD
BRANCH  20  30
ATOM     24  C   UNL     1      -7.902   2.991 123.830  0.00  0.00    +0.000 C 
ATOM     25  C   UNL     1      -6.877   3.500 122.883  0.00  0.00    +0.000 A 
ATOM     26  C   UNL     1      -7.059   3.228 121.517  0.00  0.00    +0.000 A 
ATOM     27  C   UNL     1      -6.134   3.650 120.571  0.00  0.00    +0.000 A 
ATOM     28  C   UNL     1      -5.008   4.348 120.980  0.00  0.00    +0.000 A 
ATOM     29  C   UNL     1      -4.823   4.636 122.341  0.00  0.00    +0.000 A 
ATOM     30  C   UNL     1      -5.754   4.217 123.323  0.00  0.00    +0.000 A 
ENDBRANCH  20  30
ENDBRANCH   1  22
TORSDOF 3
ENDMDL
MODEL 4
REMARK VINA RESULT:      -8.9      7.127      9.339
REMARK  Name = CHEMBL119793
REMARK  4 active torsions:
REMARK  status: ('A' for Active; 'I' for Inactive)
REMARK    1  A    between atoms: C_1  and  C_2
REMARK    2  A    between atoms: C_7  and  C_8
REMARK    3  A    between atoms: N_10  and  C_11
REMARK    4  A    between atoms: C_14  and  C_15
REMARK                            x       y       z     vdW  Elec       q    Type
REMARK                         _______ _______ _______ _____ _____    ______ ____
ROOT
ATOM      1  C   UNL     1      -5.882   1.786 126.015  0.00  0.00    +0.000 A 
ATOM      2  C   UNL     1      -5.190   1.775 127.216  0.00  0.00    +0.000 A 
ATOM      3  C   UNL     1      -4.587   3.064 128.063  0.00  0.00    +0.000 A 
ATOM      4  C   UNL     1      -4.606   4.548 127.927  0.00  0.00    +0.000 A 
ATOM      5  C   UNL     1      -5.289   4.351 126.367  0.00  0.00    +0.000 A 
ATOM      6  C   UNL     1      -5.887   3.055 125.474  0.00  0.00    +0.000 A 
ENDROOT
BRANCH   4   7
ATOM      7  C   UNL     1      -4.063   6.162 129.048  0.00  0.00    +0.000 C 
ATOM      8  O   UNL     1      -4.138   6.797 127.911  0.00  0.00    +0.000 OA
ATOM      9  N   UNL     1      -3.459   7.204 130.617  0.00  0.00    +0.000 N 
ATOM     10  C   UNL     1      -2.542   6.585 129.843  0.00  0.00    +0.000 C 
ATOM     11  C   UNL     1      -2.123   5.513 130.823  0.00  0.00    +0.000 C 
ATOM     12  C   UNL     1      -1.542   6.470 131.685  0.00  0.00    +0.000 C 
ATOM     13  C   UNL     1      -0.904   6.357 132.921  0.00  0.00    +0.000 C 
ATOM     14  C   UNL     1      -1.210   7.813 133.108  0.00  0.00    +0.000 A 
ATOM     15  C   UNL     1      -0.236   7.994 134.605  0.00  0.00    +0.000 A 
ATOM     16  C   UNL     1      -0.066   9.091 135.396  0.00  0.00    +0.000 A 
ATOM     17  C   UNL     1      -0.870   9.967 134.673  0.00  0.00    +0.000 A 
ATOM     18  C   UNL     1      -1.889   9.643 133.152  0.00  0.00    +0.000 A 
ATOM     19  C   UNL     1      -2.313   8.452 131.858  0.00  0.00    +0.000 A 
ENDBRANCH   4   7
BRANCH   1  22
ATOM     20  C   UNL     1      -7.822   0.238 125.571  0.00  0.00    +0.000 C 
ATOM     21  O   UNL     1      -8.629   0.933 126.185  0.00  0.00    +0.000 OA
ATOM     22  N   UNL     1      -6.468   0.619 125.442  0.00  0.00    +0.000 N 
ATOM     23  H   UNL     1      -5.828   0.117 124.864  0.00  0.00    +0.000 HD
BRANCH  20  30
ATOM     24  C   UNL     1      -8.240  -2.408 127.014  0.00  0.00    +0.000 C 
ATOM     25  C   UNL     1      -8.566  -2.241 125.574  0.00  0.00    +0.000 A 
ATOM     26  C   UNL     1      -9.079  -3.355 124.889  0.00  0.00    +0.000 A 
ATOM     27  C   UNL     1      -9.388  -3.287 123.537  0.00  0.00    +0.000 A 
ATOM     28  C   UNL     1      -9.184  -2.101 122.848  0.00  0.00    +0.000 A 
ATOM     29  C   UNL     1      -8.685  -0.978 123.526  0.00  0.00    +0.000 A 
ATOM     30  C   UNL     1      -8.364  -1.025 124.905  0.00  0.00    +0.000 A 
ENDBRANCH  20  30
ENDBRANCH   1  22
TORSDOF 3
ENDMDL
MODEL 5
REMARK VINA RESULT:      -8.7      7.632     11.217
REMARK  Name = CHEMBL119793
REMARK  4 active torsions:
REMARK  status: ('A' for Active; 'I' for Inactive)
REMARK    1  A    between atoms: C_1  and  C_2
REMARK    2  A    between atoms: C_7  and  C_8
REMARK    3  A    between atoms: N_10  and  C_11
REMARK    4  A    between atoms: C_14  and  C_15
REMARK                            x       y       z     vdW  Elec       q    Type
REMARK                         _______ _______ _______ _____ _____    ______ ____
ROOT
ATOM      1  C   UNL     1      -2.224   6.012 130.223  0.00  0.00    +0.000 A 
ATOM      2  C   UNL     1      -3.082   4.935 130.381  0.00  0.00    +0.000 A 
ATOM      3  C   UNL     1      -3.923   4.116 129.214  0.00  0.00    +0.000 A 
ATOM      4  C   UNL     1      -4.025   4.158 127.728  0.00  0.00    +0.000 A 
ATOM      5  C   UNL     1      -3.103   5.602 127.750  0.00  0.00    +0.000 A 
ATOM      6  C   UNL     1      -2.259   6.468 128.922  0.00  0.00    +0.000 A 
ENDROOT
BRANCH   4   7
ATOM      7  C   UNL     1      -4.879   3.039 126.252  0.00  0.00    +0.000 C 
ATOM      8  O   UNL     1      -4.929   4.176 125.615  0.00  0.00    +0.000 OA
ATOM      9  N   UNL     1      -5.680   1.472 125.349  0.00  0.00    +0.000 N 
ATOM     10  C   UNL     1      -6.454   2.247 126.138  0.00  0.00    +0.000 C 
ATOM     11  C   UNL     1      -6.655   1.267 127.270  0.00  0.00    +0.000 C 
ATOM     12  C   UNL     1      -7.416   0.407 126.446  0.00  0.00    +0.000 C 
ATOM     13  C   UNL     1      -8.021  -0.829 126.683  0.00  0.00    +0.000 C 
ATOM     14  C   UNL     1      -8.009  -1.015 125.195  0.00  0.00    +0.000 A 
ATOM     15  C   UNL     1      -9.003  -2.510 125.210  0.00  0.00    +0.000 A 
ATOM     16  C   UNL     1      -9.387  -3.299 124.167  0.00  0.00    +0.000 A 
ATOM     17  C   UNL     1      -8.771  -2.578 123.150  0.00  0.00    +0.000 A 
ATOM     18  C   UNL     1      -7.705  -1.059 123.267  0.00  0.00    +0.000 A 
ATOM     19  C   UNL     1      -7.051   0.234 124.352  0.00  0.00    +0.000 A 
ENDBRANCH   4   7
BRANCH   1  22
ATOM     20  C   UNL     1      -1.899   7.539 132.204  0.00  0.00    +0.000 C 
ATOM     21  O   UNL     1      -3.043   7.986 132.156  0.00  0.00    +0.000 OA
ATOM     22  N   UNL     1      -1.452   6.557 131.291  0.00  0.00    +0.000 N 
ATOM     23  H   UNL     1      -0.562   6.115 131.380  0.00  0.00    +0.000 HD
BRANCH  20  30
ATOM     24  C   UNL     1      -1.636  10.470 132.975  0.00  0.00    +0.000 C 
ATOM     25  C   UNL     1      -0.890   9.403 133.690  0.00  0.00    +0.000 A 
ATOM     26  C   UNL     1      -0.048   9.790 134.745  0.00  0.00    +0.000 A 
ATOM     27  C   UNL     1       0.700   8.855 135.448  0.00  0.00    +0.000 A 
ATOM     28  C   UNL     1       0.619   7.514 135.102  0.00  0.00    +0.000 A 
ATOM     29  C   UNL     1      -0.229   7.115 134.058  0.00  0.00    +0.000 A 
ATOM     30  C   UNL     1      -1.002   8.052 133.328  0.00  0.00    +0.000 A 
ENDBRANCH  20  30
ENDBRANCH   1  22
TORSDOF 3
ENDMDL
MODEL 6
REMARK VINA RESULT:      -8.5      7.987     11.077
REMARK  Name = CHEMBL119793
REMARK  4 active torsions:
REMARK  status: ('A' for Active; 'I' for Inactive)
REMARK    1  A    between atoms: C_1  and  C_2
REMARK    2  A    between atoms: C_7  and  C_8
REMARK    3  A    between atoms: N_10  and  C_11
REMARK    4  A    between atoms: C_14  and  C_15
REMARK                            x       y       z     vdW  Elec       q    Type
REMARK                         _______ _______ _______ _____ _____    ______ ____
ROOT
ATOM      1  C   UNL     1      -3.460   6.583 130.979  0.00  0.00    +0.000 A 
ATOM      2  C   UNL     1      -3.051   6.539 129.656  0.00  0.00    +0.000 A 
ATOM      3  C   UNL     1      -3.188   5.286 128.582  0.00  0.00    +0.000 A 
ATOM      4  C   UNL     1      -3.786   3.921 128.589  0.00  0.00    +0.000 A 
ATOM      5  C   UNL     1      -4.037   4.088 130.276  0.00  0.00    +0.000 A 
ATOM      6  C   UNL     1      -3.884   5.338 131.393  0.00  0.00    +0.000 A 
ENDROOT
BRANCH   4   7
ATOM      7  C   UNL     1      -4.158   2.442 127.236  0.00  0.00    +0.000 C 
ATOM      8  O   UNL     1      -3.442   3.186 126.439  0.00  0.00    +0.000 OA
ATOM      9  N   UNL     1      -4.945   0.801 126.461  0.00  0.00    +0.000 N 
ATOM     10  C   UNL     1      -5.636   1.959 126.397  0.00  0.00    +0.000 C 
ATOM     11  C   UNL     1      -6.731   1.609 127.379  0.00  0.00    +0.000 C 
ATOM     12  C   UNL     1      -7.251   0.623 126.511  0.00  0.00    +0.000 C 
ATOM     13  C   UNL     1      -8.319  -0.269 126.634  0.00  0.00    +0.000 C 
ATOM     14  C   UNL     1      -7.648  -1.074 125.561  0.00  0.00    +0.000 A 
ATOM     15  C   UNL     1      -9.010  -2.225 125.346  0.00  0.00    +0.000 A 
ATOM     16  C   UNL     1      -9.102  -3.306 124.522  0.00  0.00    +0.000 A 
ATOM     17  C   UNL     1      -7.841  -3.207 123.943  0.00  0.00    +0.000 A 
ATOM     18  C   UNL     1      -6.479  -1.991 124.295  0.00  0.00    +0.000 A 
ATOM     19  C   UNL     1      -6.003  -0.491 125.188  0.00  0.00    +0.000 A 
ENDBRANCH   4   7
BRANCH   1  22
ATOM     20  C   UNL     1      -2.269   8.231 132.472  0.00  0.00    +0.000 C 
ATOM     21  O   UNL     1      -1.194   7.638 132.414  0.00  0.00    +0.000 OA
ATOM     22  N   UNL     1      -3.406   7.767 131.773  0.00  0.00    +0.000 N 
ATOM     23  H   UNL     1      -4.254   8.291 131.731  0.00  0.00    +0.000 HD
BRANCH  20  30
ATOM     24  C   UNL     1      -2.730   8.343 135.477  0.00  0.00    +0.000 C 
ATOM     25  C   UNL     1      -2.505   9.572 134.674  0.00  0.00    +0.000 A 
ATOM     26  C   UNL     1      -2.512  10.804 135.349  0.00  0.00    +0.000 A 
ATOM     27  C   UNL     1      -2.331  11.999 134.666  0.00  0.00    +0.000 A 
ATOM     28  C   UNL     1      -2.144  11.979 133.292  0.00  0.00    +0.000 A 
ATOM     29  C   UNL     1      -2.122  10.754 132.609  0.00  0.00    +0.000 A 
ATOM     30  C   UNL     1      -2.303   9.522 133.286  0.00  0.00    +0.000 A 
ENDBRANCH  20  30
ENDBRANCH   1  22
TORSDOF 3
ENDMDL
MODEL 7
REMARK VINA RESULT:      -8.4      8.297     10.851
REMARK  Name = CHEMBL119793
REMARK  4 active torsions:
REMARK  status: ('A' for Active; 'I' for Inactive)
REMARK    1  A    between atoms: C_1  and  C_2
REMARK    2  A    between atoms: C_7  and  C_8
REMARK    3  A    between atoms: N_10  and  C_11
REMARK    4  A    between atoms: C_14  and  C_15
REMARK                            x       y       z     vdW  Elec       q    Type
REMARK                         _______ _______ _______ _____ _____    ______ ____
ROOT
ATOM      1  C   UNL     1      -7.002   1.156 131.278  0.00  0.00    +0.000 A 
ATOM      2  C   UNL     1      -7.537   1.334 132.544  0.00  0.00    +0.000 A 
ATOM      3  C   UNL     1      -7.095   2.436 133.697  0.00  0.00    +0.000 A 
ATOM      4  C   UNL     1      -6.128   3.566 133.795  0.00  0.00    +0.000 A 
ATOM      5  C   UNL     1      -5.467   3.071 132.293  0.00  0.00    +0.000 A 
ATOM      6  C   UNL     1      -5.880   1.941 131.115  0.00  0.00    +0.000 A 
ENDROOT
BRANCH   4   7
ATOM      7  C   UNL     1      -5.706   5.067 135.109  0.00  0.00    +0.000 C 
ATOM      8  O   UNL     1      -4.745   4.271 135.489  0.00  0.00    +0.000 OA
ATOM      9  N   UNL     1      -5.914   6.760 136.111  0.00  0.00    +0.000 N 
ATOM     10  C   UNL     1      -6.562   5.655 136.539  0.00  0.00    +0.000 C 
ATOM     11  C   UNL     1      -7.969   6.086 136.193  0.00  0.00    +0.000 C 
ATOM     12  C   UNL     1      -7.942   7.107 137.170  0.00  0.00    +0.000 C 
ATOM     13  C   UNL     1      -8.876   8.074 137.545  0.00  0.00    +0.000 C 
ATOM     14  C   UNL     1      -7.721   8.827 138.135  0.00  0.00    +0.000 A 
ATOM     15  C   UNL     1      -8.732  10.073 138.938  0.00  0.00    +0.000 A 
ATOM     16  C   UNL     1      -8.345  11.158 139.668  0.00  0.00    +0.000 A 
ATOM     17  C   UNL     1      -6.971  10.966 139.572  0.00  0.00    +0.000 A 
ATOM     18  C   UNL     1      -6.029   9.654 138.651  0.00  0.00    +0.000 A 
ATOM     19  C   UNL     1      -6.141   8.124 137.691  0.00  0.00    +0.000 A 
ENDBRANCH   4   7
BRANCH   1  22
ATOM     20  C   UNL     1      -6.950  -0.951 129.892  0.00  0.00    +0.000 C 
ATOM     21  O   UNL     1      -5.883  -1.337 130.363  0.00  0.00    +0.000 OA
ATOM     22  N   UNL     1      -7.551   0.255 130.319  0.00  0.00    +0.000 N 
ATOM     23  H   UNL     1      -8.462   0.529 130.018  0.00  0.00    +0.000 HD
BRANCH  20  30
ATOM     24  C   UNL     1      -7.164  -0.318 126.924  0.00  0.00    +0.000 C 
ATOM     25  C   UNL     1      -7.712  -1.574 127.498  0.00  0.00    +0.000 A 
ATOM     26  C   UNL     1      -8.342  -2.472 126.621  0.00  0.00    +0.000 A 
ATOM     27  C   UNL     1      -8.899  -3.657 127.083  0.00  0.00    +0.000 A 
ATOM     28  C   UNL     1      -8.839  -3.959 128.435  0.00  0.00    +0.000 A 
ATOM     29  C   UNL     1      -8.201  -3.075 129.319  0.00  0.00    +0.000 A 
ATOM     30  C   UNL     1      -7.624  -1.861 128.868  0.00  0.00    +0.000 A 
ENDBRANCH  20  30
ENDBRANCH   1  22
TORSDOF 3
ENDMDL
MODEL 8
REMARK VINA RESULT:      -8.4      8.232     11.764
REMARK  Name = CHEMBL119793
REMARK  4 active torsions:
REMARK  status: ('A' for Active; 'I' for Inactive)
REMARK    1  A    between atoms: C_1  and  C_2
REMARK    2  A    between atoms: C_7  and  C_8
REMARK    3  A    between atoms: N_10  and  C_11
REMARK    4  A    between atoms: C_14  and  C_15
REMARK                            x       y       z     vdW  Elec       q    Type
REMARK                         _______ _______ _______ _____ _____    ______ ____
ROOT
ATOM      1  C   UNL     1      -1.730   6.216 131.096  0.00  0.00    +0.000 A 
ATOM      2  C   UNL     1      -1.843   6.506 129.746  0.00  0.00    +0.000 A 
ATOM      3  C   UNL     1      -2.797   5.763 128.615  0.00  0.00    +0.000 A 
ATOM      4  C   UNL     1      -3.824   4.683 128.612  0.00  0.00    +0.000 A 
ATOM      5  C   UNL     1      -3.406   4.342 130.238  0.00  0.00    +0.000 A 
ATOM      6  C   UNL     1      -2.425   5.064 131.401  0.00  0.00    +0.000 A 
ENDROOT
BRANCH   4   7
ATOM      7  C   UNL     1      -5.161   3.891 127.291  0.00  0.00    +0.000 C 
ATOM      8  O   UNL     1      -5.985   4.746 127.831  0.00  0.00    +0.000 OA
ATOM      9  N   UNL     1      -5.905   2.677 125.918  0.00  0.00    +0.000 N 
ATOM     10  C   UNL     1      -5.944   2.309 127.217  0.00  0.00    +0.000 C 
ATOM     11  C   UNL     1      -4.922   1.197 127.155  0.00  0.00    +0.000 C 
ATOM     12  C   UNL     1      -5.769   0.407 126.345  0.00  0.00    +0.000 C 
ATOM     13  C   UNL     1      -5.605  -0.850 125.761  0.00  0.00    +0.000 C 
ATOM     14  C   UNL     1      -6.702  -0.452 124.818  0.00  0.00    +0.000 A 
ATOM     15  C   UNL     1      -6.865  -2.072 124.062  0.00  0.00    +0.000 A 
ATOM     16  C   UNL     1      -7.684  -2.472 123.049  0.00  0.00    +0.000 A 
ATOM     17  C   UNL     1      -8.309  -1.250 122.822  0.00  0.00    +0.000 A 
ATOM     18  C   UNL     1      -8.010   0.393 123.639  0.00  0.00    +0.000 A 
ATOM     19  C   UNL     1      -7.137   1.274 124.957  0.00  0.00    +0.000 A 
ENDBRANCH   4   7
BRANCH   1  22
ATOM     20  C   UNL     1      -1.457   8.126 132.720  0.00  0.00    +0.000 C 
ATOM     21  O   UNL     1      -2.629   8.484 132.629  0.00  0.00    +0.000 OA
ATOM     22  N   UNL     1      -0.969   7.010 132.003  0.00  0.00    +0.000 N 
ATOM     23  H   UNL     1      -0.049   6.651 132.144  0.00  0.00    +0.000 HD
BRANCH  20  30
ATOM     24  C   UNL     1      -0.723   7.178 135.516  0.00  0.00    +0.000 C 
ATOM     25  C   UNL     1      -0.222   8.466 134.970  0.00  0.00    +0.000 A 
ATOM     26  C   UNL     1       0.609   9.244 135.792  0.00  0.00    +0.000 A 
ATOM     27  C   UNL     1       1.100  10.469 135.362  0.00  0.00    +0.000 A 
ATOM     28  C   UNL     1       0.762  10.938 134.101  0.00  0.00    +0.000 A 
ATOM     29  C   UNL     1      -0.058  10.163 133.267  0.00  0.00    +0.000 A 
ATOM     30  C   UNL     1      -0.568   8.908 133.684  0.00  0.00    +0.000 A 
ENDBRANCH  20  30
ENDBRANCH   1  22
TORSDOF 3
ENDMDL
MODEL 9
REMARK VINA RESULT:      -8.3      9.847     12.884
REMARK  Name = CHEMBL119793
REMARK  4 active torsions:
REMARK  status: ('A' for Active; 'I' for Inactive)
REMARK    1  A    between atoms: C_1  and  C_2
REMARK    2  A    between atoms: C_7  and  C_8
REMARK    3  A    between atoms: N_10  and  C_11
REMARK    4  A    between atoms: C_14  and  C_15
REMARK                            x       y       z     vdW  Elec       q    Type
REMARK                         _______ _______ _______ _____ _____    ______ ____
ROOT
ATOM      1  C   UNL     1      -7.108   2.093 133.614  0.00  0.00    +0.000 A 
ATOM      2  C   UNL     1      -5.974   2.492 134.303  0.00  0.00    +0.000 A 
ATOM      3  C   UNL     1      -5.743   3.876 135.182  0.00  0.00    +0.000 A 
ATOM      4  C   UNL     1      -6.570   5.049 135.584  0.00  0.00    +0.000 A 
ATOM      5  C   UNL     1      -7.795   4.493 134.521  0.00  0.00    +0.000 A 
ATOM      6  C   UNL     1      -8.044   3.106 133.600  0.00  0.00    +0.000 A 
ENDROOT
BRANCH   4   7
ATOM      7  C   UNL     1      -6.389   6.655 136.827  0.00  0.00    +0.000 C 
ATOM      8  O   UNL     1      -5.477   5.924 137.405  0.00  0.00    +0.000 OA
ATOM      9  N   UNL     1      -6.789   8.407 137.653  0.00  0.00    +0.000 N 
ATOM     10  C   UNL     1      -7.466   7.314 138.063  0.00  0.00    +0.000 C 
ATOM     11  C   UNL     1      -8.815   7.666 137.480  0.00  0.00    +0.000 C 
ATOM     12  C   UNL     1      -8.961   8.756 138.368  0.00  0.00    +0.000 C 
ATOM     13  C   UNL     1      -9.965   9.713 138.525  0.00  0.00    +0.000 C 
ATOM     14  C   UNL     1      -8.932  10.548 139.221  0.00  0.00    +0.000 A 
ATOM     15  C   UNL     1     -10.084  11.812 139.766  0.00  0.00    +0.000 A 
ATOM     16  C   UNL     1      -9.840  12.959 140.460  0.00  0.00    +0.000 A 
ATOM     17  C   UNL     1      -8.462  12.811 140.585  0.00  0.00    +0.000 A 
ATOM     18  C   UNL     1      -7.360  11.471 139.918  0.00  0.00    +0.000 A 
ATOM     19  C   UNL     1      -7.286   9.873 139.072  0.00  0.00    +0.000 A 
ENDBRANCH   4   7
BRANCH   1  22
ATOM     20  C   UNL     1      -6.742   0.470 131.718  0.00  0.00    +0.000 C 
ATOM     21  O   UNL     1      -6.115   1.277 131.035  0.00  0.00    +0.000 OA
ATOM     22  N   UNL     1      -7.236   0.814 132.997  0.00  0.00    +0.000 N 
ATOM     23  H   UNL     1      -7.658   0.141 133.600  0.00  0.00    +0.000 HD
BRANCH  20  30
ATOM     24  C   UNL     1      -5.090  -1.937 132.574  0.00  0.00    +0.000 C 
ATOM     25  C   UNL     1      -6.159  -2.046 131.548  0.00  0.00    +0.000 A 
ATOM     26  C   UNL     1      -6.387  -3.308 130.975  0.00  0.00    +0.000 A 
ATOM     27  C   UNL     1      -7.352  -3.488 129.994  0.00  0.00    +0.000 A 
ATOM     28  C   UNL     1      -8.103  -2.403 129.567  0.00  0.00    +0.000 A 
ATOM     29  C   UNL     1      -7.892  -1.140 130.141  0.00  0.00    +0.000 A 
ATOM     30  C   UNL     1      -6.914  -0.934 131.145  0.00  0.00    +0.000 A 
ENDBRANCH  20  30
ENDBRANCH   1  22
TORSDOF 3
ENDMDL
