MODEL 1
REMARK VINA RESULT:      -9.9      0.000      0.000
REMARK  Name = CHEMBL24526
REMARK  9 active torsions:
REMARK  status: ('A' for Active; 'I' for Inactive)
REMARK    1  A    between atoms: C_1  and  C_2
REMARK    2  A    between atoms: C_7  and  O_8
REMARK    3  A    between atoms: O_8  and  C_9
REMARK    4  A    between atoms: C_12  and  C_13
REMARK    5  A    between atoms: C_13  and  C_14
REMARK    6  A    between atoms: C_19  and  N_20
REMARK    7  A    between atoms: C_33  and  O_34
REMARK    8  A    between atoms: O_34  and  C_35
REMARK    9  A    between atoms: C_35  and  C_36
REMARK                            x       y       z     vdW  Elec       q    Type
REMARK                         _______ _______ _______ _____ _____    ______ ____
ROOT
ATOM      1  C   UNL     1      -9.144   6.021 131.786  0.00  0.00    +0.000 A 
ATOM      2  C   UNL     1      -8.016   6.636 131.266  0.00  0.00    +0.000 A 
ATOM      3  C   UNL     1      -6.882   5.856 130.917  0.00  0.00    +0.000 A 
ATOM      4  C   UNL     1      -6.816   4.462 131.189  0.00  0.00    +0.000 A 
ATOM      5  C   UNL     1      -8.006   3.879 131.625  0.00  0.00    +0.000 A 
ATOM      6  C   UNL     1      -9.118   4.649 131.898  0.00  0.00    +0.000 A 
ENDROOT
BRANCH   1   7
ATOM      7  O   UNL     1     -10.323   6.697 131.940  0.00  0.00    +0.000 OA
BRANCH   7  14
ATOM      8  C   UNL     1     -13.862  10.116 128.590  0.00  0.00    +0.000 C 
ATOM      9  C   UNL     1     -13.277   8.724 128.465  0.00  0.00    +0.000 C 
ATOM     10  O   UNL     1     -13.521   8.030 127.478  0.00  0.00    +0.000 OA
ATOM     11  N   UNL     1     -12.349   8.353 129.429  0.00  0.00    +0.000 N 
ATOM     12  C   UNL     1     -11.233   7.501 129.069  0.00  0.00    +0.000 C 
ATOM     13  C   UNL     1     -11.383   6.107 129.680  0.00  0.00    +0.000 C 
ATOM     14  C   UNL     1     -11.470   6.185 131.217  0.00  0.00    +0.000 C 
ATOM     15  C   UNL     1     -12.662   7.109 131.550  0.00  0.00    +0.000 C 
ATOM     16  C   UNL     1     -12.545   8.491 130.870  0.00  0.00    +0.000 C 
ENDBRANCH   7  14
ENDBRANCH   1   7
BRANCH   4  17
ATOM     17  C   UNL     1      -5.490   3.681 130.992  0.00  0.00    +0.000 C 
BRANCH  17  18
ATOM     18  C   UNL     1      -4.864   3.566 129.554  0.00  0.00    +0.000 C 
ATOM     19  O   UNL     1      -3.747   3.960 129.232  0.00  0.00    +0.000 OA
ATOM     20  N   UNL     1      -5.565   2.947 128.527  0.00  0.00    +0.000 N 
ATOM     21  C   UNL     1      -4.805   2.032 127.668  0.00  0.00    +0.000 C 
ATOM     22  C   UNL     1      -4.625   2.430 126.210  0.00  0.00    +0.000 C 
ATOM     23  C   UNL     1      -6.163   2.254 125.481  0.00  0.00    +0.000 C 
ATOM     24  C   UNL     1      -6.683   3.706 126.440  0.00  0.00    +0.000 C 
ATOM     25  C   UNL     1      -6.788   3.490 127.957  0.00  0.00    +0.000 C 
BRANCH  23  26
ATOM     26  N   UNL     1      -6.428   0.498 124.951  0.00  0.00    +0.000 N 
ATOM     27  C   UNL     1      -7.264   1.071 123.983  0.00  0.00    +0.000 C 
ATOM     28  O   UNL     1      -6.865   1.881 123.064  0.00  0.00    +0.000 OA
ATOM     29  O   UNL     1      -8.561   0.965 124.187  0.00  0.00    +0.000 OA
ATOM     30  C   UNL     1      -8.713  -0.261 123.574  0.00  0.00    +0.000 C 
ATOM     31  C   UNL     1      -8.563  -1.096 124.783  0.00  0.00    +0.000 A 
ATOM     32  C   UNL     1      -9.160  -1.643 125.928  0.00  0.00    +0.000 A 
ATOM     33  C   UNL     1      -8.990  -3.041 126.240  0.00  0.00    +0.000 A 
ATOM     34  C   UNL     1      -8.350  -3.729 125.281  0.00  0.00    +0.000 A 
ATOM     35  C   UNL     1      -7.401  -2.768 124.575  0.00  0.00    +0.000 A 
ATOM     36  C   UNL     1      -7.316  -1.182 125.023  0.00  0.00    +0.000 A 
ENDBRANCH  23  26
ENDBRANCH  17  18
ENDBRANCH   4  17
BRANCH   5  37
ATOM     37  O   UNL     1      -8.154   2.536 131.584  0.00  0.00    +0.000 OA
BRANCH  37  38
ATOM     38  C   UNL     1      -8.829   1.867 130.515  0.00  0.00    +0.000 C 
BRANCH  38  39
ATOM     39  C   UNL     1      -8.030   0.651 130.056  0.00  0.00    +0.000 C 
ATOM     40  F   UNL     1      -8.116   0.470 128.717  0.00  0.00    +0.000 F 
ATOM     41  F   UNL     1      -6.730   0.680 130.412  0.00  0.00    +0.000 F 
ATOM     42  F   UNL     1      -8.550  -0.466 130.633  0.00  0.00    +0.000 F 
ENDBRANCH  38  39
ENDBRANCH  37  38
ENDBRANCH   5  37
TORSDOF 8
ENDMDL
MODEL 2
REMARK VINA RESULT:      -9.7      2.155      2.775
REMARK  Name = CHEMBL24526
REMARK  9 active torsions:
REMARK  status: ('A' for Active; 'I' for Inactive)
REMARK    1  A    between atoms: C_1  and  C_2
REMARK    2  A    between atoms: C_7  and  O_8
REMARK    3  A    between atoms: O_8  and  C_9
REMARK    4  A    between atoms: C_12  and  C_13
REMARK    5  A    between atoms: C_13  and  C_14
REMARK    6  A    between atoms: C_19  and  N_20
REMARK    7  A    between atoms: C_33  and  O_34
REMARK    8  A    between atoms: O_34  and  C_35
REMARK    9  A    between atoms: C_35  and  C_36
REMARK                            x       y       z     vdW  Elec       q    Type
REMARK                         _______ _______ _______ _____ _____    ______ ____
ROOT
ATOM      1  C   UNL     1      -8.763   6.069 131.956  0.00  0.00    +0.000 A 
ATOM      2  C   UNL     1      -7.647   6.779 131.542  0.00  0.00    +0.000 A 
ATOM      3  C   UNL     1      -6.400   6.115 131.396  0.00  0.00    +0.000 A 
ATOM      4  C   UNL     1      -6.225   4.755 131.772  0.00  0.00    +0.000 A 
ATOM      5  C   UNL     1      -7.394   4.065 132.094  0.00  0.00    +0.000 A 
ATOM      6  C   UNL     1      -8.608   4.718 132.167  0.00  0.00    +0.000 A 
ENDROOT
BRANCH   1   7
ATOM      7  O   UNL     1     -10.017   6.614 131.911  0.00  0.00    +0.000 OA
BRANCH   7  14
ATOM      8  C   UNL     1     -13.731   9.752 128.476  0.00  0.00    +0.000 C 
ATOM      9  C   UNL     1     -12.890   8.505 128.293  0.00  0.00    +0.000 C 
ATOM     10  O   UNL     1     -12.891   7.901 127.221  0.00  0.00    +0.000 OA
ATOM     11  N   UNL     1     -12.022   8.186 129.330  0.00  0.00    +0.000 N 
ATOM     12  C   UNL     1     -10.735   7.586 129.037  0.00  0.00    +0.000 C 
ATOM     13  C   UNL     1     -10.693   6.124 129.485  0.00  0.00    +0.000 C 
ATOM     14  C   UNL     1     -10.963   6.003 130.998  0.00  0.00    +0.000 C 
ATOM     15  C   UNL     1     -12.334   6.664 131.261  0.00  0.00    +0.000 C 
ATOM     16  C   UNL     1     -12.399   8.117 130.739  0.00  0.00    +0.000 C 
ENDBRANCH   7  14
ENDBRANCH   1   7
BRANCH   4  17
ATOM     17  C   UNL     1      -4.809   4.121 131.802  0.00  0.00    +0.000 C 
BRANCH  17  18
ATOM     18  C   UNL     1      -4.294   3.316 130.553  0.00  0.00    +0.000 C 
ATOM     19  O   UNL     1      -3.643   2.276 130.597  0.00  0.00    +0.000 OA
ATOM     20  N   UNL     1      -4.597   3.742 129.266  0.00  0.00    +0.000 N 
ATOM     21  C   UNL     1      -5.006   2.708 128.308  0.00  0.00    +0.000 C 
ATOM     22  C   UNL     1      -4.082   2.441 127.130  0.00  0.00    +0.000 C 
ATOM     23  C   UNL     1      -4.215   3.808 126.109  0.00  0.00    +0.000 C 
ATOM     24  C   UNL     1      -3.311   4.734 127.383  0.00  0.00    +0.000 C 
ATOM     25  C   UNL     1      -4.078   4.973 128.691  0.00  0.00    +0.000 C 
BRANCH  23  26
ATOM     26  N   UNL     1      -5.675   3.631 124.981  0.00  0.00    +0.000 N 
ATOM     27  C   UNL     1      -6.143   4.771 125.649  0.00  0.00    +0.000 C 
ATOM     28  O   UNL     1      -5.556   5.917 125.632  0.00  0.00    +0.000 OA
ATOM     29  O   UNL     1      -7.096   4.583 126.540  0.00  0.00    +0.000 OA
ATOM     30  C   UNL     1      -8.151   4.682 125.657  0.00  0.00    +0.000 C 
ATOM     31  C   UNL     1      -8.288   3.241 125.364  0.00  0.00    +0.000 A 
ATOM     32  C   UNL     1      -8.792   1.993 125.759  0.00  0.00    +0.000 A 
ATOM     33  C   UNL     1      -9.500   1.163 124.816  0.00  0.00    +0.000 A 
ATOM     34  C   UNL     1      -9.721   1.763 123.635  0.00  0.00    +0.000 A 
ATOM     35  C   UNL     1      -8.588   2.753 123.399  0.00  0.00    +0.000 A 
ATOM     36  C   UNL     1      -7.387   2.947 124.515  0.00  0.00    +0.000 A 
ENDBRANCH  23  26
ENDBRANCH  17  18
ENDBRANCH   4  17
BRANCH   5  37
ATOM     37  O   UNL     1      -7.392   2.714 132.129  0.00  0.00    +0.000 OA
BRANCH  37  38
ATOM     38  C   UNL     1      -8.420   1.958 132.777  0.00  0.00    +0.000 C 
BRANCH  38  39
ATOM     39  C   UNL     1      -9.275   1.226 131.747  0.00  0.00    +0.000 C 
ATOM     40  F   UNL     1      -8.797   1.390 130.491  0.00  0.00    +0.000 F 
ATOM     41  F   UNL     1      -9.425  -0.091 131.991  0.00  0.00    +0.000 F 
ATOM     42  F   UNL     1     -10.529   1.752 131.757  0.00  0.00    +0.000 F 
ENDBRANCH  38  39
ENDBRANCH  37  38
ENDBRANCH   5  37
TORSDOF 8
ENDMDL
MODEL 3
REMARK VINA RESULT:      -9.6      4.224     10.281
REMARK  Name = CHEMBL24526
REMARK  9 active torsions:
REMARK  status: ('A' for Active; 'I' for Inactive)
REMARK    1  A    between atoms: C_1  and  C_2
REMARK    2  A    between atoms: C_7  and  O_8
REMARK    3  A    between atoms: O_8  and  C_9
REMARK    4  A    between atoms: C_12  and  C_13
REMARK    5  A    between atoms: C_13  and  C_14
REMARK    6  A    between atoms: C_19  and  N_20
REMARK    7  A    between atoms: C_33  and  O_34
REMARK    8  A    between atoms: O_34  and  C_35
REMARK    9  A    between atoms: C_35  and  C_36
REMARK                            x       y       z     vdW  Elec       q    Type
REMARK                         _______ _______ _______ _____ _____    ______ ____
ROOT
ATOM      1  C   UNL     1      -7.166  -2.739 129.828  0.00  0.00    +0.000 A 
ATOM      2  C   UNL     1      -7.477  -1.580 130.523  0.00  0.00    +0.000 A 
ATOM      3  C   UNL     1      -7.904  -0.425 129.816  0.00  0.00    +0.000 A 
ATOM      4  C   UNL     1      -7.917  -0.376 128.395  0.00  0.00    +0.000 A 
ATOM      5  C   UNL     1      -7.685  -1.591 127.750  0.00  0.00    +0.000 A 
ATOM      6  C   UNL     1      -7.334  -2.720 128.462  0.00  0.00    +0.000 A 
ENDROOT
BRANCH   1   7
ATOM      7  O   UNL     1      -6.953  -3.927 130.474  0.00  0.00    +0.000 OA
BRANCH   7  14
ATOM      8  C   UNL     1      -2.564  -3.327 134.451  0.00  0.00    +0.000 C 
ATOM      9  C   UNL     1      -3.093  -4.459 133.594  0.00  0.00    +0.000 C 
ATOM     10  O   UNL     1      -2.573  -5.573 133.639  0.00  0.00    +0.000 OA
ATOM     11  N   UNL     1      -4.267  -4.210 132.894  0.00  0.00    +0.000 N 
ATOM     12  C   UNL     1      -5.232  -5.274 132.697  0.00  0.00    +0.000 C 
ATOM     13  C   UNL     1      -5.276  -5.714 131.233  0.00  0.00    +0.000 C 
ATOM     14  C   UNL     1      -5.646  -4.534 130.312  0.00  0.00    +0.000 C 
ATOM     15  C   UNL     1      -4.601  -3.425 130.567  0.00  0.00    +0.000 C 
ATOM     16  C   UNL     1      -4.504  -3.036 132.058  0.00  0.00    +0.000 C 
ENDBRANCH   7  14
ENDBRANCH   1   7
BRANCH   4  17
ATOM     17  C   UNL     1      -8.182   0.961 127.655  0.00  0.00    +0.000 C 
BRANCH  17  18
ATOM     18  C   UNL     1      -7.547   2.291 128.204  0.00  0.00    +0.000 C 
ATOM     19  O   UNL     1      -6.393   2.660 128.010  0.00  0.00    +0.000 OA
ATOM     20  N   UNL     1      -8.311   3.183 128.946  0.00  0.00    +0.000 N 
ATOM     21  C   UNL     1      -8.156   4.607 128.627  0.00  0.00    +0.000 C 
ATOM     22  C   UNL     1      -7.545   5.500 129.698  0.00  0.00    +0.000 C 
ATOM     23  C   UNL     1      -8.727   5.636 130.928  0.00  0.00    +0.000 C 
ATOM     24  C   UNL     1      -8.380   3.898 131.327  0.00  0.00    +0.000 C 
ATOM     25  C   UNL     1      -8.830   2.879 130.270  0.00  0.00    +0.000 C 
BRANCH  23  26
ATOM     26  N   UNL     1      -9.933   6.982 130.518  0.00  0.00    +0.000 N 
ATOM     27  C   UNL     1     -10.594   6.540 131.672  0.00  0.00    +0.000 C 
ATOM     28  O   UNL     1     -10.092   6.577 132.858  0.00  0.00    +0.000 OA
ATOM     29  O   UNL     1     -11.683   5.821 131.489  0.00  0.00    +0.000 OA
ATOM     30  C   UNL     1     -12.557   6.885 131.411  0.00  0.00    +0.000 C 
ATOM     31  C   UNL     1     -12.539   7.037 129.942  0.00  0.00    +0.000 A 
ATOM     32  C   UNL     1     -13.023   6.604 128.699  0.00  0.00    +0.000 A 
ATOM     33  C   UNL     1     -13.483   7.562 127.724  0.00  0.00    +0.000 A 
ATOM     34  C   UNL     1     -13.517   8.823 128.186  0.00  0.00    +0.000 A 
ATOM     35  C   UNL     1     -12.429   8.958 129.244  0.00  0.00    +0.000 A 
ATOM     36  C   UNL     1     -11.476   7.672 129.647  0.00  0.00    +0.000 A 
ENDBRANCH  23  26
ENDBRANCH  17  18
ENDBRANCH   4  17
BRANCH   5  37
ATOM     37  O   UNL     1      -8.008  -1.734 126.445  0.00  0.00    +0.000 OA
BRANCH  37  38
ATOM     38  C   UNL     1      -9.000  -2.660 125.993  0.00  0.00    +0.000 C 
BRANCH  38  39
ATOM     39  C   UNL     1      -8.560  -3.322 124.691  0.00  0.00    +0.000 C 
ATOM     40  F   UNL     1      -8.160  -4.600 124.888  0.00  0.00    +0.000 F 
ATOM     41  F   UNL     1      -9.493  -3.299 123.718  0.00  0.00    +0.000 F 
ATOM     42  F   UNL     1      -7.486  -2.652 124.194  0.00  0.00    +0.000 F 
ENDBRANCH  38  39
ENDBRANCH  37  38
ENDBRANCH   5  37
TORSDOF 8
ENDMDL
MODEL 4
REMARK VINA RESULT:      -9.5      4.058      8.818
REMARK  Name = CHEMBL24526
REMARK  9 active torsions:
REMARK  status: ('A' for Active; 'I' for Inactive)
REMARK    1  A    between atoms: C_1  and  C_2
REMARK    2  A    between atoms: C_7  and  O_8
REMARK    3  A    between atoms: O_8  and  C_9
REMARK    4  A    between atoms: C_12  and  C_13
REMARK    5  A    between atoms: C_13  and  C_14
REMARK    6  A    between atoms: C_19  and  N_20
REMARK    7  A    between atoms: C_33  and  O_34
REMARK    8  A    between atoms: O_34  and  C_35
REMARK    9  A    between atoms: C_35  and  C_36
REMARK                            x       y       z     vdW  Elec       q    Type
REMARK                         _______ _______ _______ _____ _____    ______ ____
ROOT
ATOM      1  C   UNL     1      -7.803  -3.225 127.707  0.00  0.00    +0.000 A 
ATOM      2  C   UNL     1      -9.099  -3.430 127.260  0.00  0.00    +0.000 A 
ATOM      3  C   UNL     1      -9.412  -3.246 125.887  0.00  0.00    +0.000 A 
ATOM      4  C   UNL     1      -8.459  -2.743 124.961  0.00  0.00    +0.000 A 
ATOM      5  C   UNL     1      -7.152  -2.640 125.439  0.00  0.00    +0.000 A 
ATOM      6  C   UNL     1      -6.858  -2.887 126.765  0.00  0.00    +0.000 A 
ENDROOT
BRANCH   1   7
ATOM      7  O   UNL     1      -7.412  -3.588 128.967  0.00  0.00    +0.000 OA
BRANCH   7  14
ATOM      8  C   UNL     1      -3.673  -0.542 132.457  0.00  0.00    +0.000 C 
ATOM      9  C   UNL     1      -5.017  -0.262 131.817  0.00  0.00    +0.000 C 
ATOM     10  O   UNL     1      -5.577   0.820 131.986  0.00  0.00    +0.000 OA
ATOM     11  N   UNL     1      -5.490  -1.217 130.925  0.00  0.00    +0.000 N 
ATOM     12  C   UNL     1      -6.252  -0.806 129.761  0.00  0.00    +0.000 C 
ATOM     13  C   UNL     1      -7.720  -1.214 129.891  0.00  0.00    +0.000 C 
ATOM     14  C   UNL     1      -7.855  -2.741 130.058  0.00  0.00    +0.000 C 
ATOM     15  C   UNL     1      -7.019  -3.131 131.297  0.00  0.00    +0.000 C 
ATOM     16  C   UNL     1      -5.555  -2.650 131.197  0.00  0.00    +0.000 C 
ENDBRANCH   7  14
ENDBRANCH   1   7
BRANCH   4  17
ATOM     17  C   UNL     1      -8.887  -2.352 123.522  0.00  0.00    +0.000 C 
BRANCH  17  18
ATOM     18  C   UNL     1      -9.241  -0.854 123.198  0.00  0.00    +0.000 C 
ATOM     19  O   UNL     1     -10.130  -0.483 122.438  0.00  0.00    +0.000 OA
ATOM     20  N   UNL     1      -8.555   0.182 123.818  0.00  0.00    +0.000 N 
ATOM     21  C   UNL     1      -9.360   1.310 124.302  0.00  0.00    +0.000 C 
ATOM     22  C   UNL     1      -9.151   2.658 123.628  0.00  0.00    +0.000 C 
ATOM     23  C   UNL     1      -7.610   3.202 124.135  0.00  0.00    +0.000 C 
ATOM     24  C   UNL     1      -6.905   1.894 123.091  0.00  0.00    +0.000 C 
ATOM     25  C   UNL     1      -7.147   0.459 123.581  0.00  0.00    +0.000 C 
BRANCH  23  26
ATOM     26  N   UNL     1      -7.735   4.060 125.773  0.00  0.00    +0.000 N 
ATOM     27  C   UNL     1      -6.381   3.716 125.891  0.00  0.00    +0.000 C 
ATOM     28  O   UNL     1      -5.452   4.139 125.106  0.00  0.00    +0.000 OA
ATOM     29  O   UNL     1      -6.096   2.712 126.695  0.00  0.00    +0.000 OA
ATOM     30  C   UNL     1      -5.993   3.464 127.847  0.00  0.00    +0.000 C 
ATOM     31  C   UNL     1      -7.386   3.297 128.307  0.00  0.00    +0.000 A 
ATOM     32  C   UNL     1      -8.329   2.495 128.967  0.00  0.00    +0.000 A 
ATOM     33  C   UNL     1      -9.192   3.064 129.972  0.00  0.00    +0.000 A 
ATOM     34  C   UNL     1      -8.895   4.339 130.273  0.00  0.00    +0.000 A 
ATOM     35  C   UNL     1      -8.297   4.982 129.027  0.00  0.00    +0.000 A 
ATOM     36  C   UNL     1      -8.099   4.112 127.639  0.00  0.00    +0.000 A 
ENDBRANCH  23  26
ENDBRANCH  17  18
ENDBRANCH   4  17
BRANCH   5  37
ATOM     37  O   UNL     1      -6.124  -2.508 124.571  0.00  0.00    +0.000 OA
BRANCH  37  38
ATOM     38  C   UNL     1      -5.840  -3.477 123.558  0.00  0.00    +0.000 C 
BRANCH  38  39
ATOM     39  C   UNL     1      -4.452  -4.076 123.766  0.00  0.00    +0.000 C 
ATOM     40  F   UNL     1      -3.488  -3.317 123.194  0.00  0.00    +0.000 F 
ATOM     41  F   UNL     1      -4.133  -4.291 125.057  0.00  0.00    +0.000 F 
ATOM     42  F   UNL     1      -4.399  -5.292 123.160  0.00  0.00    +0.000 F 
ENDBRANCH  38  39
ENDBRANCH  37  38
ENDBRANCH   5  37
TORSDOF 8
ENDMDL
MODEL 5
REMARK VINA RESULT:      -9.4      2.420      3.964
REMARK  Name = CHEMBL24526
REMARK  9 active torsions:
REMARK  status: ('A' for Active; 'I' for Inactive)
REMARK    1  A    between atoms: C_1  and  C_2
REMARK    2  A    between atoms: C_7  and  O_8
REMARK    3  A    between atoms: O_8  and  C_9
REMARK    4  A    between atoms: C_12  and  C_13
REMARK    5  A    between atoms: C_13  and  C_14
REMARK    6  A    between atoms: C_19  and  N_20
REMARK    7  A    between atoms: C_33  and  O_34
REMARK    8  A    between atoms: O_34  and  C_35
REMARK    9  A    between atoms: C_35  and  C_36
REMARK                            x       y       z     vdW  Elec       q    Type
REMARK                         _______ _______ _______ _____ _____    ______ ____
ROOT
ATOM      1  C   UNL     1      -9.111   3.959 130.040  0.00  0.00    +0.000 A 
ATOM      2  C   UNL     1      -9.810   2.855 130.502  0.00  0.00    +0.000 A 
ATOM      3  C   UNL     1      -9.117   1.803 131.159  0.00  0.00    +0.000 A 
ATOM      4  C   UNL     1      -7.700   1.787 131.261  0.00  0.00    +0.000 A 
ATOM      5  C   UNL     1      -7.055   2.958 130.864  0.00  0.00    +0.000 A 
ATOM      6  C   UNL     1      -7.757   3.996 130.286  0.00  0.00    +0.000 A 
ENDROOT
BRANCH   1   7
ATOM      7  O   UNL     1      -9.755   5.080 129.592  0.00  0.00    +0.000 OA
BRANCH   7  14
ATOM      8  C   UNL     1     -13.286   9.806 128.795  0.00  0.00    +0.000 C 
ATOM      9  C   UNL     1     -12.811   9.006 129.992  0.00  0.00    +0.000 C 
ATOM     10  O   UNL     1     -13.172   9.308 131.129  0.00  0.00    +0.000 OA
ATOM     11  N   UNL     1     -12.094   7.849 129.718  0.00  0.00    +0.000 N 
ATOM     12  C   UNL     1     -12.239   6.687 130.573  0.00  0.00    +0.000 C 
ATOM     13  C   UNL     1     -10.971   6.444 131.393  0.00  0.00    +0.000 C 
ATOM     14  C   UNL     1      -9.752   6.231 130.473  0.00  0.00    +0.000 C 
ATOM     15  C   UNL     1      -9.647   7.484 129.576  0.00  0.00    +0.000 C 
ATOM     16  C   UNL     1     -10.955   7.772 128.807  0.00  0.00    +0.000 C 
ENDBRANCH   7  14
ENDBRANCH   1   7
BRANCH   4  17
ATOM     17  C   UNL     1      -6.962   0.529 131.792  0.00  0.00    +0.000 C 
BRANCH  17  18
ATOM     18  C   UNL     1      -7.092  -0.832 131.014  0.00  0.00    +0.000 C 
ATOM     19  O   UNL     1      -7.339  -1.920 131.524  0.00  0.00    +0.000 OA
ATOM     20  N   UNL     1      -6.966  -0.869 129.631  0.00  0.00    +0.000 N 
ATOM     21  C   UNL     1      -7.936  -1.695 128.902  0.00  0.00    +0.000 C 
ATOM     22  C   UNL     1      -7.402  -2.917 128.171  0.00  0.00    +0.000 C 
ATOM     23  C   UNL     1      -6.516  -2.318 126.836  0.00  0.00    +0.000 C 
ATOM     24  C   UNL     1      -5.275  -1.745 128.033  0.00  0.00    +0.000 C 
ATOM     25  C   UNL     1      -5.720  -0.586 128.937  0.00  0.00    +0.000 C 
BRANCH  23  26
ATOM     26  N   UNL     1      -7.649  -1.981 125.409  0.00  0.00    +0.000 N 
ATOM     27  C   UNL     1      -6.501  -2.201 124.635  0.00  0.00    +0.000 C 
ATOM     28  O   UNL     1      -5.857  -3.316 124.590  0.00  0.00    +0.000 OA
ATOM     29  O   UNL     1      -5.918  -1.134 124.129  0.00  0.00    +0.000 OA
ATOM     30  C   UNL     1      -6.671  -1.081 122.974  0.00  0.00    +0.000 C 
ATOM     31  C   UNL     1      -7.706  -0.151 123.466  0.00  0.00    +0.000 A 
ATOM     32  C   UNL     1      -8.083   1.176 123.721  0.00  0.00    +0.000 A 
ATOM     33  C   UNL     1      -9.368   1.664 123.284  0.00  0.00    +0.000 A 
ATOM     34  C   UNL     1     -10.047   0.783 122.530  0.00  0.00    +0.000 A 
ATOM     35  C   UNL     1      -9.636  -0.617 122.969  0.00  0.00    +0.000 A 
ATOM     36  C   UNL     1      -8.520  -0.835 124.165  0.00  0.00    +0.000 A 
ENDBRANCH  23  26
ENDBRANCH  17  18
ENDBRANCH   4  17
BRANCH   5  37
ATOM     37  O   UNL     1      -5.774   3.181 131.232  0.00  0.00    +0.000 OA
BRANCH  37  38
ATOM     38  C   UNL     1      -4.844   3.885 130.402  0.00  0.00    +0.000 C 
BRANCH  38  39
ATOM     39  C   UNL     1      -4.188   2.932 129.407  0.00  0.00    +0.000 C 
ATOM     40  F   UNL     1      -3.783   1.786 130.003  0.00  0.00    +0.000 F 
ATOM     41  F   UNL     1      -4.962   2.625 128.347  0.00  0.00    +0.000 F 
ATOM     42  F   UNL     1      -3.073   3.520 128.898  0.00  0.00    +0.000 F 
ENDBRANCH  38  39
ENDBRANCH  37  38
ENDBRANCH   5  37
TORSDOF 8
ENDMDL
MODEL 6
REMARK VINA RESULT:      -9.2      3.438      8.487
REMARK  Name = CHEMBL24526
REMARK  9 active torsions:
REMARK  status: ('A' for Active; 'I' for Inactive)
REMARK    1  A    between atoms: C_1  and  C_2
REMARK    2  A    between atoms: C_7  and  O_8
REMARK    3  A    between atoms: O_8  and  C_9
REMARK    4  A    between atoms: C_12  and  C_13
REMARK    5  A    between atoms: C_13  and  C_14
REMARK    6  A    between atoms: C_19  and  N_20
REMARK    7  A    between atoms: C_33  and  O_34
REMARK    8  A    between atoms: O_34  and  C_35
REMARK    9  A    between atoms: C_35  and  C_36
REMARK                            x       y       z     vdW  Elec       q    Type
REMARK                         _______ _______ _______ _____ _____    ______ ____
ROOT
ATOM      1  C   UNL     1      -5.681   1.928 126.458  0.00  0.00    +0.000 A 
ATOM      2  C   UNL     1      -6.424   1.768 127.617  0.00  0.00    +0.000 A 
ATOM      3  C   UNL     1      -5.846   2.080 128.877  0.00  0.00    +0.000 A 
ATOM      4  C   UNL     1      -4.480   2.448 129.006  0.00  0.00    +0.000 A 
ATOM      5  C   UNL     1      -3.804   2.682 127.807  0.00  0.00    +0.000 A 
ATOM      6  C   UNL     1      -4.407   2.433 126.591  0.00  0.00    +0.000 A 
ENDROOT
BRANCH   1   7
ATOM      7  O   UNL     1      -6.256   1.840 125.220  0.00  0.00    +0.000 OA
BRANCH   7  14
ATOM      8  C   UNL     1      -6.804   4.216 119.789  0.00  0.00    +0.000 C 
ATOM      9  C   UNL     1      -7.766   3.752 120.863  0.00  0.00    +0.000 C 
ATOM     10  O   UNL     1      -8.982   3.836 120.693  0.00  0.00    +0.000 OA
ATOM     11  N   UNL     1      -7.208   3.098 121.955  0.00  0.00    +0.000 N 
ATOM     12  C   UNL     1      -7.928   2.015 122.595  0.00  0.00    +0.000 C 
ATOM     13  C   UNL     1      -8.425   2.426 123.982  0.00  0.00    +0.000 C 
ATOM     14  C   UNL     1      -7.249   2.843 124.888  0.00  0.00    +0.000 C 
ATOM     15  C   UNL     1      -6.508   3.986 124.160  0.00  0.00    +0.000 C 
ATOM     16  C   UNL     1      -6.075   3.593 122.731  0.00  0.00    +0.000 C 
ENDBRANCH   7  14
ENDBRANCH   1   7
BRANCH   4  17
ATOM     17  C   UNL     1      -3.825   2.575 130.407  0.00  0.00    +0.000 C 
BRANCH  17  18
ATOM     18  C   UNL     1      -4.272   3.737 131.368  0.00  0.00    +0.000 C 
ATOM     19  O   UNL     1      -3.545   4.634 131.783  0.00  0.00    +0.000 OA
ATOM     20  N   UNL     1      -5.592   3.835 131.791  0.00  0.00    +0.000 N 
ATOM     21  C   UNL     1      -6.188   5.176 131.783  0.00  0.00    +0.000 C 
ATOM     22  C   UNL     1      -6.565   5.780 133.128  0.00  0.00    +0.000 C 
ATOM     23  C   UNL     1      -7.921   4.894 133.679  0.00  0.00    +0.000 C 
ATOM     24  C   UNL     1      -6.789   3.499 133.944  0.00  0.00    +0.000 C 
ATOM     25  C   UNL     1      -6.222   2.861 132.668  0.00  0.00    +0.000 C 
BRANCH  23  26
ATOM     26  N   UNL     1      -9.480   5.584 132.952  0.00  0.00    +0.000 N 
ATOM     27  C   UNL     1      -9.663   4.278 132.477  0.00  0.00    +0.000 C 
ATOM     28  O   UNL     1      -9.805   3.243 133.231  0.00  0.00    +0.000 OA
ATOM     29  O   UNL     1      -9.424   4.077 131.197  0.00  0.00    +0.000 OA
ATOM     30  C   UNL     1     -10.690   4.402 130.754  0.00  0.00    +0.000 C 
ATOM     31  C   UNL     1     -10.430   5.827 130.469  0.00  0.00    +0.000 A 
ATOM     32  C   UNL     1      -9.919   6.785 129.581  0.00  0.00    +0.000 A 
ATOM     33  C   UNL     1     -10.688   7.963 129.260  0.00  0.00    +0.000 A 
ATOM     34  C   UNL     1     -11.928   7.950 129.776  0.00  0.00    +0.000 A 
ATOM     35  C   UNL     1     -11.885   7.138 131.064  0.00  0.00    +0.000 A 
ATOM     36  C   UNL     1     -10.479   6.444 131.581  0.00  0.00    +0.000 A 
ENDBRANCH  23  26
ENDBRANCH  17  18
ENDBRANCH   4  17
BRANCH   5  37
ATOM     37  O   UNL     1      -2.633   3.355 127.813  0.00  0.00    +0.000 OA
BRANCH  37  38
ATOM     38  C   UNL     1      -2.486   4.656 127.235  0.00  0.00    +0.000 C 
BRANCH  38  39
ATOM     39  C   UNL     1      -2.725   5.737 128.285  0.00  0.00    +0.000 C 
ATOM     40  F   UNL     1      -4.009   5.746 128.712  0.00  0.00    +0.000 F 
ATOM     41  F   UNL     1      -1.907   5.656 129.354  0.00  0.00    +0.000 F 
ATOM     42  F   UNL     1      -2.492   6.955 127.728  0.00  0.00    +0.000 F 
ENDBRANCH  38  39
ENDBRANCH  37  38
ENDBRANCH   5  37
TORSDOF 8
ENDMDL
MODEL 7
REMARK VINA RESULT:      -9.1      5.023      9.071
REMARK  Name = CHEMBL24526
REMARK  9 active torsions:
REMARK  status: ('A' for Active; 'I' for Inactive)
REMARK    1  A    between atoms: C_1  and  C_2
REMARK    2  A    between atoms: C_7  and  O_8
REMARK    3  A    between atoms: O_8  and  C_9
REMARK    4  A    between atoms: C_12  and  C_13
REMARK    5  A    between atoms: C_13  and  C_14
REMARK    6  A    between atoms: C_19  and  N_20
REMARK    7  A    between atoms: C_33  and  O_34
REMARK    8  A    between atoms: O_34  and  C_35
REMARK    9  A    between atoms: C_35  and  C_36
REMARK                            x       y       z     vdW  Elec       q    Type
REMARK                         _______ _______ _______ _____ _____    ______ ____
ROOT
ATOM      1  C   UNL     1      -6.936  -3.355 128.998  0.00  0.00    +0.000 A 
ATOM      2  C   UNL     1      -8.275  -3.618 128.751  0.00  0.00    +0.000 A 
ATOM      3  C   UNL     1      -8.872  -3.172 127.541  0.00  0.00    +0.000 A 
ATOM      4  C   UNL     1      -8.169  -2.358 126.612  0.00  0.00    +0.000 A 
ATOM      5  C   UNL     1      -6.805  -2.201 126.862  0.00  0.00    +0.000 A 
ATOM      6  C   UNL     1      -6.231  -2.699 128.014  0.00  0.00    +0.000 A 
ENDROOT
BRANCH   1   7
ATOM      7  O   UNL     1      -6.272  -3.939 130.042  0.00  0.00    +0.000 OA
BRANCH   7  14
ATOM      8  C   UNL     1      -2.203  -1.538 133.664  0.00  0.00    +0.000 C 
ATOM      9  C   UNL     1      -3.647  -1.237 133.316  0.00  0.00    +0.000 C 
ATOM     10  O   UNL     1      -4.234  -0.294 133.845  0.00  0.00    +0.000 OA
ATOM     11  N   UNL     1      -4.200  -1.972 132.276  0.00  0.00    +0.000 N 
ATOM     12  C   UNL     1      -5.161  -1.354 131.383  0.00  0.00    +0.000 C 
ATOM     13  C   UNL     1      -6.563  -1.923 131.602  0.00  0.00    +0.000 C 
ATOM     14  C   UNL     1      -6.582  -3.447 131.370  0.00  0.00    +0.000 C 
ATOM     15  C   UNL     1      -5.538  -4.058 132.331  0.00  0.00    +0.000 C 
ATOM     16  C   UNL     1      -4.138  -3.426 132.160  0.00  0.00    +0.000 C 
ENDBRANCH   7  14
ENDBRANCH   1   7
BRANCH   4  17
ATOM     17  C   UNL     1      -8.908  -1.712 125.411  0.00  0.00    +0.000 C 
BRANCH  17  18
ATOM     18  C   UNL     1      -9.201  -0.167 125.420  0.00  0.00    +0.000 C 
ATOM     19  O   UNL     1     -10.315   0.344 125.481  0.00  0.00    +0.000 OA
ATOM     20  N   UNL     1      -8.157   0.749 125.397  0.00  0.00    +0.000 N 
ATOM     21  C   UNL     1      -8.268   1.898 126.303  0.00  0.00    +0.000 C 
ATOM     22  C   UNL     1      -8.412   3.274 125.670  0.00  0.00    +0.000 C 
ATOM     23  C   UNL     1      -6.891   3.636 124.976  0.00  0.00    +0.000 C 
ATOM     24  C   UNL     1      -7.257   2.363 123.733  0.00  0.00    +0.000 C 
ATOM     25  C   UNL     1      -7.272   0.919 124.256  0.00  0.00    +0.000 C 
BRANCH  23  26
ATOM     26  N   UNL     1      -5.757   4.360 126.250  0.00  0.00    +0.000 N 
ATOM     27  C   UNL     1      -4.744   3.914 125.389  0.00  0.00    +0.000 C 
ATOM     28  O   UNL     1      -4.576   4.334 124.184  0.00  0.00    +0.000 OA
ATOM     29  O   UNL     1      -4.094   2.828 125.757  0.00  0.00    +0.000 OA
ATOM     30  C   UNL     1      -3.143   3.472 126.522  0.00  0.00    +0.000 C 
ATOM     31  C   UNL     1      -3.839   3.365 127.819  0.00  0.00    +0.000 A 
ATOM     32  C   UNL     1      -4.145   2.578 128.939  0.00  0.00    +0.000 A 
ATOM     33  C   UNL     1      -4.006   3.120 130.269  0.00  0.00    +0.000 A 
ATOM     34  C   UNL     1      -3.448   4.342 130.293  0.00  0.00    +0.000 A 
ATOM     35  C   UNL     1      -3.811   5.043 128.990  0.00  0.00    +0.000 A 
ATOM     36  C   UNL     1      -4.722   4.281 127.844  0.00  0.00    +0.000 A 
ENDBRANCH  23  26
ENDBRANCH  17  18
ENDBRANCH   4  17
BRANCH   5  37
ATOM     37  O   UNL     1      -5.988  -1.748 125.886  0.00  0.00    +0.000 OA
BRANCH  37  38
ATOM     38  C   UNL     1      -5.105  -2.608 125.159  0.00  0.00    +0.000 C 
BRANCH  38  39
ATOM     39  C   UNL     1      -5.785  -3.127 123.895  0.00  0.00    +0.000 C 
ATOM     40  F   UNL     1      -6.648  -4.134 124.168  0.00  0.00    +0.000 F 
ATOM     41  F   UNL     1      -6.428  -2.178 123.187  0.00  0.00    +0.000 F 
ATOM     42  F   UNL     1      -4.841  -3.640 123.062  0.00  0.00    +0.000 F 
ENDBRANCH  38  39
ENDBRANCH  37  38
ENDBRANCH   5  37
TORSDOF 8
ENDMDL
MODEL 8
REMARK VINA RESULT:      -9.0      3.861      8.393
REMARK  Name = CHEMBL24526
REMARK  9 active torsions:
REMARK  status: ('A' for Active; 'I' for Inactive)
REMARK    1  A    between atoms: C_1  and  C_2
REMARK    2  A    between atoms: C_7  and  O_8
REMARK    3  A    between atoms: O_8  and  C_9
REMARK    4  A    between atoms: C_12  and  C_13
REMARK    5  A    between atoms: C_13  and  C_14
REMARK    6  A    between atoms: C_19  and  N_20
REMARK    7  A    between atoms: C_33  and  O_34
REMARK    8  A    between atoms: O_34  and  C_35
REMARK    9  A    between atoms: C_35  and  C_36
REMARK                            x       y       z     vdW  Elec       q    Type
REMARK                         _______ _______ _______ _____ _____    ______ ____
ROOT
ATOM      1  C   UNL     1      -7.627  -2.912 127.362  0.00  0.00    +0.000 A 
ATOM      2  C   UNL     1      -8.639  -3.432 128.154  0.00  0.00    +0.000 A 
ATOM      3  C   UNL     1      -8.561  -3.315 129.567  0.00  0.00    +0.000 A 
ATOM      4  C   UNL     1      -7.416  -2.778 130.215  0.00  0.00    +0.000 A 
ATOM      5  C   UNL     1      -6.471  -2.188 129.374  0.00  0.00    +0.000 A 
ATOM      6  C   UNL     1      -6.599  -2.257 128.002  0.00  0.00    +0.000 A 
ENDROOT
BRANCH   1   7
ATOM      7  O   UNL     1      -7.757  -2.817 126.003  0.00  0.00    +0.000 OA
BRANCH   7  14
ATOM      8  C   UNL     1      -9.231   2.084 122.961  0.00  0.00    +0.000 C 
ATOM      9  C   UNL     1      -9.561   0.609 122.852  0.00  0.00    +0.000 C 
ATOM     10  O   UNL     1     -10.305   0.198 121.962  0.00  0.00    +0.000 OA
ATOM     11  N   UNL     1      -8.865  -0.246 123.697  0.00  0.00    +0.000 N 
ATOM     12  C   UNL     1      -8.496  -1.572 123.242  0.00  0.00    +0.000 C 
ATOM     13  C   UNL     1      -9.307  -2.649 123.965  0.00  0.00    +0.000 C 
ATOM     14  C   UNL     1      -9.091  -2.571 125.490  0.00  0.00    +0.000 C 
ATOM     15  C   UNL     1      -9.484  -1.142 125.924  0.00  0.00    +0.000 C 
ATOM     16  C   UNL     1      -8.718  -0.054 125.137  0.00  0.00    +0.000 C 
ENDBRANCH   7  14
ENDBRANCH   1   7
BRANCH   4  17
ATOM     17  C   UNL     1      -7.271  -2.858 131.757  0.00  0.00    +0.000 C 
BRANCH  17  18
ATOM     18  C   UNL     1      -7.453  -1.557 132.622  0.00  0.00    +0.000 C 
ATOM     19  O   UNL     1      -7.386  -1.503 133.846  0.00  0.00    +0.000 OA
ATOM     20  N   UNL     1      -7.672  -0.329 132.011  0.00  0.00    +0.000 N 
ATOM     21  C   UNL     1      -6.926   0.816 132.545  0.00  0.00    +0.000 C 
ATOM     22  C   UNL     1      -7.730   1.922 133.215  0.00  0.00    +0.000 C 
ATOM     23  C   UNL     1      -8.569   2.722 131.957  0.00  0.00    +0.000 C 
ATOM     24  C   UNL     1      -9.598   1.232 131.819  0.00  0.00    +0.000 C 
ATOM     25  C   UNL     1      -8.884  -0.012 131.271  0.00  0.00    +0.000 C 
BRANCH  23  26
ATOM     26  N   UNL     1      -7.486   4.006 131.175  0.00  0.00    +0.000 N 
ATOM     27  C   UNL     1      -8.053   3.546 129.979  0.00  0.00    +0.000 C 
ATOM     28  O   UNL     1      -9.307   3.618 129.693  0.00  0.00    +0.000 OA
ATOM     29  O   UNL     1      -7.295   2.775 129.226  0.00  0.00    +0.000 OA
ATOM     30  C   UNL     1      -6.685   3.797 128.528  0.00  0.00    +0.000 C 
ATOM     31  C   UNL     1      -5.498   3.935 129.395  0.00  0.00    +0.000 A 
ATOM     32  C   UNL     1      -4.222   3.467 129.741  0.00  0.00    +0.000 A 
ATOM     33  C   UNL     1      -3.128   4.393 129.906  0.00  0.00    +0.000 A 
ATOM     34  C   UNL     1      -3.439   5.655 129.568  0.00  0.00    +0.000 A 
ATOM     35  C   UNL     1      -4.927   5.851 129.830  0.00  0.00    +0.000 A 
ATOM     36  C   UNL     1      -5.855   4.615 130.409  0.00  0.00    +0.000 A 
ENDBRANCH  23  26
ENDBRANCH  17  18
ENDBRANCH   4  17
BRANCH   5  37
ATOM     37  O   UNL     1      -5.534  -1.360 129.887  0.00  0.00    +0.000 OA
BRANCH  37  38
ATOM     38  C   UNL     1      -4.216  -1.254 129.341  0.00  0.00    +0.000 C 
BRANCH  38  39
ATOM     39  C   UNL     1      -3.363  -2.444 129.769  0.00  0.00    +0.000 C 
ATOM     40  F   UNL     1      -3.635  -3.547 129.032  0.00  0.00    +0.000 F 
ATOM     41  F   UNL     1      -2.036  -2.212 129.736  0.00  0.00    +0.000 F 
ATOM     42  F   UNL     1      -3.654  -2.758 131.060  0.00  0.00    +0.000 F 
ENDBRANCH  38  39
ENDBRANCH  37  38
ENDBRANCH   5  37
TORSDOF 8
ENDMDL
MODEL 9
REMARK VINA RESULT:      -9.0      5.004      7.089
REMARK  Name = CHEMBL24526
REMARK  9 active torsions:
REMARK  status: ('A' for Active; 'I' for Inactive)
REMARK    1  A    between atoms: C_1  and  C_2
REMARK    2  A    between atoms: C_7  and  O_8
REMARK    3  A    between atoms: O_8  and  C_9
REMARK    4  A    between atoms: C_12  and  C_13
REMARK    5  A    between atoms: C_13  and  C_14
REMARK    6  A    between atoms: C_19  and  N_20
REMARK    7  A    between atoms: C_33  and  O_34
REMARK    8  A    between atoms: O_34  and  C_35
REMARK    9  A    between atoms: C_35  and  C_36
REMARK                            x       y       z     vdW  Elec       q    Type
REMARK                         _______ _______ _______ _____ _____    ______ ____
ROOT
ATOM      1  C   UNL     1      -2.552   6.894 132.652  0.00  0.00    +0.000 A 
ATOM      2  C   UNL     1      -1.873   6.637 131.471  0.00  0.00    +0.000 A 
ATOM      3  C   UNL     1      -2.419   5.730 130.524  0.00  0.00    +0.000 A 
ATOM      4  C   UNL     1      -3.596   4.981 130.794  0.00  0.00    +0.000 A 
ATOM      5  C   UNL     1      -4.287   5.343 131.951  0.00  0.00    +0.000 A 
ATOM      6  C   UNL     1      -3.769   6.275 132.827  0.00  0.00    +0.000 A 
ENDROOT
BRANCH   1   7
ATOM      7  O   UNL     1      -2.173   7.905 133.491  0.00  0.00    +0.000 OA
BRANCH   7  14
ATOM      8  C   UNL     1      -1.641  13.346 135.848  0.00  0.00    +0.000 C 
ATOM      9  C   UNL     1      -0.690  12.346 135.224  0.00  0.00    +0.000 C 
ATOM     10  O   UNL     1       0.509  12.604 135.118  0.00  0.00    +0.000 OA
ATOM     11  N   UNL     1      -1.213  11.093 134.931  0.00  0.00    +0.000 N 
ATOM     12  C   UNL     1      -0.383   9.912 135.070  0.00  0.00    +0.000 C 
ATOM     13  C   UNL     1      -0.040   9.315 133.704  0.00  0.00    +0.000 C 
ATOM     14  C   UNL     1      -1.318   8.934 132.931  0.00  0.00    +0.000 C 
ATOM     15  C   UNL     1      -2.172  10.217 132.820  0.00  0.00    +0.000 C 
ATOM     16  C   UNL     1      -2.453  10.860 134.196  0.00  0.00    +0.000 C 
ENDBRANCH   7  14
ENDBRANCH   1   7
BRANCH   4  17
ATOM     17  C   UNL     1      -4.048   3.849 129.834  0.00  0.00    +0.000 C 
BRANCH  17  18
ATOM     18  C   UNL     1      -5.173   4.135 128.773  0.00  0.00    +0.000 C 
ATOM     19  O   UNL     1      -5.523   5.247 128.392  0.00  0.00    +0.000 OA
ATOM     20  N   UNL     1      -5.839   3.086 128.151  0.00  0.00    +0.000 N 
ATOM     21  C   UNL     1      -6.059   3.210 126.705  0.00  0.00    +0.000 C 
ATOM     22  C   UNL     1      -7.498   3.336 126.226  0.00  0.00    +0.000 C 
ATOM     23  C   UNL     1      -8.210   1.799 126.467  0.00  0.00    +0.000 C 
ATOM     24  C   UNL     1      -8.139   2.146 128.248  0.00  0.00    +0.000 C 
ATOM     25  C   UNL     1      -6.729   2.177 128.856  0.00  0.00    +0.000 C 
BRANCH  23  26
ATOM     26  N   UNL     1      -7.847   0.688 125.029  0.00  0.00    +0.000 N 
ATOM     27  C   UNL     1      -8.966  -0.023 125.484  0.00  0.00    +0.000 C 
ATOM     28  O   UNL     1     -10.160   0.455 125.537  0.00  0.00    +0.000 OA
ATOM     29  O   UNL     1      -8.727  -1.150 126.124  0.00  0.00    +0.000 OA
ATOM     30  C   UNL     1      -8.688  -1.955 125.004  0.00  0.00    +0.000 C 
ATOM     31  C   UNL     1      -7.229  -1.897 124.781  0.00  0.00    +0.000 A 
ATOM     32  C   UNL     1      -5.958  -2.382 125.122  0.00  0.00    +0.000 A 
ATOM     33  C   UNL     1      -5.023  -2.761 124.091  0.00  0.00    +0.000 A 
ATOM     34  C   UNL     1      -5.548  -2.727 122.854  0.00  0.00    +0.000 A 
ATOM     35  C   UNL     1      -6.630  -1.654 122.840  0.00  0.00    +0.000 A 
ATOM     36  C   UNL     1      -6.984  -0.791 124.201  0.00  0.00    +0.000 A 
ENDBRANCH  23  26
ENDBRANCH  17  18
ENDBRANCH   4  17
BRANCH   5  37
ATOM     37  O   UNL     1      -5.568   4.948 132.123  0.00  0.00    +0.000 OA
BRANCH  37  38
ATOM     38  C   UNL     1      -6.593   5.833 132.587  0.00  0.00    +0.000 C 
BRANCH  38  39
ATOM     39  C   UNL     1      -7.368   6.417 131.409  0.00  0.00    +0.000 C 
ATOM     40  F   UNL     1      -6.728   7.478 130.865  0.00  0.00    +0.000 F 
ATOM     41  F   UNL     1      -7.645   5.526 130.436  0.00  0.00    +0.000 F 
ATOM     42  F   UNL     1      -8.570   6.873 131.851  0.00  0.00    +0.000 F 
ENDBRANCH  38  39
ENDBRANCH  37  38
ENDBRANCH   5  37
TORSDOF 8
ENDMDL
