MODEL 1
REMARK VINA RESULT:      -9.3      0.000      0.000
REMARK  Name = CHEMBL427190
REMARK  11 active torsions:
REMARK  status: ('A' for Active; 'I' for Inactive)
REMARK    1  A    between atoms: C_1  and  C_2
REMARK    2  A    between atoms: C_2  and  O_3
REMARK    3  A    between atoms: O_3  and  C_4
REMARK    4  A    between atoms: C_7  and  S_8
REMARK    5  A    between atoms: S_8  and  N_11
REMARK    6  A    between atoms: N_11  and  C_12
REMARK    7  A    between atoms: N_11  and  C_29
REMARK    8  A    between atoms: C_12  and  C_13
REMARK    9  A    between atoms: C_24  and  C_25
REMARK   10  A    between atoms: C_25  and  C_26
REMARK   11  A    between atoms: C_32  and  C_33
REMARK                            x       y       z     vdW  Elec       q    Type
REMARK                         _______ _______ _______ _____ _____    ______ ____
ROOT
ATOM      1  N   UNL     1      -8.731   0.178 125.008  0.00  0.00    +0.000 N 
ENDROOT
BRANCH   1   2
ATOM      2  C   UNL     1      -7.732  -0.899 124.685  0.00  0.00    +0.000 A 
ATOM      3  C   UNL     1      -8.140  -2.255 124.698  0.00  0.00    +0.000 A 
ATOM      4  C   UNL     1      -7.229  -3.325 124.583  0.00  0.00    +0.000 A 
ATOM      5  C   UNL     1      -5.878  -3.074 124.361  0.00  0.00    +0.000 A 
ATOM      6  C   UNL     1      -4.934  -4.191 124.014  0.00  0.00    +0.000 C 
ATOM      7  C   UNL     1      -5.442  -1.745 124.396  0.00  0.00    +0.000 A 
ATOM      8  C   UNL     1      -6.353  -0.677 124.583  0.00  0.00    +0.000 A 
ENDBRANCH   1   2
BRANCH   1   9
ATOM      9  S   UNL     1      -9.369   1.177 123.724  0.00  0.00    +0.000 S 
ATOM     10  O   UNL     1     -10.321   2.043 124.363  0.00  0.00    +0.000 OA
ATOM     11  O   UNL     1      -9.833   0.256 122.678  0.00  0.00    +0.000 OA
BRANCH   9  15
ATOM     12  C   UNL     1      -6.355   3.565 120.912  0.00  0.00    +0.000 A 
ATOM     13  C   UNL     1      -7.704   3.828 120.858  0.00  0.00    +0.000 A 
ATOM     14  C   UNL     1      -8.641   3.180 121.782  0.00  0.00    +0.000 A 
ATOM     15  C   UNL     1      -8.226   2.334 122.833  0.00  0.00    +0.000 A 
ATOM     16  C   UNL     1      -6.896   2.458 123.091  0.00  0.00    +0.000 A 
ATOM     17  C   UNL     1      -6.032   2.977 122.084  0.00  0.00    +0.000 A 
BRANCH  12  18
ATOM     18  O   UNL     1      -5.334   4.073 120.140  0.00  0.00    +0.000 OA
BRANCH  18  20
ATOM     19  C   UNL     1      -5.954   5.668 118.370  0.00  0.00    +0.000 C 
ATOM     20  C   UNL     1      -5.366   5.502 119.765  0.00  0.00    +0.000 C 
ENDBRANCH  18  20
ENDBRANCH  12  18
ENDBRANCH   9  15
ENDBRANCH   1   9
BRANCH   1  21
ATOM     21  C   UNL     1      -8.780   0.476 126.463  0.00  0.00    +0.000 C 
BRANCH  21  22
ATOM     22  C   UNL     1      -7.529   0.366 127.340  0.00  0.00    +0.000 C 
ATOM     23  O   UNL     1      -7.478  -0.637 128.067  0.00  0.00    +0.000 OA
ATOM     24  N   UNL     1      -6.459   1.304 127.369  0.00  0.00    +0.000 N 
ATOM     25  C   UNL     1      -5.244   0.903 127.982  0.00  0.00    +0.000 C 
ATOM     26  C   UNL     1      -4.249   1.965 128.323  0.00  0.00    +0.000 A 
ATOM     27  C   UNL     1      -4.197   2.368 129.626  0.00  0.00    +0.000 A 
ATOM     28  C   UNL     1      -3.681   3.621 129.868  0.00  0.00    +0.000 A 
ATOM     29  C   UNL     1      -2.957   4.314 128.880  0.00  0.00    +0.000 A 
ATOM     30  C   UNL     1      -2.907   3.852 127.562  0.00  0.00    +0.000 A 
ATOM     31  C   UNL     1      -3.725   2.767 127.271  0.00  0.00    +0.000 A 
ATOM     32  C   UNL     1      -4.619   2.632 125.993  0.00  0.00    +0.000 C 
ATOM     33  C   UNL     1      -6.236   2.634 126.728  0.00  0.00    +0.000 C 
BRANCH  33  34
ATOM     34  C   UNL     1      -7.661   3.183 126.638  0.00  0.00    +0.000 C 
BRANCH  34  35
ATOM     35  C   UNL     1      -8.170   4.557 126.365  0.00  0.00    +0.000 C 
ATOM     36  N   UNL     1      -7.878   5.140 125.204  0.00  0.00    +0.000 N 
ATOM     37  O   UNL     1      -8.778   5.190 127.273  0.00  0.00    +0.000 OA
ATOM     38  H   UNL     1      -7.108   4.814 124.630  0.00  0.00    +0.000 HD
ATOM     39  H   UNL     1      -8.199   6.092 125.075  0.00  0.00    +0.000 HD
ENDBRANCH  34  35
ENDBRANCH  33  34
ENDBRANCH  21  22
ENDBRANCH   1  21
TORSDOF 9
ENDMDL
MODEL 2
REMARK VINA RESULT:      -8.7      3.716      7.792
REMARK  Name = CHEMBL427190
REMARK  11 active torsions:
REMARK  status: ('A' for Active; 'I' for Inactive)
REMARK    1  A    between atoms: C_1  and  C_2
REMARK    2  A    between atoms: C_2  and  O_3
REMARK    3  A    between atoms: O_3  and  C_4
REMARK    4  A    between atoms: C_7  and  S_8
REMARK    5  A    between atoms: S_8  and  N_11
REMARK    6  A    between atoms: N_11  and  C_12
REMARK    7  A    between atoms: N_11  and  C_29
REMARK    8  A    between atoms: C_12  and  C_13
REMARK    9  A    between atoms: C_24  and  C_25
REMARK   10  A    between atoms: C_25  and  C_26
REMARK   11  A    between atoms: C_32  and  C_33
REMARK                            x       y       z     vdW  Elec       q    Type
REMARK                         _______ _______ _______ _____ _____    ______ ____
ROOT
ATOM      1  N   UNL     1      -6.849   3.246 129.111  0.00  0.00    +0.000 N 
ENDROOT
BRANCH   1   2
ATOM      2  C   UNL     1      -5.564   3.136 128.337  0.00  0.00    +0.000 A 
ATOM      3  C   UNL     1      -4.364   2.822 129.020  0.00  0.00    +0.000 A 
ATOM      4  C   UNL     1      -3.098   2.877 128.402  0.00  0.00    +0.000 A 
ATOM      5  C   UNL     1      -2.996   3.165 127.043  0.00  0.00    +0.000 A 
ATOM      6  C   UNL     1      -1.687   3.010 126.320  0.00  0.00    +0.000 C 
ATOM      7  C   UNL     1      -4.160   3.530 126.359  0.00  0.00    +0.000 A 
ATOM      8  C   UNL     1      -5.420   3.541 127.005  0.00  0.00    +0.000 A 
ENDBRANCH   1   2
BRANCH   1   9
ATOM      9  S   UNL     1      -7.072   4.569 130.230  0.00  0.00    +0.000 S 
ATOM     10  O   UNL     1      -6.319   5.659 129.673  0.00  0.00    +0.000 OA
ATOM     11  O   UNL     1      -6.706   4.054 131.556  0.00  0.00    +0.000 OA
BRANCH   9  15
ATOM     12  C   UNL     1     -11.490   6.343 130.060  0.00  0.00    +0.000 A 
ATOM     13  C   UNL     1     -11.290   5.019 130.369  0.00  0.00    +0.000 A 
ATOM     14  C   UNL     1      -9.939   4.471 130.527  0.00  0.00    +0.000 A 
ATOM     15  C   UNL     1      -8.774   5.267 130.470  0.00  0.00    +0.000 A 
ATOM     16  C   UNL     1      -9.057   6.592 130.591  0.00  0.00    +0.000 A 
ATOM     17  C   UNL     1     -10.368   7.059 130.289  0.00  0.00    +0.000 A 
BRANCH  12  18
ATOM     18  O   UNL     1     -12.670   7.030 129.878  0.00  0.00    +0.000 OA
BRANCH  18  20
ATOM     19  C   UNL     1     -13.086   9.104 128.619  0.00  0.00    +0.000 C 
ATOM     20  C   UNL     1     -12.654   8.506 129.952  0.00  0.00    +0.000 C 
ENDBRANCH  18  20
ENDBRANCH  12  18
ENDBRANCH   9  15
ENDBRANCH   1   9
BRANCH   1  21
ATOM     21  C   UNL     1      -7.636   1.986 129.070  0.00  0.00    +0.000 C 
BRANCH  21  22
ATOM     22  C   UNL     1      -8.116   1.392 127.742  0.00  0.00    +0.000 C 
ATOM     23  O   UNL     1      -9.201   1.828 127.328  0.00  0.00    +0.000 OA
ATOM     24  N   UNL     1      -7.422   0.410 126.980  0.00  0.00    +0.000 N 
ATOM     25  C   UNL     1      -7.832   0.204 125.638  0.00  0.00    +0.000 C 
ATOM     26  C   UNL     1      -7.358  -1.032 124.943  0.00  0.00    +0.000 A 
ATOM     27  C   UNL     1      -8.242  -2.067 124.851  0.00  0.00    +0.000 A 
ATOM     28  C   UNL     1      -7.710  -3.325 124.679  0.00  0.00    +0.000 A 
ATOM     29  C   UNL     1      -6.367  -3.502 124.299  0.00  0.00    +0.000 A 
ATOM     30  C   UNL     1      -5.472  -2.428 124.281  0.00  0.00    +0.000 A 
ATOM     31  C   UNL     1      -5.956  -1.231 124.793  0.00  0.00    +0.000 A 
ATOM     32  C   UNL     1      -5.170  -0.283 125.760  0.00  0.00    +0.000 C 
ATOM     33  C   UNL     1      -6.184  -0.391 127.214  0.00  0.00    +0.000 C 
BRANCH  33  34
ATOM     34  C   UNL     1      -6.193  -0.548 128.736  0.00  0.00    +0.000 C 
BRANCH  34  35
ATOM     35  C   UNL     1      -5.082  -0.733 129.712  0.00  0.00    +0.000 C 
ATOM     36  N   UNL     1      -3.964  -1.339 129.318  0.00  0.00    +0.000 N 
ATOM     37  O   UNL     1      -5.253  -0.410 130.921  0.00  0.00    +0.000 OA
ATOM     38  H   UNL     1      -3.946  -1.920 128.487  0.00  0.00    +0.000 HD
ATOM     39  H   UNL     1      -3.252  -1.491 130.021  0.00  0.00    +0.000 HD
ENDBRANCH  34  35
ENDBRANCH  33  34
ENDBRANCH  21  22
ENDBRANCH   1  21
TORSDOF 9
ENDMDL
MODEL 3
REMARK VINA RESULT:      -8.7      3.322      7.465
REMARK  Name = CHEMBL427190
REMARK  11 active torsions:
REMARK  status: ('A' for Active; 'I' for Inactive)
REMARK    1  A    between atoms: C_1  and  C_2
REMARK    2  A    between atoms: C_2  and  O_3
REMARK    3  A    between atoms: O_3  and  C_4
REMARK    4  A    between atoms: C_7  and  S_8
REMARK    5  A    between atoms: S_8  and  N_11
REMARK    6  A    between atoms: N_11  and  C_12
REMARK    7  A    between atoms: N_11  and  C_29
REMARK    8  A    between atoms: C_12  and  C_13
REMARK    9  A    between atoms: C_24  and  C_25
REMARK   10  A    between atoms: C_25  and  C_26
REMARK   11  A    between atoms: C_32  and  C_33
REMARK                            x       y       z     vdW  Elec       q    Type
REMARK                         _______ _______ _______ _____ _____    ______ ____
ROOT
ATOM      1  N   UNL     1      -6.956   3.756 128.782  0.00  0.00    +0.000 N 
ENDROOT
BRANCH   1   2
ATOM      2  C   UNL     1      -5.572   3.692 128.196  0.00  0.00    +0.000 A 
ATOM      3  C   UNL     1      -5.404   3.791 126.793  0.00  0.00    +0.000 A 
ATOM      4  C   UNL     1      -4.167   3.562 126.156  0.00  0.00    +0.000 A 
ATOM      5  C   UNL     1      -3.026   3.309 126.913  0.00  0.00    +0.000 A 
ATOM      6  C   UNL     1      -1.667   3.284 126.272  0.00  0.00    +0.000 C 
ATOM      7  C   UNL     1      -3.175   3.153 128.295  0.00  0.00    +0.000 A 
ATOM      8  C   UNL     1      -4.435   3.315 128.922  0.00  0.00    +0.000 A 
ENDBRANCH   1   2
BRANCH   1   9
ATOM      9  S   UNL     1      -7.274   4.826 130.125  0.00  0.00    +0.000 S 
ATOM     10  O   UNL     1      -6.491   6.002 129.860  0.00  0.00    +0.000 OA
ATOM     11  O   UNL     1      -7.005   4.050 131.343  0.00  0.00    +0.000 OA
BRANCH   9  15
ATOM     12  C   UNL     1     -11.747   6.459 129.974  0.00  0.00    +0.000 A 
ATOM     13  C   UNL     1     -11.504   5.144 130.292  0.00  0.00    +0.000 A 
ATOM     14  C   UNL     1     -10.135   4.641 130.444  0.00  0.00    +0.000 A 
ATOM     15  C   UNL     1      -8.995   5.472 130.372  0.00  0.00    +0.000 A 
ATOM     16  C   UNL     1      -9.319   6.789 130.485  0.00  0.00    +0.000 A 
ATOM     17  C   UNL     1     -10.647   7.212 130.189  0.00  0.00    +0.000 A 
BRANCH  12  18
ATOM     18  O   UNL     1     -12.949   7.108 129.795  0.00  0.00    +0.000 OA
BRANCH  18  20
ATOM     19  C   UNL     1     -13.126   7.127 127.340  0.00  0.00    +0.000 C 
ATOM     20  C   UNL     1     -13.126   7.970 128.609  0.00  0.00    +0.000 C 
ENDBRANCH  18  20
ENDBRANCH  12  18
ENDBRANCH   9  15
ENDBRANCH   1   9
BRANCH   1  21
ATOM     21  C   UNL     1      -7.801   2.615 128.345  0.00  0.00    +0.000 C 
BRANCH  21  22
ATOM     22  C   UNL     1      -7.258   1.183 128.329  0.00  0.00    +0.000 C 
ATOM     23  O   UNL     1      -6.582   0.861 129.318  0.00  0.00    +0.000 OA
ATOM     24  N   UNL     1      -7.473   0.231 127.292  0.00  0.00    +0.000 N 
ATOM     25  C   UNL     1      -7.182  -1.128 127.572  0.00  0.00    +0.000 C 
ATOM     26  C   UNL     1      -7.075  -2.072 126.417  0.00  0.00    +0.000 A 
ATOM     27  C   UNL     1      -5.817  -2.402 126.003  0.00  0.00    +0.000 A 
ATOM     28  C   UNL     1      -5.687  -2.841 124.705  0.00  0.00    +0.000 A 
ATOM     29  C   UNL     1      -6.809  -3.233 123.952  0.00  0.00    +0.000 A 
ATOM     30  C   UNL     1      -8.107  -3.002 124.414  0.00  0.00    +0.000 A 
ATOM     31  C   UNL     1      -8.209  -2.244 125.574  0.00  0.00    +0.000 A 
ATOM     32  C   UNL     1      -9.232  -1.082 125.802  0.00  0.00    +0.000 C 
ATOM     33  C   UNL     1      -8.126   0.299 125.951  0.00  0.00    +0.000 C 
BRANCH  33  34
ATOM     34  C   UNL     1      -7.857   1.748 125.542  0.00  0.00    +0.000 C 
BRANCH  34  35
ATOM     35  C   UNL     1      -8.709   2.745 124.834  0.00  0.00    +0.000 C 
ATOM     36  N   UNL     1      -9.444   2.351 123.796  0.00  0.00    +0.000 N 
ATOM     37  O   UNL     1      -8.644   3.964 125.157  0.00  0.00    +0.000 OA
ATOM     38  H   UNL     1      -9.238   1.491 123.301  0.00  0.00    +0.000 HD
ATOM     39  H   UNL     1      -9.972   3.066 123.310  0.00  0.00    +0.000 HD
ENDBRANCH  34  35
ENDBRANCH  33  34
ENDBRANCH  21  22
ENDBRANCH   1  21
TORSDOF 9
ENDMDL
MODEL 4
REMARK VINA RESULT:      -8.6      5.043      8.164
REMARK  Name = CHEMBL427190
REMARK  11 active torsions:
REMARK  status: ('A' for Active; 'I' for Inactive)
REMARK    1  A    between atoms: C_1  and  C_2
REMARK    2  A    between atoms: C_2  and  O_3
REMARK    3  A    between atoms: O_3  and  C_4
REMARK    4  A    between atoms: C_7  and  S_8
REMARK    5  A    between atoms: S_8  and  N_11
REMARK    6  A    between atoms: N_11  and  C_12
REMARK    7  A    between atoms: N_11  and  C_29
REMARK    8  A    between atoms: C_12  and  C_13
REMARK    9  A    between atoms: C_24  and  C_25
REMARK   10  A    between atoms: C_25  and  C_26
REMARK   11  A    between atoms: C_32  and  C_33
REMARK                            x       y       z     vdW  Elec       q    Type
REMARK                         _______ _______ _______ _____ _____    ______ ____
ROOT
ATOM      1  N   UNL     1      -7.474   3.332 131.903  0.00  0.00    +0.000 N 
ENDROOT
BRANCH   1   2
ATOM      2  C   UNL     1      -7.632   3.288 130.408  0.00  0.00    +0.000 A 
ATOM      3  C   UNL     1      -8.423   2.272 129.820  0.00  0.00    +0.000 A 
ATOM      4  C   UNL     1      -8.476   2.056 128.428  0.00  0.00    +0.000 A 
ATOM      5  C   UNL     1      -7.802   2.912 127.562  0.00  0.00    +0.000 A 
ATOM      6  C   UNL     1      -8.023   2.837 126.077  0.00  0.00    +0.000 C 
ATOM      7  C   UNL     1      -6.972   3.891 128.118  0.00  0.00    +0.000 A 
ATOM      8  C   UNL     1      -6.869   4.057 129.521  0.00  0.00    +0.000 A 
ENDBRANCH   1   2
BRANCH   1   9
ATOM      9  S   UNL     1      -8.216   4.627 132.812  0.00  0.00    +0.000 S 
ATOM     10  O   UNL     1      -7.118   5.370 133.366  0.00  0.00    +0.000 OA
ATOM     11  O   UNL     1      -9.179   3.993 133.722  0.00  0.00    +0.000 OA
BRANCH   9  15
ATOM     12  C   UNL     1     -10.920   7.325 129.964  0.00  0.00    +0.000 A 
ATOM     13  C   UNL     1     -11.450   6.789 131.114  0.00  0.00    +0.000 A 
ATOM     14  C   UNL     1     -10.614   6.040 132.058  0.00  0.00    +0.000 A 
ATOM     15  C   UNL     1      -9.217   5.900 131.908  0.00  0.00    +0.000 A 
ATOM     16  C   UNL     1      -8.710   6.792 131.014  0.00  0.00    +0.000 A 
ATOM     17  C   UNL     1      -9.572   7.375 130.042  0.00  0.00    +0.000 A 
BRANCH  12  18
ATOM     18  O   UNL     1     -11.538   8.054 128.973  0.00  0.00    +0.000 OA
BRANCH  18  20
ATOM     19  C   UNL     1     -11.213   7.446 126.610  0.00  0.00    +0.000 C 
ATOM     20  C   UNL     1     -10.784   8.369 127.743  0.00  0.00    +0.000 C 
ENDBRANCH  18  20
ENDBRANCH  12  18
ENDBRANCH   9  15
ENDBRANCH   1   9
BRANCH   1  21
ATOM     21  C   UNL     1      -6.391   2.431 132.377  0.00  0.00    +0.000 C 
BRANCH  21  22
ATOM     22  C   UNL     1      -6.695   1.013 132.869  0.00  0.00    +0.000 C 
ATOM     23  O   UNL     1      -7.003   0.921 134.066  0.00  0.00    +0.000 OA
ATOM     24  N   UNL     1      -6.651  -0.163 132.068  0.00  0.00    +0.000 N 
ATOM     25  C   UNL     1      -7.262  -1.336 132.581  0.00  0.00    +0.000 C 
ATOM     26  C   UNL     1      -6.935  -2.639 131.926  0.00  0.00    +0.000 A 
ATOM     27  C   UNL     1      -6.023  -3.435 132.556  0.00  0.00    +0.000 A 
ATOM     28  C   UNL     1      -5.359  -4.355 131.776  0.00  0.00    +0.000 A 
ATOM     29  C   UNL     1      -5.814  -4.679 130.485  0.00  0.00    +0.000 A 
ATOM     30  C   UNL     1      -6.827  -3.941 129.868  0.00  0.00    +0.000 A 
ATOM     31  C   UNL     1      -7.241  -2.801 130.546  0.00  0.00    +0.000 A 
ATOM     32  C   UNL     1      -7.502  -1.407 129.884  0.00  0.00    +0.000 C 
ATOM     33  C   UNL     1      -6.234  -0.437 130.660  0.00  0.00    +0.000 C 
BRANCH  33  34
ATOM     34  C   UNL     1      -5.139   0.610 130.447  0.00  0.00    +0.000 C 
BRANCH  34  35
ATOM     35  C   UNL     1      -4.615   1.246 129.206  0.00  0.00    +0.000 C 
ATOM     36  N   UNL     1      -4.866   0.678 128.028  0.00  0.00    +0.000 N 
ATOM     37  O   UNL     1      -3.854   2.250 129.292  0.00  0.00    +0.000 OA
ATOM     38  H   UNL     1      -5.147  -0.294 127.962  0.00  0.00    +0.000 HD
ATOM     39  H   UNL     1      -4.452   1.111 127.212  0.00  0.00    +0.000 HD
ENDBRANCH  34  35
ENDBRANCH  33  34
ENDBRANCH  21  22
ENDBRANCH   1  21
TORSDOF 9
ENDMDL
MODEL 5
REMARK VINA RESULT:      -8.5      2.812      6.545
REMARK  Name = CHEMBL427190
REMARK  11 active torsions:
REMARK  status: ('A' for Active; 'I' for Inactive)
REMARK    1  A    between atoms: C_1  and  C_2
REMARK    2  A    between atoms: C_2  and  O_3
REMARK    3  A    between atoms: O_3  and  C_4
REMARK    4  A    between atoms: C_7  and  S_8
REMARK    5  A    between atoms: S_8  and  N_11
REMARK    6  A    between atoms: N_11  and  C_12
REMARK    7  A    between atoms: N_11  and  C_29
REMARK    8  A    between atoms: C_12  and  C_13
REMARK    9  A    between atoms: C_24  and  C_25
REMARK   10  A    between atoms: C_25  and  C_26
REMARK   11  A    between atoms: C_32  and  C_33
REMARK                            x       y       z     vdW  Elec       q    Type
REMARK                         _______ _______ _______ _____ _____    ______ ____
ROOT
ATOM      1  N   UNL     1      -7.550   2.082 124.678  0.00  0.00    +0.000 N 
ENDROOT
BRANCH   1   2
ATOM      2  C   UNL     1      -7.511   2.593 123.264  0.00  0.00    +0.000 A 
ATOM      3  C   UNL     1      -6.298   3.100 122.739  0.00  0.00    +0.000 A 
ATOM      4  C   UNL     1      -6.222   3.757 121.494  0.00  0.00    +0.000 A 
ATOM      5  C   UNL     1      -7.350   3.854 120.684  0.00  0.00    +0.000 A 
ATOM      6  C   UNL     1      -7.242   4.348 119.269  0.00  0.00    +0.000 C 
ATOM      7  C   UNL     1      -8.572   3.409 121.202  0.00  0.00    +0.000 A 
ATOM      8  C   UNL     1      -8.653   2.813 122.484  0.00  0.00    +0.000 A 
ENDBRANCH   1   2
BRANCH   1   9
ATOM      9  S   UNL     1      -7.978   3.169 125.977  0.00  0.00    +0.000 S 
ATOM     10  O   UNL     1      -8.643   2.346 126.949  0.00  0.00    +0.000 OA
ATOM     11  O   UNL     1      -8.715   4.279 125.359  0.00  0.00    +0.000 OA
BRANCH   9  15
ATOM     12  C   UNL     1      -4.124   4.624 128.369  0.00  0.00    +0.000 A 
ATOM     13  C   UNL     1      -4.299   4.991 127.056  0.00  0.00    +0.000 A 
ATOM     14  C   UNL     1      -5.523   4.641 126.327  0.00  0.00    +0.000 A 
ATOM     15  C   UNL     1      -6.626   4.003 126.935  0.00  0.00    +0.000 A 
ATOM     16  C   UNL     1      -6.561   4.058 128.293  0.00  0.00    +0.000 A 
ATOM     17  C   UNL     1      -5.303   4.271 128.925  0.00  0.00    +0.000 A 
BRANCH  12  18
ATOM     18  O   UNL     1      -3.058   4.863 129.209  0.00  0.00    +0.000 OA
BRANCH  18  20
ATOM     19  C   UNL     1      -3.201   7.209 129.940  0.00  0.00    +0.000 C 
ATOM     20  C   UNL     1      -2.393   6.180 129.160  0.00  0.00    +0.000 C 
ENDBRANCH  18  20
ENDBRANCH  12  18
ENDBRANCH   9  15
ENDBRANCH   1   9
BRANCH   1  21
ATOM     21  C   UNL     1      -6.865   0.771 124.817  0.00  0.00    +0.000 C 
BRANCH  21  22
ATOM     22  C   UNL     1      -5.942   0.477 126.005  0.00  0.00    +0.000 C 
ATOM     23  O   UNL     1      -4.913   1.167 126.060  0.00  0.00    +0.000 OA
ATOM     24  N   UNL     1      -6.184  -0.497 127.014  0.00  0.00    +0.000 N 
ATOM     25  C   UNL     1      -5.411  -0.425 128.201  0.00  0.00    +0.000 C 
ATOM     26  C   UNL     1      -5.406  -1.615 129.105  0.00  0.00    +0.000 A 
ATOM     27  C   UNL     1      -4.320  -2.439 129.038  0.00  0.00    +0.000 A 
ATOM     28  C   UNL     1      -4.498  -3.737 129.462  0.00  0.00    +0.000 A 
ATOM     29  C   UNL     1      -5.626  -4.109 130.215  0.00  0.00    +0.000 A 
ATOM     30  C   UNL     1      -6.702  -3.233 130.388  0.00  0.00    +0.000 A 
ATOM     31  C   UNL     1      -6.643  -2.053 129.658  0.00  0.00    +0.000 A 
ATOM     32  C   UNL     1      -7.839  -1.422 128.870  0.00  0.00    +0.000 C 
ATOM     33  C   UNL     1      -7.231  -1.544 127.206  0.00  0.00    +0.000 C 
BRANCH  33  34
ATOM     34  C   UNL     1      -7.575  -1.915 125.762  0.00  0.00    +0.000 C 
BRANCH  34  35
ATOM     35  C   UNL     1      -7.059  -2.996 124.875  0.00  0.00    +0.000 C 
ATOM     36  N   UNL     1      -5.843  -2.878 124.346  0.00  0.00    +0.000 N 
ATOM     37  O   UNL     1      -7.816  -3.954 124.552  0.00  0.00    +0.000 OA
ATOM     38  H   UNL     1      -5.378  -1.979 124.291  0.00  0.00    +0.000 HD
ATOM     39  H   UNL     1      -5.546  -3.608 123.710  0.00  0.00    +0.000 HD
ENDBRANCH  34  35
ENDBRANCH  33  34
ENDBRANCH  21  22
ENDBRANCH   1  21
TORSDOF 9
ENDMDL
MODEL 6
REMARK VINA RESULT:      -8.5      3.358      4.998
REMARK  Name = CHEMBL427190
REMARK  11 active torsions:
REMARK  status: ('A' for Active; 'I' for Inactive)
REMARK    1  A    between atoms: C_1  and  C_2
REMARK    2  A    between atoms: C_2  and  O_3
REMARK    3  A    between atoms: O_3  and  C_4
REMARK    4  A    between atoms: C_7  and  S_8
REMARK    5  A    between atoms: S_8  and  N_11
REMARK    6  A    between atoms: N_11  and  C_12
REMARK    7  A    between atoms: N_11  and  C_29
REMARK    8  A    between atoms: C_12  and  C_13
REMARK    9  A    between atoms: C_24  and  C_25
REMARK   10  A    between atoms: C_25  and  C_26
REMARK   11  A    between atoms: C_32  and  C_33
REMARK                            x       y       z     vdW  Elec       q    Type
REMARK                         _______ _______ _______ _____ _____    ______ ____
ROOT
ATOM      1  N   UNL     1      -7.068   2.198 127.663  0.00  0.00    +0.000 N 
ENDROOT
BRANCH   1   2
ATOM      2  C   UNL     1      -6.800   0.986 126.812  0.00  0.00    +0.000 A 
ATOM      3  C   UNL     1      -7.839   0.050 126.588  0.00  0.00    +0.000 A 
ATOM      4  C   UNL     1      -7.622  -1.191 125.956  0.00  0.00    +0.000 A 
ATOM      5  C   UNL     1      -6.366  -1.506 125.445  0.00  0.00    +0.000 A 
ATOM      6  C   UNL     1      -6.169  -2.718 124.578  0.00  0.00    +0.000 C 
ATOM      7  C   UNL     1      -5.312  -0.623 125.700  0.00  0.00    +0.000 A 
ATOM      8  C   UNL     1      -5.523   0.592 126.397  0.00  0.00    +0.000 A 
ENDBRANCH   1   2
BRANCH   1   9
ATOM      9  S   UNL     1      -7.200   3.769 126.909  0.00  0.00    +0.000 S 
ATOM     10  O   UNL     1      -6.077   4.516 127.404  0.00  0.00    +0.000 OA
ATOM     11  O   UNL     1      -8.558   4.250 127.195  0.00  0.00    +0.000 OA
BRANCH   9  15
ATOM     12  C   UNL     1      -6.482   3.387 122.215  0.00  0.00    +0.000 A 
ATOM     13  C   UNL     1      -7.727   3.141 122.745  0.00  0.00    +0.000 A 
ATOM     14  C   UNL     1      -8.000   3.349 124.171  0.00  0.00    +0.000 A 
ATOM     15  C   UNL     1      -7.054   3.896 125.065  0.00  0.00    +0.000 A 
ATOM     16  C   UNL     1      -6.026   4.501 124.410  0.00  0.00    +0.000 A 
ATOM     17  C   UNL     1      -5.747   4.142 123.060  0.00  0.00    +0.000 A 
BRANCH  12  18
ATOM     18  O   UNL     1      -6.043   3.256 120.916  0.00  0.00    +0.000 OA
BRANCH  18  20
ATOM     19  C   UNL     1      -7.198   4.449 119.098  0.00  0.00    +0.000 C 
ATOM     20  C   UNL     1      -6.009   4.453 120.051  0.00  0.00    +0.000 C 
ENDBRANCH  18  20
ENDBRANCH  12  18
ENDBRANCH   9  15
ENDBRANCH   1   9
BRANCH   1  21
ATOM     21  C   UNL     1      -6.834   1.930 129.106  0.00  0.00    +0.000 C 
BRANCH  21  22
ATOM     22  C   UNL     1      -7.520   0.761 129.819  0.00  0.00    +0.000 C 
ATOM     23  O   UNL     1      -8.659   0.997 130.249  0.00  0.00    +0.000 OA
ATOM     24  N   UNL     1      -6.957  -0.532 130.010  0.00  0.00    +0.000 N 
ATOM     25  C   UNL     1      -7.828  -1.583 130.395  0.00  0.00    +0.000 C 
ATOM     26  C   UNL     1      -7.217  -2.840 130.924  0.00  0.00    +0.000 A 
ATOM     27  C   UNL     1      -7.219  -3.007 132.278  0.00  0.00    +0.000 A 
ATOM     28  C   UNL     1      -6.273  -3.859 132.801  0.00  0.00    +0.000 A 
ATOM     29  C   UNL     1      -5.560  -4.749 131.977  0.00  0.00    +0.000 A 
ATOM     30  C   UNL     1      -5.634  -4.663 130.584  0.00  0.00    +0.000 A 
ATOM     31  C   UNL     1      -6.329  -3.569 130.083  0.00  0.00    +0.000 A 
ATOM     32  C   UNL     1      -5.856  -2.672 128.891  0.00  0.00    +0.000 C 
ATOM     33  C   UNL     1      -5.615  -1.124 129.727  0.00  0.00    +0.000 C 
BRANCH  33  34
ATOM     34  C   UNL     1      -4.694   0.086 129.900  0.00  0.00    +0.000 C 
BRANCH  34  35
ATOM     35  C   UNL     1      -4.112   0.711 131.121  0.00  0.00    +0.000 C 
ATOM     36  N   UNL     1      -3.945  -0.030 132.215  0.00  0.00    +0.000 N 
ATOM     37  O   UNL     1      -3.884   1.953 131.138  0.00  0.00    +0.000 OA
ATOM     38  H   UNL     1      -4.447  -0.902 132.341  0.00  0.00    +0.000 HD
ATOM     39  H   UNL     1      -3.594   0.441 133.039  0.00  0.00    +0.000 HD
ENDBRANCH  34  35
ENDBRANCH  33  34
ENDBRANCH  21  22
ENDBRANCH   1  21
TORSDOF 9
ENDMDL
MODEL 7
REMARK VINA RESULT:      -8.4      4.991      8.884
REMARK  Name = CHEMBL427190
REMARK  11 active torsions:
REMARK  status: ('A' for Active; 'I' for Inactive)
REMARK    1  A    between atoms: C_1  and  C_2
REMARK    2  A    between atoms: C_2  and  O_3
REMARK    3  A    between atoms: O_3  and  C_4
REMARK    4  A    between atoms: C_7  and  S_8
REMARK    5  A    between atoms: S_8  and  N_11
REMARK    6  A    between atoms: N_11  and  C_12
REMARK    7  A    between atoms: N_11  and  C_29
REMARK    8  A    between atoms: C_12  and  C_13
REMARK    9  A    between atoms: C_24  and  C_25
REMARK   10  A    between atoms: C_25  and  C_26
REMARK   11  A    between atoms: C_32  and  C_33
REMARK                            x       y       z     vdW  Elec       q    Type
REMARK                         _______ _______ _______ _____ _____    ______ ____
ROOT
ATOM      1  N   UNL     1      -9.210   4.975 130.674  0.00  0.00    +0.000 N 
ENDROOT
BRANCH   1   2
ATOM      2  C   UNL     1     -10.209   5.983 130.177  0.00  0.00    +0.000 A 
ATOM      3  C   UNL     1     -11.542   5.577 129.925  0.00  0.00    +0.000 A 
ATOM      4  C   UNL     1     -12.486   6.411 129.293  0.00  0.00    +0.000 A 
ATOM      5  C   UNL     1     -12.153   7.723 128.967  0.00  0.00    +0.000 A 
ATOM      6  C   UNL     1     -13.204   8.691 128.501  0.00  0.00    +0.000 C 
ATOM      7  C   UNL     1     -10.829   8.132 129.156  0.00  0.00    +0.000 A 
ATOM      8  C   UNL     1      -9.866   7.265 129.728  0.00  0.00    +0.000 A 
ENDBRANCH   1   2
BRANCH   1   9
ATOM      9  S   UNL     1      -8.323   5.293 132.145  0.00  0.00    +0.000 S 
ATOM     10  O   UNL     1      -7.939   3.999 132.637  0.00  0.00    +0.000 OA
ATOM     11  O   UNL     1      -9.190   6.143 132.973  0.00  0.00    +0.000 OA
BRANCH   9  15
ATOM     12  C   UNL     1      -3.970   7.105 131.462  0.00  0.00    +0.000 A 
ATOM     13  C   UNL     1      -5.033   7.567 130.722  0.00  0.00    +0.000 A 
ATOM     14  C   UNL     1      -6.399   7.099 130.982  0.00  0.00    +0.000 A 
ATOM     15  C   UNL     1      -6.728   6.234 132.049  0.00  0.00    +0.000 A 
ATOM     16  C   UNL     1      -5.731   6.165 132.972  0.00  0.00    +0.000 A 
ATOM     17  C   UNL     1      -4.402   6.514 132.596  0.00  0.00    +0.000 A 
BRANCH  12  18
ATOM     18  O   UNL     1      -2.634   7.427 131.368  0.00  0.00    +0.000 OA
BRANCH  18  20
ATOM     19  C   UNL     1      -0.466   6.860 132.386  0.00  0.00    +0.000 C 
ATOM     20  C   UNL     1      -1.629   6.359 131.540  0.00  0.00    +0.000 C 
ENDBRANCH  18  20
ENDBRANCH  12  18
ENDBRANCH   9  15
ENDBRANCH   1   9
BRANCH   1  21
ATOM     21  C   UNL     1      -8.856   3.977 129.631  0.00  0.00    +0.000 C 
BRANCH  21  22
ATOM     22  C   UNL     1      -7.959   4.348 128.447  0.00  0.00    +0.000 C 
ATOM     23  O   UNL     1      -8.537   4.887 127.492  0.00  0.00    +0.000 OA
ATOM     24  N   UNL     1      -6.554   4.126 128.377  0.00  0.00    +0.000 N 
ATOM     25  C   UNL     1      -5.827   4.807 127.367  0.00  0.00    +0.000 C 
ATOM     26  C   UNL     1      -4.442   4.333 127.064  0.00  0.00    +0.000 A 
ATOM     27  C   UNL     1      -4.285   3.552 125.956  0.00  0.00    +0.000 A 
ATOM     28  C   UNL     1      -3.180   2.730 125.928  0.00  0.00    +0.000 A 
ATOM     29  C   UNL     1      -2.113   2.914 126.826  0.00  0.00    +0.000 A 
ATOM     30  C   UNL     1      -2.217   3.797 127.904  0.00  0.00    +0.000 A 
ATOM     31  C   UNL     1      -3.473   4.356 128.106  0.00  0.00    +0.000 A 
ATOM     32  C   UNL     1      -4.178   4.504 129.495  0.00  0.00    +0.000 C 
ATOM     33  C   UNL     1      -5.575   3.432 129.265  0.00  0.00    +0.000 C 
BRANCH  33  34
ATOM     34  C   UNL     1      -6.439   2.335 129.890  0.00  0.00    +0.000 C 
BRANCH  34  35
ATOM     35  C   UNL     1      -6.197   1.437 131.055  0.00  0.00    +0.000 C 
ATOM     36  N   UNL     1      -7.206   1.146 131.873  0.00  0.00    +0.000 N 
ATOM     37  O   UNL     1      -5.022   1.050 131.312  0.00  0.00    +0.000 OA
ATOM     38  H   UNL     1      -8.041   1.720 131.902  0.00  0.00    +0.000 HD
ATOM     39  H   UNL     1      -6.993   0.574 132.680  0.00  0.00    +0.000 HD
ENDBRANCH  34  35
ENDBRANCH  33  34
ENDBRANCH  21  22
ENDBRANCH   1  21
TORSDOF 9
ENDMDL
MODEL 8
REMARK VINA RESULT:      -8.2      6.689      9.905
REMARK  Name = CHEMBL427190
REMARK  11 active torsions:
REMARK  status: ('A' for Active; 'I' for Inactive)
REMARK    1  A    between atoms: C_1  and  C_2
REMARK    2  A    between atoms: C_2  and  O_3
REMARK    3  A    between atoms: O_3  and  C_4
REMARK    4  A    between atoms: C_7  and  S_8
REMARK    5  A    between atoms: S_8  and  N_11
REMARK    6  A    between atoms: N_11  and  C_12
REMARK    7  A    between atoms: N_11  and  C_29
REMARK    8  A    between atoms: C_12  and  C_13
REMARK    9  A    between atoms: C_24  and  C_25
REMARK   10  A    between atoms: C_25  and  C_26
REMARK   11  A    between atoms: C_32  and  C_33
REMARK                            x       y       z     vdW  Elec       q    Type
REMARK                         _______ _______ _______ _____ _____    ______ ____
ROOT
ATOM      1  N   UNL     1      -9.309   6.065 130.185  0.00  0.00    +0.000 N 
ENDROOT
BRANCH   1   2
ATOM      2  C   UNL     1     -10.342   7.086 129.794  0.00  0.00    +0.000 A 
ATOM      3  C   UNL     1     -11.513   7.226 130.577  0.00  0.00    +0.000 A 
ATOM      4  C   UNL     1     -12.603   8.028 130.181  0.00  0.00    +0.000 A 
ATOM      5  C   UNL     1     -12.524   8.791 129.019  0.00  0.00    +0.000 A 
ATOM      6  C   UNL     1     -13.576   9.815 128.698  0.00  0.00    +0.000 C 
ATOM      7  C   UNL     1     -11.401   8.630 128.201  0.00  0.00    +0.000 A 
ATOM      8  C   UNL     1     -10.340   7.769 128.571  0.00  0.00    +0.000 A 
ENDBRANCH   1   2
BRANCH   1   9
ATOM      9  S   UNL     1      -9.557   4.385 129.774  0.00  0.00    +0.000 S 
ATOM     10  O   UNL     1      -8.929   4.218 128.492  0.00  0.00    +0.000 OA
ATOM     11  O   UNL     1     -11.000   4.139 129.898  0.00  0.00    +0.000 OA
BRANCH   9  15
ATOM     12  C   UNL     1      -8.010   0.517 132.084  0.00  0.00    +0.000 A 
ATOM     13  C   UNL     1      -7.233   1.094 131.108  0.00  0.00    +0.000 A 
ATOM     14  C   UNL     1      -7.639   2.341 130.452  0.00  0.00    +0.000 A 
ATOM     15  C   UNL     1      -8.783   3.076 130.835  0.00  0.00    +0.000 A 
ATOM     16  C   UNL     1      -9.250   2.692 132.053  0.00  0.00    +0.000 A 
ATOM     17  C   UNL     1      -8.912   1.403 132.559  0.00  0.00    +0.000 A 
BRANCH  12  18
ATOM     18  O   UNL     1      -7.794  -0.636 132.807  0.00  0.00    +0.000 OA
BRANCH  18  20
ATOM     19  C   UNL     1      -5.930  -0.155 134.342  0.00  0.00    +0.000 C 
ATOM     20  C   UNL     1      -6.409  -1.001 133.169  0.00  0.00    +0.000 C 
ENDBRANCH  18  20
ENDBRANCH  12  18
ENDBRANCH   9  15
ENDBRANCH   1   9
BRANCH   1  21
ATOM     21  C   UNL     1      -8.357   6.593 131.197  0.00  0.00    +0.000 C 
BRANCH  21  22
ATOM     22  C   UNL     1      -8.395   6.112 132.651  0.00  0.00    +0.000 C 
ATOM     23  O   UNL     1      -9.462   6.312 133.248  0.00  0.00    +0.000 OA
ATOM     24  N   UNL     1      -7.323   5.470 133.334  0.00  0.00    +0.000 N 
ATOM     25  C   UNL     1      -7.619   4.806 134.552  0.00  0.00    +0.000 C 
ATOM     26  C   UNL     1      -6.477   4.431 135.439  0.00  0.00    +0.000 A 
ATOM     27  C   UNL     1      -6.236   5.239 136.512  0.00  0.00    +0.000 A 
ATOM     28  C   UNL     1      -4.962   5.216 137.033  0.00  0.00    +0.000 A 
ATOM     29  C   UNL     1      -4.054   4.195 136.694  0.00  0.00    +0.000 A 
ATOM     30  C   UNL     1      -4.336   3.288 135.669  0.00  0.00    +0.000 A 
ATOM     31  C   UNL     1      -5.482   3.550 134.929  0.00  0.00    +0.000 A 
ATOM     32  C   UNL     1      -5.583   3.467 133.369  0.00  0.00    +0.000 C 
ATOM     33  C   UNL     1      -5.906   5.168 132.975  0.00  0.00    +0.000 C 
BRANCH  33  34
ATOM     34  C   UNL     1      -5.560   6.335 132.047  0.00  0.00    +0.000 C 
BRANCH  34  35
ATOM     35  C   UNL     1      -4.630   6.426 130.886  0.00  0.00    +0.000 C 
ATOM     36  N   UNL     1      -3.384   5.974 131.015  0.00  0.00    +0.000 N 
ATOM     37  O   UNL     1      -4.998   7.023 129.836  0.00  0.00    +0.000 OA
ATOM     38  H   UNL     1      -2.966   5.836 131.928  0.00  0.00    +0.000 HD
ATOM     39  H   UNL     1      -2.767   6.098 130.222  0.00  0.00    +0.000 HD
ENDBRANCH  34  35
ENDBRANCH  33  34
ENDBRANCH  21  22
ENDBRANCH   1  21
TORSDOF 9
ENDMDL
MODEL 9
REMARK VINA RESULT:      -8.2      3.323      7.341
REMARK  Name = CHEMBL427190
REMARK  11 active torsions:
REMARK  status: ('A' for Active; 'I' for Inactive)
REMARK    1  A    between atoms: C_1  and  C_2
REMARK    2  A    between atoms: C_2  and  O_3
REMARK    3  A    between atoms: O_3  and  C_4
REMARK    4  A    between atoms: C_7  and  S_8
REMARK    5  A    between atoms: S_8  and  N_11
REMARK    6  A    between atoms: N_11  and  C_12
REMARK    7  A    between atoms: N_11  and  C_29
REMARK    8  A    between atoms: C_12  and  C_13
REMARK    9  A    between atoms: C_24  and  C_25
REMARK   10  A    between atoms: C_25  and  C_26
REMARK   11  A    between atoms: C_32  and  C_33
REMARK                            x       y       z     vdW  Elec       q    Type
REMARK                         _______ _______ _______ _____ _____    ______ ____
ROOT
ATOM      1  N   UNL     1      -5.948   2.862 128.665  0.00  0.00    +0.000 N 
ENDROOT
BRANCH   1   2
ATOM      2  C   UNL     1      -6.287   1.526 129.268  0.00  0.00    +0.000 A 
ATOM      3  C   UNL     1      -7.638   1.212 129.552  0.00  0.00    +0.000 A 
ATOM      4  C   UNL     1      -8.018   0.064 130.276  0.00  0.00    +0.000 A 
ATOM      5  C   UNL     1      -7.057  -0.864 130.669  0.00  0.00    +0.000 A 
ATOM      6  C   UNL     1      -7.460  -2.194 131.241  0.00  0.00    +0.000 C 
ATOM      7  C   UNL     1      -5.711  -0.553 130.448  0.00  0.00    +0.000 A 
ATOM      8  C   UNL     1      -5.333   0.638 129.781  0.00  0.00    +0.000 A 
ENDBRANCH   1   2
BRANCH   1   9
ATOM      9  S   UNL     1      -5.931   4.286 129.678  0.00  0.00    +0.000 S 
ATOM     10  O   UNL     1      -5.249   5.286 128.904  0.00  0.00    +0.000 OA
ATOM     11  O   UNL     1      -5.360   3.868 130.965  0.00  0.00    +0.000 OA
BRANCH   9  15
ATOM     12  C   UNL     1      -9.991   6.728 130.173  0.00  0.00    +0.000 A 
ATOM     13  C   UNL     1     -10.020   5.420 129.752  0.00  0.00    +0.000 A 
ATOM     14  C   UNL     1      -8.796   4.615 129.688  0.00  0.00    +0.000 A 
ATOM     15  C   UNL     1      -7.541   5.084 130.135  0.00  0.00    +0.000 A 
ATOM     16  C   UNL     1      -7.661   6.192 130.916  0.00  0.00    +0.000 A 
ATOM     17  C   UNL     1      -8.834   6.994 130.818  0.00  0.00    +0.000 A 
BRANCH  12  18
ATOM     18  O   UNL     1     -11.025   7.629 130.302  0.00  0.00    +0.000 OA
BRANCH  18  20
ATOM     19  C   UNL     1     -10.718   8.504 128.021  0.00  0.00    +0.000 C 
ATOM     20  C   UNL     1     -11.726   8.089 129.086  0.00  0.00    +0.000 C 
ENDBRANCH  18  20
ENDBRANCH  12  18
ENDBRANCH   9  15
ENDBRANCH   1   9
BRANCH   1  21
ATOM     21  C   UNL     1      -6.013   2.838 127.181  0.00  0.00    +0.000 C 
BRANCH  21  22
ATOM     22  C   UNL     1      -5.567   1.607 126.385  0.00  0.00    +0.000 C 
ATOM     23  O   UNL     1      -4.355   1.549 126.133  0.00  0.00    +0.000 OA
ATOM     24  N   UNL     1      -6.424   0.562 125.937  0.00  0.00    +0.000 N 
ATOM     25  C   UNL     1      -5.821  -0.646 125.502  0.00  0.00    +0.000 C 
ATOM     26  C   UNL     1      -6.660  -1.605 124.721  0.00  0.00    +0.000 A 
ATOM     27  C   UNL     1      -6.492  -1.614 123.367  0.00  0.00    +0.000 A 
ATOM     28  C   UNL     1      -7.540  -2.092 122.614  0.00  0.00    +0.000 A 
ATOM     29  C   UNL     1      -8.587  -2.823 123.205  0.00  0.00    +0.000 A 
ATOM     30  C   UNL     1      -8.711  -2.918 124.593  0.00  0.00    +0.000 A 
ATOM     31  C   UNL     1      -7.832  -2.135 125.332  0.00  0.00    +0.000 A 
ATOM     32  C   UNL     1      -8.224  -1.278 126.581  0.00  0.00    +0.000 C 
ATOM     33  C   UNL     1      -7.903   0.357 125.966  0.00  0.00    +0.000 C 
BRANCH  33  34
ATOM     34  C   UNL     1      -8.422   1.793 125.870  0.00  0.00    +0.000 C 
BRANCH  34  35
ATOM     35  C   UNL     1      -8.748   2.643 124.691  0.00  0.00    +0.000 C 
ATOM     36  N   UNL     1      -8.261   3.881 124.627  0.00  0.00    +0.000 N 
ATOM     37  O   UNL     1      -9.564   2.222 123.824  0.00  0.00    +0.000 OA
ATOM     38  H   UNL     1      -7.923   4.357 125.456  0.00  0.00    +0.000 HD
ATOM     39  H   UNL     1      -8.545   4.445 123.836  0.00  0.00    +0.000 HD
ENDBRANCH  34  35
ENDBRANCH  33  34
ENDBRANCH  21  22
ENDBRANCH   1  21
TORSDOF 9
ENDMDL
