MODEL 1
REMARK VINA RESULT:      -9.8      0.000      0.000
REMARK  Name = CHEMBL105673
REMARK  8 active torsions:
REMARK  status: ('A' for Active; 'I' for Inactive)
REMARK    1  A    between atoms: C_1  and  O_2
REMARK    2  A    between atoms: O_2  and  C_3
REMARK    3  A    between atoms: C_5  and  O_6
REMARK    4  A    between atoms: O_6  and  C_7
REMARK    5  A    between atoms: C_7  and  C_8
REMARK    6  A    between atoms: C_7  and  C_9
REMARK    7  A    between atoms: C_17  and  C_18
REMARK    8  A    between atoms: C_23  and  N_24
REMARK                            x       y       z     vdW  Elec       q    Type
REMARK                         _______ _______ _______ _____ _____    ______ ____
ROOT
ATOM      1  C   UNL     1      -5.523   1.915 129.192  0.00  0.00    +0.000 C 
ATOM      2  O   UNL     1      -4.402   2.379 129.440  0.00  0.00    +0.000 OA
ATOM      3  N   UNL     1      -6.726   2.638 129.605  0.00  0.00    +0.000 N 
ATOM      4  C   UNL     1      -6.932   4.029 129.091  0.00  0.00    +0.000 C 
ATOM      5  C   UNL     1      -7.751   4.944 130.005  0.00  0.00    +0.000 C 
ATOM      6  C   UNL     1      -9.417   4.343 130.321  0.00  0.00    +0.000 C 
ATOM      7  C   UNL     1      -8.819   2.882 131.051  0.00  0.00    +0.000 C 
ATOM      8  C   UNL     1      -7.957   1.986 130.110  0.00  0.00    +0.000 C 
ENDROOT
BRANCH   6   9
ATOM      9  N   UNL     1     -11.010   5.165 129.856  0.00  0.00    +0.000 N 
ATOM     10  C   UNL     1     -10.970   5.725 131.144  0.00  0.00    +0.000 C 
ATOM     11  O   UNL     1     -10.955   5.096 132.259  0.00  0.00    +0.000 OA
ATOM     12  O   UNL     1     -10.625   6.997 131.161  0.00  0.00    +0.000 OA
ATOM     13  C   UNL     1     -11.892   7.524 131.183  0.00  0.00    +0.000 C 
ATOM     14  C   UNL     1     -11.981   7.754 129.729  0.00  0.00    +0.000 A 
ATOM     15  C   UNL     1     -12.516   9.136 129.482  0.00  0.00    +0.000 A 
ATOM     16  C   UNL     1     -13.436   9.490 128.540  0.00  0.00    +0.000 A 
ATOM     17  C   UNL     1     -13.878   8.359 127.896  0.00  0.00    +0.000 A 
ATOM     18  C   UNL     1     -13.202   6.880 128.150  0.00  0.00    +0.000 A 
ATOM     19  C   UNL     1     -11.929   6.530 129.011  0.00  0.00    +0.000 A 
ENDBRANCH   6   9
BRANCH   1  25
ATOM     20  C   UNL     1      -5.886  -0.655 128.686  0.00  0.00    +0.000 A 
ATOM     21  C   UNL     1      -5.862  -1.742 127.785  0.00  0.00    +0.000 A 
ATOM     22  C   UNL     1      -5.552  -1.564 126.445  0.00  0.00    +0.000 A 
ATOM     23  C   UNL     1      -5.437  -0.264 125.984  0.00  0.00    +0.000 A 
ATOM     24  C   UNL     1      -5.349   0.815 126.891  0.00  0.00    +0.000 A 
ATOM     25  C   UNL     1      -5.532   0.649 128.293  0.00  0.00    +0.000 A 
BRANCH  20  27
ATOM     26  C   UNL     1      -7.506  -1.803 129.844  0.00  0.00    +0.000 C 
ATOM     27  O   UNL     1      -6.308  -1.055 129.925  0.00  0.00    +0.000 OA
ENDBRANCH  20  27
BRANCH  22  28
ATOM     28  O   UNL     1      -5.336  -2.695 125.710  0.00  0.00    +0.000 OA
BRANCH  28  29
ATOM     29  C   UNL     1      -5.483  -2.642 124.271  0.00  0.00    +0.000 C 
ATOM     30  C   UNL     1      -4.821  -3.835 123.551  0.00  0.00    +0.000 C 
BRANCH  29  31
ATOM     31  C   UNL     1      -6.973  -2.614 123.913  0.00  0.00    +0.000 A 
ATOM     32  C   UNL     1      -7.859  -3.587 124.386  0.00  0.00    +0.000 A 
ATOM     33  C   UNL     1      -9.196  -3.514 124.023  0.00  0.00    +0.000 A 
ATOM     34  N   UNL     1      -9.715  -2.555 123.227  0.00  0.00    +0.000 NA
ATOM     35  C   UNL     1      -8.857  -1.617 122.784  0.00  0.00    +0.000 A 
ATOM     36  C   UNL     1      -7.510  -1.595 123.109  0.00  0.00    +0.000 A 
ENDBRANCH  29  31
ENDBRANCH  28  29
ENDBRANCH  22  28
ENDBRANCH   1  25
TORSDOF 6
ENDMDL
MODEL 2
REMARK VINA RESULT:      -9.7      2.310      9.652
REMARK  Name = CHEMBL105673
REMARK  8 active torsions:
REMARK  status: ('A' for Active; 'I' for Inactive)
REMARK    1  A    between atoms: C_1  and  O_2
REMARK    2  A    between atoms: O_2  and  C_3
REMARK    3  A    between atoms: C_5  and  O_6
REMARK    4  A    between atoms: O_6  and  C_7
REMARK    5  A    between atoms: C_7  and  C_8
REMARK    6  A    between atoms: C_7  and  C_9
REMARK    7  A    between atoms: C_17  and  C_18
REMARK    8  A    between atoms: C_23  and  N_24
REMARK                            x       y       z     vdW  Elec       q    Type
REMARK                         _______ _______ _______ _____ _____    ______ ____
ROOT
ATOM      1  C   UNL     1      -6.226   3.473 131.927  0.00  0.00    +0.000 C 
ATOM      2  O   UNL     1      -5.759   3.374 133.070  0.00  0.00    +0.000 OA
ATOM      3  N   UNL     1      -5.796   2.552 130.874  0.00  0.00    +0.000 N 
ATOM      4  C   UNL     1      -6.003   1.085 131.083  0.00  0.00    +0.000 C 
ATOM      5  C   UNL     1      -5.002   0.179 130.361  0.00  0.00    +0.000 C 
ATOM      6  C   UNL     1      -5.014   0.373 128.573  0.00  0.00    +0.000 C 
ATOM      7  C   UNL     1      -4.571   2.051 128.689  0.00  0.00    +0.000 C 
ATOM      8  C   UNL     1      -5.589   2.944 129.461  0.00  0.00    +0.000 C 
ENDROOT
BRANCH   6   9
ATOM      9  N   UNL     1      -5.455  -0.911 127.312  0.00  0.00    +0.000 N 
ATOM     10  C   UNL     1      -6.685  -0.238 127.219  0.00  0.00    +0.000 C 
ATOM     11  O   UNL     1      -7.533  -0.044 128.158  0.00  0.00    +0.000 OA
ATOM     12  O   UNL     1      -6.810   0.494 126.129  0.00  0.00    +0.000 OA
ATOM     13  C   UNL     1      -7.480  -0.431 125.369  0.00  0.00    +0.000 C 
ATOM     14  C   UNL     1      -6.285  -0.942 124.672  0.00  0.00    +0.000 A 
ATOM     15  C   UNL     1      -6.577  -1.036 123.201  0.00  0.00    +0.000 A 
ATOM     16  C   UNL     1      -6.215  -2.053 122.368  0.00  0.00    +0.000 A 
ATOM     17  C   UNL     1      -5.608  -3.043 123.105  0.00  0.00    +0.000 A 
ATOM     18  C   UNL     1      -5.242  -2.855 124.698  0.00  0.00    +0.000 A 
ATOM     19  C   UNL     1      -5.382  -1.556 125.580  0.00  0.00    +0.000 A 
ENDBRANCH   6   9
BRANCH   1  25
ATOM     20  C   UNL     1      -8.678   4.387 132.309  0.00  0.00    +0.000 A 
ATOM     21  C   UNL     1      -9.660   5.381 132.109  0.00  0.00    +0.000 A 
ATOM     22  C   UNL     1      -9.373   6.554 131.428  0.00  0.00    +0.000 A 
ATOM     23  C   UNL     1      -8.050   6.796 131.102  0.00  0.00    +0.000 A 
ATOM     24  C   UNL     1      -7.088   5.766 131.196  0.00  0.00    +0.000 A 
ATOM     25  C   UNL     1      -7.382   4.497 131.771  0.00  0.00    +0.000 A 
BRANCH  20  27
ATOM     26  C   UNL     1      -9.689   2.322 132.288  0.00  0.00    +0.000 C 
ATOM     27  O   UNL     1      -9.163   3.367 133.084  0.00  0.00    +0.000 OA
ENDBRANCH  20  27
BRANCH  22  28
ATOM     28  O   UNL     1     -10.436   7.345 131.094  0.00  0.00    +0.000 OA
BRANCH  28  29
ATOM     29  C   UNL     1     -11.643   6.730 130.585  0.00  0.00    +0.000 C 
ATOM     30  C   UNL     1     -12.930   7.339 131.181  0.00  0.00    +0.000 C 
BRANCH  29  31
ATOM     31  C   UNL     1     -11.687   6.880 129.060  0.00  0.00    +0.000 A 
ATOM     32  C   UNL     1     -12.893   6.852 128.355  0.00  0.00    +0.000 A 
ATOM     33  C   UNL     1     -12.870   6.987 126.974  0.00  0.00    +0.000 A 
ATOM     34  N   UNL     1     -11.743   7.142 126.246  0.00  0.00    +0.000 NA
ATOM     35  C   UNL     1     -10.587   7.179 126.934  0.00  0.00    +0.000 A 
ATOM     36  C   UNL     1     -10.512   7.073 128.313  0.00  0.00    +0.000 A 
ENDBRANCH  29  31
ENDBRANCH  28  29
ENDBRANCH  22  28
ENDBRANCH   1  25
TORSDOF 6
ENDMDL
MODEL 3
REMARK VINA RESULT:      -9.4      4.769      6.845
REMARK  Name = CHEMBL105673
REMARK  8 active torsions:
REMARK  status: ('A' for Active; 'I' for Inactive)
REMARK    1  A    between atoms: C_1  and  O_2
REMARK    2  A    between atoms: O_2  and  C_3
REMARK    3  A    between atoms: C_5  and  O_6
REMARK    4  A    between atoms: O_6  and  C_7
REMARK    5  A    between atoms: C_7  and  C_8
REMARK    6  A    between atoms: C_7  and  C_9
REMARK    7  A    between atoms: C_17  and  C_18
REMARK    8  A    between atoms: C_23  and  N_24
REMARK                            x       y       z     vdW  Elec       q    Type
REMARK                         _______ _______ _______ _____ _____    ______ ____
ROOT
ATOM      1  C   UNL     1      -6.991   2.471 124.043  0.00  0.00    +0.000 C 
ATOM      2  O   UNL     1      -7.273   2.968 122.944  0.00  0.00    +0.000 OA
ATOM      3  N   UNL     1      -6.096   3.175 124.961  0.00  0.00    +0.000 N 
ATOM      4  C   UNL     1      -6.481   4.547 125.418  0.00  0.00    +0.000 C 
ATOM      5  C   UNL     1      -5.309   5.465 125.777  0.00  0.00    +0.000 C 
ATOM      6  C   UNL     1      -4.279   4.831 127.109  0.00  0.00    +0.000 C 
ATOM      7  C   UNL     1      -3.874   3.404 126.201  0.00  0.00    +0.000 C 
ATOM      8  C   UNL     1      -5.089   2.506 125.817  0.00  0.00    +0.000 C 
ENDROOT
BRANCH   6   9
ATOM      9  N   UNL     1      -3.998   5.603 128.770  0.00  0.00    +0.000 N 
ATOM     10  C   UNL     1      -4.566   4.427 129.289  0.00  0.00    +0.000 C 
ATOM     11  O   UNL     1      -5.740   3.970 129.062  0.00  0.00    +0.000 OA
ATOM     12  O   UNL     1      -3.685   3.601 129.819  0.00  0.00    +0.000 OA
ATOM     13  C   UNL     1      -3.820   4.010 131.122  0.00  0.00    +0.000 C 
ATOM     14  C   UNL     1      -2.672   4.936 131.105  0.00  0.00    +0.000 A 
ATOM     15  C   UNL     1      -1.841   4.710 132.337  0.00  0.00    +0.000 A 
ATOM     16  C   UNL     1      -1.271   5.674 133.115  0.00  0.00    +0.000 A 
ATOM     17  C   UNL     1      -1.651   6.911 132.648  0.00  0.00    +0.000 A 
ATOM     18  C   UNL     1      -2.496   7.103 131.250  0.00  0.00    +0.000 A 
ATOM     19  C   UNL     1      -2.884   6.002 130.190  0.00  0.00    +0.000 A 
ENDBRANCH   6   9
BRANCH   1  25
ATOM     20  C   UNL     1      -8.648   1.014 125.500  0.00  0.00    +0.000 A 
ATOM     21  C   UNL     1      -9.320  -0.203 125.742  0.00  0.00    +0.000 A 
ATOM     22  C   UNL     1      -9.208  -1.277 124.872  0.00  0.00    +0.000 A 
ATOM     23  C   UNL     1      -8.557  -1.058 123.670  0.00  0.00    +0.000 A 
ATOM     24  C   UNL     1      -7.792   0.112 123.470  0.00  0.00    +0.000 A 
ATOM     25  C   UNL     1      -7.778   1.183 124.407  0.00  0.00    +0.000 A 
BRANCH  20  27
ATOM     26  C   UNL     1      -8.312   1.716 127.663  0.00  0.00    +0.000 C 
ATOM     27  O   UNL     1      -8.981   1.954 126.439  0.00  0.00    +0.000 OA
ENDBRANCH  20  27
BRANCH  22  28
ATOM     28  O   UNL     1      -9.708  -2.472 125.304  0.00  0.00    +0.000 OA
BRANCH  28  29
ATOM     29  C   UNL     1      -8.791  -3.526 125.683  0.00  0.00    +0.000 C 
ATOM     30  C   UNL     1      -7.677  -3.762 124.642  0.00  0.00    +0.000 C 
BRANCH  29  31
ATOM     31  C   UNL     1      -8.144  -3.178 127.028  0.00  0.00    +0.000 A 
ATOM     32  C   UNL     1      -8.711  -3.579 128.241  0.00  0.00    +0.000 A 
ATOM     33  C   UNL     1      -8.082  -3.229 129.427  0.00  0.00    +0.000 A 
ATOM     34  N   UNL     1      -6.941  -2.512 129.498  0.00  0.00    +0.000 NA
ATOM     35  C   UNL     1      -6.395  -2.139 128.325  0.00  0.00    +0.000 A 
ATOM     36  C   UNL     1      -6.938  -2.459 127.091  0.00  0.00    +0.000 A 
ENDBRANCH  29  31
ENDBRANCH  28  29
ENDBRANCH  22  28
ENDBRANCH   1  25
TORSDOF 6
ENDMDL
MODEL 4
REMARK VINA RESULT:      -9.2      7.547     11.344
REMARK  Name = CHEMBL105673
REMARK  8 active torsions:
REMARK  status: ('A' for Active; 'I' for Inactive)
REMARK    1  A    between atoms: C_1  and  O_2
REMARK    2  A    between atoms: O_2  and  C_3
REMARK    3  A    between atoms: C_5  and  O_6
REMARK    4  A    between atoms: O_6  and  C_7
REMARK    5  A    between atoms: C_7  and  C_8
REMARK    6  A    between atoms: C_7  and  C_9
REMARK    7  A    between atoms: C_17  and  C_18
REMARK    8  A    between atoms: C_23  and  N_24
REMARK                            x       y       z     vdW  Elec       q    Type
REMARK                         _______ _______ _______ _____ _____    ______ ____
ROOT
ATOM      1  C   UNL     1      -3.939   5.185 132.475  0.00  0.00    +0.000 C 
ATOM      2  O   UNL     1      -3.647   4.048 132.081  0.00  0.00    +0.000 OA
ATOM      3  N   UNL     1      -2.886   6.121 132.870  0.00  0.00    +0.000 N 
ATOM      4  C   UNL     1      -1.844   6.486 131.860  0.00  0.00    +0.000 C 
ATOM      5  C   UNL     1      -0.481   6.870 132.443  0.00  0.00    +0.000 C 
ATOM      6  C   UNL     1      -0.543   8.292 133.544  0.00  0.00    +0.000 C 
ATOM      7  C   UNL     1      -1.632   7.482 134.631  0.00  0.00    +0.000 C 
ATOM      8  C   UNL     1      -2.997   7.069 134.002  0.00  0.00    +0.000 C 
ENDROOT
BRANCH   6   9
ATOM      9  N   UNL     1       0.297   9.926 133.307  0.00  0.00    +0.000 N 
ATOM     10  C   UNL     1      -0.998  10.471 133.341  0.00  0.00    +0.000 C 
ATOM     11  O   UNL     1      -1.969  10.207 132.550  0.00  0.00    +0.000 OA
ATOM     12  O   UNL     1      -1.288  11.083 134.473  0.00  0.00    +0.000 OA
ATOM     13  C   UNL     1      -0.972  12.357 134.071  0.00  0.00    +0.000 C 
ATOM     14  C   UNL     1       0.391  12.355 134.631  0.00  0.00    +0.000 A 
ATOM     15  C   UNL     1       0.616  13.636 135.383  0.00  0.00    +0.000 A 
ATOM     16  C   UNL     1       1.748  14.396 135.366  0.00  0.00    +0.000 A 
ATOM     17  C   UNL     1       2.640  13.853 134.470  0.00  0.00    +0.000 A 
ATOM     18  C   UNL     1       2.377  12.406 133.733  0.00  0.00    +0.000 A 
ATOM     19  C   UNL     1       1.207  11.381 133.995  0.00  0.00    +0.000 A 
ENDBRANCH   6   9
BRANCH   1  25
ATOM     20  C   UNL     1      -6.443   5.351 133.312  0.00  0.00    +0.000 A 
ATOM     21  C   UNL     1      -7.783   5.736 133.097  0.00  0.00    +0.000 A 
ATOM     22  C   UNL     1      -8.166   6.411 131.947  0.00  0.00    +0.000 A 
ATOM     23  C   UNL     1      -7.163   6.846 131.099  0.00  0.00    +0.000 A 
ATOM     24  C   UNL     1      -5.841   6.372 131.246  0.00  0.00    +0.000 A 
ATOM     25  C   UNL     1      -5.440   5.564 132.348  0.00  0.00    +0.000 A 
BRANCH  20  27
ATOM     26  C   UNL     1      -6.240   5.773 135.561  0.00  0.00    +0.000 C 
ATOM     27  O   UNL     1      -6.287   4.786 134.549  0.00  0.00    +0.000 OA
ENDBRANCH  20  27
BRANCH  22  28
ATOM     28  O   UNL     1      -9.509   6.540 131.730  0.00  0.00    +0.000 OA
BRANCH  28  29
ATOM     29  C   UNL     1     -10.087   5.982 130.526  0.00  0.00    +0.000 C 
ATOM     30  C   UNL     1     -10.995   4.764 130.800  0.00  0.00    +0.000 C 
BRANCH  29  31
ATOM     31  C   UNL     1     -10.909   7.059 129.810  0.00  0.00    +0.000 A 
ATOM     32  C   UNL     1     -12.096   7.559 130.354  0.00  0.00    +0.000 A 
ATOM     33  C   UNL     1     -12.801   8.529 129.657  0.00  0.00    +0.000 A 
ATOM     34  N   UNL     1     -12.419   9.034 128.464  0.00  0.00    +0.000 NA
ATOM     35  C   UNL     1     -11.270   8.555 127.953  0.00  0.00    +0.000 A 
ATOM     36  C   UNL     1     -10.488   7.602 128.584  0.00  0.00    +0.000 A 
ENDBRANCH  29  31
ENDBRANCH  28  29
ENDBRANCH  22  28
ENDBRANCH   1  25
TORSDOF 6
ENDMDL
MODEL 5
REMARK VINA RESULT:      -9.1      4.263      9.944
REMARK  Name = CHEMBL105673
REMARK  8 active torsions:
REMARK  status: ('A' for Active; 'I' for Inactive)
REMARK    1  A    between atoms: C_1  and  O_2
REMARK    2  A    between atoms: O_2  and  C_3
REMARK    3  A    between atoms: C_5  and  O_6
REMARK    4  A    between atoms: O_6  and  C_7
REMARK    5  A    between atoms: C_7  and  C_8
REMARK    6  A    between atoms: C_7  and  C_9
REMARK    7  A    between atoms: C_17  and  C_18
REMARK    8  A    between atoms: C_23  and  N_24
REMARK                            x       y       z     vdW  Elec       q    Type
REMARK                         _______ _______ _______ _____ _____    ______ ____
ROOT
ATOM      1  C   UNL     1      -3.434   5.413 129.071  0.00  0.00    +0.000 C 
ATOM      2  O   UNL     1      -2.484   6.136 128.740  0.00  0.00    +0.000 OA
ATOM      3  N   UNL     1      -3.901   4.356 128.174  0.00  0.00    +0.000 N 
ATOM      4  C   UNL     1      -2.932   3.292 127.764  0.00  0.00    +0.000 C 
ATOM      5  C   UNL     1      -3.206   2.656 126.398  0.00  0.00    +0.000 C 
ATOM      6  C   UNL     1      -4.813   1.854 126.286  0.00  0.00    +0.000 C 
ATOM      7  C   UNL     1      -5.650   3.343 126.611  0.00  0.00    +0.000 C 
ATOM      8  C   UNL     1      -5.325   3.988 127.993  0.00  0.00    +0.000 C 
ENDROOT
BRANCH   6   9
ATOM      9  N   UNL     1      -5.146   0.055 125.994  0.00  0.00    +0.000 N 
ATOM     10  C   UNL     1      -5.694   0.060 127.288  0.00  0.00    +0.000 C 
ATOM     11  O   UNL     1      -5.096   0.361 128.379  0.00  0.00    +0.000 OA
ATOM     12  O   UNL     1      -7.012   0.029 127.308  0.00  0.00    +0.000 OA
ATOM     13  C   UNL     1      -7.155  -1.327 127.463  0.00  0.00    +0.000 C 
ATOM     14  C   UNL     1      -7.349  -1.620 126.031  0.00  0.00    +0.000 A 
ATOM     15  C   UNL     1      -8.521  -2.547 125.873  0.00  0.00    +0.000 A 
ATOM     16  C   UNL     1      -8.597  -3.617 125.032  0.00  0.00    +0.000 A 
ATOM     17  C   UNL     1      -7.386  -3.780 124.400  0.00  0.00    +0.000 A 
ATOM     18  C   UNL     1      -6.163  -2.690 124.549  0.00  0.00    +0.000 A 
ATOM     19  C   UNL     1      -6.190  -1.292 125.277  0.00  0.00    +0.000 A 
ENDBRANCH   6   9
BRANCH   1  25
ATOM     20  C   UNL     1      -3.190   5.434 131.704  0.00  0.00    +0.000 A 
ATOM     21  C   UNL     1      -3.746   5.641 132.985  0.00  0.00    +0.000 A 
ATOM     22  C   UNL     1      -5.046   6.098 133.143  0.00  0.00    +0.000 A 
ATOM     23  C   UNL     1      -5.721   6.509 132.007  0.00  0.00    +0.000 A 
ATOM     24  C   UNL     1      -5.219   6.202 130.723  0.00  0.00    +0.000 A 
ATOM     25  C   UNL     1      -3.939   5.610 130.526  0.00  0.00    +0.000 A 
BRANCH  20  27
ATOM     26  C   UNL     1      -1.048   6.199 132.035  0.00  0.00    +0.000 C 
ATOM     27  O   UNL     1      -1.872   5.074 131.794  0.00  0.00    +0.000 OA
ENDBRANCH  20  27
BRANCH  22  28
ATOM     28  O   UNL     1      -5.563   6.052 134.407  0.00  0.00    +0.000 OA
BRANCH  28  29
ATOM     29  C   UNL     1      -5.696   4.773 135.071  0.00  0.00    +0.000 C 
ATOM     30  C   UNL     1      -5.962   4.902 136.585  0.00  0.00    +0.000 C 
BRANCH  29  31
ATOM     31  C   UNL     1      -6.847   3.987 134.433  0.00  0.00    +0.000 A 
ATOM     32  C   UNL     1      -6.631   2.767 133.784  0.00  0.00    +0.000 A 
ATOM     33  C   UNL     1      -7.711   2.104 133.220  0.00  0.00    +0.000 A 
ATOM     34  N   UNL     1      -8.981   2.559 133.251  0.00  0.00    +0.000 NA
ATOM     35  C   UNL     1      -9.182   3.728 133.887  0.00  0.00    +0.000 A 
ATOM     36  C   UNL     1      -8.171   4.452 134.498  0.00  0.00    +0.000 A 
ENDBRANCH  29  31
ENDBRANCH  28  29
ENDBRANCH  22  28
ENDBRANCH   1  25
TORSDOF 6
ENDMDL
MODEL 6
REMARK VINA RESULT:      -9.1      7.974     11.538
REMARK  Name = CHEMBL105673
REMARK  8 active torsions:
REMARK  status: ('A' for Active; 'I' for Inactive)
REMARK    1  A    between atoms: C_1  and  O_2
REMARK    2  A    between atoms: O_2  and  C_3
REMARK    3  A    between atoms: C_5  and  O_6
REMARK    4  A    between atoms: O_6  and  C_7
REMARK    5  A    between atoms: C_7  and  C_8
REMARK    6  A    between atoms: C_7  and  C_9
REMARK    7  A    between atoms: C_17  and  C_18
REMARK    8  A    between atoms: C_23  and  N_24
REMARK                            x       y       z     vdW  Elec       q    Type
REMARK                         _______ _______ _______ _____ _____    ______ ____
ROOT
ATOM      1  C   UNL     1      -3.357   6.034 132.653  0.00  0.00    +0.000 C 
ATOM      2  O   UNL     1      -2.853   4.962 132.292  0.00  0.00    +0.000 OA
ATOM      3  N   UNL     1      -2.518   7.082 133.234  0.00  0.00    +0.000 N 
ATOM      4  C   UNL     1      -1.385   7.621 132.418  0.00  0.00    +0.000 C 
ATOM      5  C   UNL     1      -0.199   8.156 133.226  0.00  0.00    +0.000 C 
ATOM      6  C   UNL     1      -0.630   9.511 134.327  0.00  0.00    +0.000 C 
ATOM      7  C   UNL     1      -1.761   8.523 135.204  0.00  0.00    +0.000 C 
ATOM      8  C   UNL     1      -2.938   7.961 134.350  0.00  0.00    +0.000 C 
ENDROOT
BRANCH   6   9
ATOM      9  N   UNL     1       0.007  11.250 134.263  0.00  0.00    +0.000 N 
ATOM     10  C   UNL     1      -1.266  11.581 133.767  0.00  0.00    +0.000 C 
ATOM     11  O   UNL     1      -1.820  11.135 132.703  0.00  0.00    +0.000 OA
ATOM     12  O   UNL     1      -2.042  12.179 134.650  0.00  0.00    +0.000 OA
ATOM     13  C   UNL     1      -1.773  13.471 134.275  0.00  0.00    +0.000 C 
ATOM     14  C   UNL     1      -0.735  13.708 135.294  0.00  0.00    +0.000 A 
ATOM     15  C   UNL     1      -0.987  15.036 135.952  0.00  0.00    +0.000 A 
ATOM     16  C   UNL     1      -0.046  15.966 136.281  0.00  0.00    +0.000 A 
ATOM     17  C   UNL     1       1.183  15.542 135.832  0.00  0.00    +0.000 A 
ATOM     18  C   UNL     1       1.416  14.045 135.189  0.00  0.00    +0.000 A 
ATOM     19  C   UNL     1       0.385  12.857 135.097  0.00  0.00    +0.000 A 
ENDBRANCH   6   9
BRANCH   1  25
ATOM     20  C   UNL     1      -5.367   6.648 131.048  0.00  0.00    +0.000 A 
ATOM     21  C   UNL     1      -6.753   6.781 130.815  0.00  0.00    +0.000 A 
ATOM     22  C   UNL     1      -7.685   6.428 131.779  0.00  0.00    +0.000 A 
ATOM     23  C   UNL     1      -7.219   5.778 132.909  0.00  0.00    +0.000 A 
ATOM     24  C   UNL     1      -5.838   5.742 133.200  0.00  0.00    +0.000 A 
ATOM     25  C   UNL     1      -4.854   6.219 132.286  0.00  0.00    +0.000 A 
BRANCH  20  27
ATOM     26  C   UNL     1      -4.215   8.314 129.962  0.00  0.00    +0.000 C 
ATOM     27  O   UNL     1      -4.648   6.968 129.927  0.00  0.00    +0.000 OA
ENDBRANCH  20  27
BRANCH  22  28
ATOM     28  O   UNL     1      -8.979   6.801 131.548  0.00  0.00    +0.000 OA
BRANCH  28  29
ATOM     29  C   UNL     1      -9.730   6.138 130.504  0.00  0.00    +0.000 C 
ATOM     30  C   UNL     1     -10.531   4.921 131.014  0.00  0.00    +0.000 C 
BRANCH  29  31
ATOM     31  C   UNL     1     -10.702   7.135 129.865  0.00  0.00    +0.000 A 
ATOM     32  C   UNL     1     -11.876   7.533 130.512  0.00  0.00    +0.000 A 
ATOM     33  C   UNL     1     -12.721   8.434 129.881  0.00  0.00    +0.000 A 
ATOM     34  N   UNL     1     -12.490   8.965 128.661  0.00  0.00    +0.000 NA
ATOM     35  C   UNL     1     -11.353   8.586 128.050  0.00  0.00    +0.000 A 
ATOM     36  C   UNL     1     -10.438   7.707 128.609  0.00  0.00    +0.000 A 
ENDBRANCH  29  31
ENDBRANCH  28  29
ENDBRANCH  22  28
ENDBRANCH   1  25
TORSDOF 6
ENDMDL
MODEL 7
REMARK VINA RESULT:      -9.1      1.828      2.815
REMARK  Name = CHEMBL105673
REMARK  8 active torsions:
REMARK  status: ('A' for Active; 'I' for Inactive)
REMARK    1  A    between atoms: C_1  and  O_2
REMARK    2  A    between atoms: O_2  and  C_3
REMARK    3  A    between atoms: C_5  and  O_6
REMARK    4  A    between atoms: O_6  and  C_7
REMARK    5  A    between atoms: C_7  and  C_8
REMARK    6  A    between atoms: C_7  and  C_9
REMARK    7  A    between atoms: C_17  and  C_18
REMARK    8  A    between atoms: C_23  and  N_24
REMARK                            x       y       z     vdW  Elec       q    Type
REMARK                         _______ _______ _______ _____ _____    ______ ____
ROOT
ATOM      1  C   UNL     1      -6.638  -0.442 131.920  0.00  0.00    +0.000 C 
ATOM      2  O   UNL     1      -6.025  -0.881 132.903  0.00  0.00    +0.000 OA
ATOM      3  N   UNL     1      -7.594   0.654 132.079  0.00  0.00    +0.000 N 
ATOM      4  C   UNL     1      -7.104   1.950 132.644  0.00  0.00    +0.000 C 
ATOM      5  C   UNL     1      -8.157   2.771 133.395  0.00  0.00    +0.000 C 
ATOM      6  C   UNL     1      -9.564   3.240 132.377  0.00  0.00    +0.000 C 
ATOM      7  C   UNL     1      -9.976   1.579 132.069  0.00  0.00    +0.000 C 
ATOM      8  C   UNL     1      -8.873   0.756 131.337  0.00  0.00    +0.000 C 
ENDROOT
BRANCH   6   9
ATOM      9  N   UNL     1     -10.097   4.957 131.929  0.00  0.00    +0.000 N 
ATOM     10  C   UNL     1      -9.299   4.787 130.784  0.00  0.00    +0.000 C 
ATOM     11  O   UNL     1      -8.041   4.550 130.748  0.00  0.00    +0.000 OA
ATOM     12  O   UNL     1      -9.989   4.570 129.682  0.00  0.00    +0.000 OA
ATOM     13  C   UNL     1     -10.017   5.866 129.233  0.00  0.00    +0.000 C 
ATOM     14  C   UNL     1     -11.345   6.186 129.787  0.00  0.00    +0.000 A 
ATOM     15  C   UNL     1     -12.161   6.885 128.736  0.00  0.00    +0.000 A 
ATOM     16  C   UNL     1     -12.975   7.961 128.928  0.00  0.00    +0.000 A 
ATOM     17  C   UNL     1     -12.870   8.378 130.234  0.00  0.00    +0.000 A 
ATOM     18  C   UNL     1     -12.024   7.530 131.362  0.00  0.00    +0.000 A 
ATOM     19  C   UNL     1     -11.341   6.118 131.206  0.00  0.00    +0.000 A 
ENDBRANCH   6   9
BRANCH   1  25
ATOM     20  C   UNL     1      -5.688  -0.281 129.457  0.00  0.00    +0.000 A 
ATOM     21  C   UNL     1      -5.302  -0.902 128.250  0.00  0.00    +0.000 A 
ATOM     22  C   UNL     1      -5.332  -2.280 128.104  0.00  0.00    +0.000 A 
ATOM     23  C   UNL     1      -5.586  -3.037 129.235  0.00  0.00    +0.000 A 
ATOM     24  C   UNL     1      -6.080  -2.428 130.410  0.00  0.00    +0.000 A 
ATOM     25  C   UNL     1      -6.188  -1.015 130.549  0.00  0.00    +0.000 A 
BRANCH  20  27
ATOM     26  C   UNL     1      -4.172   1.413 129.796  0.00  0.00    +0.000 C 
ATOM     27  O   UNL     1      -5.487   1.072 129.399  0.00  0.00    +0.000 OA
ENDBRANCH  20  27
BRANCH  22  28
ATOM     28  O   UNL     1      -5.159  -2.768 126.839  0.00  0.00    +0.000 OA
BRANCH  28  29
ATOM     29  C   UNL     1      -5.639  -1.997 125.713  0.00  0.00    +0.000 C 
ATOM     30  C   UNL     1      -4.828  -2.242 124.422  0.00  0.00    +0.000 C 
BRANCH  29  31
ATOM     31  C   UNL     1      -7.107  -2.347 125.446  0.00  0.00    +0.000 A 
ATOM     32  C   UNL     1      -7.469  -3.382 124.578  0.00  0.00    +0.000 A 
ATOM     33  C   UNL     1      -8.814  -3.649 124.371  0.00  0.00    +0.000 A 
ATOM     34  N   UNL     1      -9.821  -2.966 124.955  0.00  0.00    +0.000 NA
ATOM     35  C   UNL     1      -9.465  -1.979 125.797  0.00  0.00    +0.000 A 
ATOM     36  C   UNL     1      -8.149  -1.653 126.083  0.00  0.00    +0.000 A 
ENDBRANCH  29  31
ENDBRANCH  28  29
ENDBRANCH  22  28
ENDBRANCH   1  25
TORSDOF 6
ENDMDL
MODEL 8
REMARK VINA RESULT:      -9.1      4.707      6.119
REMARK  Name = CHEMBL105673
REMARK  8 active torsions:
REMARK  status: ('A' for Active; 'I' for Inactive)
REMARK    1  A    between atoms: C_1  and  O_2
REMARK    2  A    between atoms: O_2  and  C_3
REMARK    3  A    between atoms: C_5  and  O_6
REMARK    4  A    between atoms: O_6  and  C_7
REMARK    5  A    between atoms: C_7  and  C_8
REMARK    6  A    between atoms: C_7  and  C_9
REMARK    7  A    between atoms: C_17  and  C_18
REMARK    8  A    between atoms: C_23  and  N_24
REMARK                            x       y       z     vdW  Elec       q    Type
REMARK                         _______ _______ _______ _____ _____    ______ ____
ROOT
ATOM      1  C   UNL     1      -6.410  -3.265 130.118  0.00  0.00    +0.000 C 
ATOM      2  O   UNL     1      -5.742  -4.308 130.148  0.00  0.00    +0.000 OA
ATOM      3  N   UNL     1      -6.325  -2.305 131.218  0.00  0.00    +0.000 N 
ATOM      4  C   UNL     1      -4.989  -1.717 131.548  0.00  0.00    +0.000 C 
ATOM      5  C   UNL     1      -4.807  -1.300 133.011  0.00  0.00    +0.000 C 
ATOM      6  C   UNL     1      -5.983  -0.053 133.557  0.00  0.00    +0.000 C 
ATOM      7  C   UNL     1      -7.336  -1.095 133.229  0.00  0.00    +0.000 C 
ATOM      8  C   UNL     1      -7.478  -1.534 131.739  0.00  0.00    +0.000 C 
ENDROOT
BRANCH   6   9
ATOM      9  N   UNL     1      -5.602   1.665 134.137  0.00  0.00    +0.000 N 
ATOM     10  C   UNL     1      -6.252   2.086 132.964  0.00  0.00    +0.000 C 
ATOM     11  O   UNL     1      -5.928   1.805 131.758  0.00  0.00    +0.000 OA
ATOM     12  O   UNL     1      -7.462   2.569 133.170  0.00  0.00    +0.000 OA
ATOM     13  C   UNL     1      -7.115   3.896 133.223  0.00  0.00    +0.000 C 
ATOM     14  C   UNL     1      -7.032   3.968 134.693  0.00  0.00    +0.000 A 
ATOM     15  C   UNL     1      -7.760   5.194 135.167  0.00  0.00    +0.000 A 
ATOM     16  C   UNL     1      -7.348   6.052 136.144  0.00  0.00    +0.000 A 
ATOM     17  C   UNL     1      -6.100   5.671 136.580  0.00  0.00    +0.000 A 
ATOM     18  C   UNL     1      -5.383   4.276 136.084  0.00  0.00    +0.000 A 
ATOM     19  C   UNL     1      -5.998   3.131 135.192  0.00  0.00    +0.000 A 
ENDBRANCH   6   9
BRANCH   1  25
ATOM     20  C   UNL     1      -6.723  -2.210 127.713  0.00  0.00    +0.000 A 
ATOM     21  C   UNL     1      -7.491  -2.038 126.541  0.00  0.00    +0.000 A 
ATOM     22  C   UNL     1      -8.696  -2.700 126.363  0.00  0.00    +0.000 A 
ATOM     23  C   UNL     1      -9.037  -3.667 127.292  0.00  0.00    +0.000 A 
ATOM     24  C   UNL     1      -8.338  -3.766 128.515  0.00  0.00    +0.000 A 
ATOM     25  C   UNL     1      -7.167  -3.003 128.788  0.00  0.00    +0.000 A 
BRANCH  20  27
ATOM     26  C   UNL     1      -5.436  -0.828 126.403  0.00  0.00    +0.000 C 
ATOM     27  O   UNL     1      -5.535  -1.535 127.625  0.00  0.00    +0.000 OA
ENDBRANCH  20  27
BRANCH  22  28
ATOM     28  O   UNL     1      -9.467  -2.299 125.308  0.00  0.00    +0.000 OA
BRANCH  28  29
ATOM     29  C   UNL     1      -8.865  -2.180 123.997  0.00  0.00    +0.000 C 
ATOM     30  C   UNL     1      -9.536  -3.082 122.940  0.00  0.00    +0.000 C 
BRANCH  29  31
ATOM     31  C   UNL     1      -8.950  -0.724 123.528  0.00  0.00    +0.000 A 
ATOM     32  C   UNL     1      -7.939   0.200 123.815  0.00  0.00    +0.000 A 
ATOM     33  C   UNL     1      -8.075   1.506 123.369  0.00  0.00    +0.000 A 
ATOM     34  N   UNL     1      -9.134   1.963 122.667  0.00  0.00    +0.000 NA
ATOM     35  C   UNL     1     -10.097   1.066 122.387  0.00  0.00    +0.000 A 
ATOM     36  C   UNL     1     -10.041  -0.264 122.771  0.00  0.00    +0.000 A 
ENDBRANCH  29  31
ENDBRANCH  28  29
ENDBRANCH  22  28
ENDBRANCH   1  25
TORSDOF 6
ENDMDL
MODEL 9
REMARK VINA RESULT:      -8.9      6.029     10.066
REMARK  Name = CHEMBL105673
REMARK  8 active torsions:
REMARK  status: ('A' for Active; 'I' for Inactive)
REMARK    1  A    between atoms: C_1  and  O_2
REMARK    2  A    between atoms: O_2  and  C_3
REMARK    3  A    between atoms: C_5  and  O_6
REMARK    4  A    between atoms: O_6  and  C_7
REMARK    5  A    between atoms: C_7  and  C_8
REMARK    6  A    between atoms: C_7  and  C_9
REMARK    7  A    between atoms: C_17  and  C_18
REMARK    8  A    between atoms: C_23  and  N_24
REMARK                            x       y       z     vdW  Elec       q    Type
REMARK                         _______ _______ _______ _____ _____    ______ ____
ROOT
ATOM      1  C   UNL     1      -5.443   3.759 131.574  0.00  0.00    +0.000 C 
ATOM      2  O   UNL     1      -4.878   2.726 131.193  0.00  0.00    +0.000 OA
ATOM      3  N   UNL     1      -4.685   4.797 132.273  0.00  0.00    +0.000 N 
ATOM      4  C   UNL     1      -3.515   5.416 131.576  0.00  0.00    +0.000 C 
ATOM      5  C   UNL     1      -2.410   5.938 132.499  0.00  0.00    +0.000 C 
ATOM      6  C   UNL     1      -2.968   7.215 133.638  0.00  0.00    +0.000 C 
ATOM      7  C   UNL     1      -4.125   6.144 134.371  0.00  0.00    +0.000 C 
ATOM      8  C   UNL     1      -5.217   5.597 133.402  0.00  0.00    +0.000 C 
ENDROOT
BRANCH   6   9
ATOM      9  N   UNL     1      -2.387   8.972 133.719  0.00  0.00    +0.000 N 
ATOM     10  C   UNL     1      -1.421   8.496 134.621  0.00  0.00    +0.000 C 
ATOM     11  O   UNL     1      -1.630   7.911 135.740  0.00  0.00    +0.000 OA
ATOM     12  O   UNL     1      -0.212   8.399 134.103  0.00  0.00    +0.000 OA
ATOM     13  C   UNL     1       0.264   9.612 134.535  0.00  0.00    +0.000 C 
ATOM     14  C   UNL     1      -0.020  10.336 133.282  0.00  0.00    +0.000 A 
ATOM     15  C   UNL     1       1.184  11.154 132.905  0.00  0.00    +0.000 A 
ATOM     16  C   UNL     1       1.175  12.428 132.420  0.00  0.00    +0.000 A 
ATOM     17  C   UNL     1      -0.118  12.897 132.412  0.00  0.00    +0.000 A 
ATOM     18  C   UNL     1      -1.406  11.934 132.759  0.00  0.00    +0.000 A 
ATOM     19  C   UNL     1      -1.414  10.379 133.016  0.00  0.00    +0.000 A 
ENDBRANCH   6   9
BRANCH   1  25
ATOM     20  C   UNL     1      -7.351   4.472 129.887  0.00  0.00    +0.000 A 
ATOM     21  C   UNL     1      -8.719   4.570 129.555  0.00  0.00    +0.000 A 
ATOM     22  C   UNL     1      -9.704   4.062 130.389  0.00  0.00    +0.000 A 
ATOM     23  C   UNL     1      -9.294   3.302 131.471  0.00  0.00    +0.000 A 
ATOM     24  C   UNL     1      -7.939   3.294 131.871  0.00  0.00    +0.000 A 
ATOM     25  C   UNL     1      -6.915   3.920 131.106  0.00  0.00    +0.000 A 
BRANCH  20  27
ATOM     26  C   UNL     1      -6.293   3.955 127.913  0.00  0.00    +0.000 C 
ATOM     27  O   UNL     1      -6.565   4.956 128.876  0.00  0.00    +0.000 OA
ENDBRANCH  20  27
BRANCH  22  28
ATOM     28  O   UNL     1     -10.994   4.402 130.094  0.00  0.00    +0.000 OA
BRANCH  28  29
ATOM     29  C   UNL     1     -11.574   5.576 130.710  0.00  0.00    +0.000 C 
ATOM     30  C   UNL     1     -10.668   6.201 131.793  0.00  0.00    +0.000 C 
BRANCH  29  31
ATOM     31  C   UNL     1     -11.853   6.630 129.633  0.00  0.00    +0.000 A 
ATOM     32  C   UNL     1     -13.086   6.700 128.977  0.00  0.00    +0.000 A 
ATOM     33  C   UNL     1     -13.279   7.672 128.006  0.00  0.00    +0.000 A 
ATOM     34  N   UNL     1     -12.343   8.572 127.638  0.00  0.00    +0.000 NA
ATOM     35  C   UNL     1     -11.163   8.505 128.282  0.00  0.00    +0.000 A 
ATOM     36  C   UNL     1     -10.884   7.584 129.278  0.00  0.00    +0.000 A 
ENDBRANCH  29  31
ENDBRANCH  28  29
ENDBRANCH  22  28
ENDBRANCH   1  25
TORSDOF 6
ENDMDL
