MODEL 1
REMARK VINA RESULT:      -9.3      0.000      0.000
REMARK  Name = CHEMBL196780
REMARK  14 active torsions:
REMARK  status: ('A' for Active; 'I' for Inactive)
REMARK    1  A    between atoms: CD1_1  and  CG_2
REMARK    2  A    between atoms: CG_2  and  CD2_3
REMARK    3  A    between atoms: CG_2  and  CB_4
REMARK    4  A    between atoms: CB_4  and  CA_5
REMARK    5  A    between atoms: C_9  and  C_10
REMARK    6  A    between atoms: N_21  and  C_22
REMARK    7  A    between atoms: C_22  and  C_23
REMARK    8  A    between atoms: C_22  and  C_30
REMARK    9  A    between atoms: N_25  and  C_26
REMARK   10  A    between atoms: C_26  and  C_27
REMARK   11  A    between atoms: C_26  and  C_28
REMARK   12  A    between atoms: C_26  and  C_29
REMARK   13  A    between atoms: C_33  and  O_34
REMARK   14  A    between atoms: O_34  and  C_35
REMARK                            x       y       z     vdW  Elec       q    Type
REMARK                         _______ _______ _______ _____ _____    ______ ____
ROOT
ATOM      1  CA  LEU A   2      -7.466   1.830 131.610  0.00  0.00    +0.000 C 
ATOM      2  C   LEU A   2      -6.611   0.549 131.789  0.00  0.00    +0.000 C 
ATOM      3  O   LEU A   2      -6.117   0.134 132.804  0.00  0.00    +0.000 OA
ATOM      4  N   UNK A   1      -6.464  -0.111 130.611  0.00  0.00    +0.000 N 
ATOM      5  C   UNK A   1      -7.639  -0.143 129.795  0.00  0.00    +0.000 C 
ATOM      6  C   UNK A   1      -7.951   1.270 129.298  0.00  0.00    +0.000 C 
ATOM      7  O   UNK A   1      -8.509   1.369 128.212  0.00  0.00    +0.000 OA
ATOM      8  N   LEU A   2      -7.625   2.309 130.179  0.00  0.00    +0.000 N 
ATOM      9  H   UNK A   1      -5.837  -0.902 130.686  0.00  0.00    +0.000 HD
ENDROOT
BRANCH   5  10
ATOM     10  C   UNK A   1      -7.486  -1.031 128.560  0.00  0.00    +0.000 C 
ATOM     11  C   UNK A   1      -7.920  -2.469 128.859  0.00  0.00    +0.000 C 
ATOM     12  C   UNK A   1      -6.622  -3.074 129.298  0.00  0.00    +0.000 A 
ATOM     13  C   UNK A   1      -6.440  -4.180 130.105  0.00  0.00    +0.000 A 
ATOM     14  C   UNK A   1      -5.140  -4.499 130.499  0.00  0.00    +0.000 A 
ATOM     15  C   UNK A   1      -4.049  -3.709 130.100  0.00  0.00    +0.000 A 
ATOM     16  C   UNK A   1      -4.241  -2.584 129.296  0.00  0.00    +0.000 A 
ATOM     17  C   UNK A   1      -5.532  -2.287 128.895  0.00  0.00    +0.000 A 
ATOM     18  C   UNK A   1      -5.998  -1.094 128.121  0.00  0.00    +0.000 C 
ENDBRANCH   5  10
BRANCH   1  19
ATOM     19  CB  LEU A   2      -6.768   2.798 132.475  0.00  0.00    +0.000 C 
BRANCH  19  21
ATOM     20  CD1 LEU A   2      -7.078   4.467 133.974  0.00  0.00    +0.000 C 
ATOM     21  CG  LEU A   2      -7.655   3.147 133.656  0.00  0.00    +0.000 C 
ATOM     22  CD2 LEU A   2      -9.162   3.448 133.749  0.00  0.00    +0.000 C 
ENDBRANCH  19  21
ENDBRANCH   1  19
BRANCH   8  23
ATOM     23  C   UNK A   0      -7.691   3.814 129.742  0.00  0.00    +0.000 C 
BRANCH  23  24
ATOM     24  C   UNK A   0      -8.927   4.568 130.341  0.00  0.00    +0.000 A 
ATOM     25  C   UNK A   0      -8.825   5.842 130.926  0.00  0.00    +0.000 A 
ATOM     26  C   UNK A   0      -9.892   6.542 131.446  0.00  0.00    +0.000 A 
ATOM     27  C   UNK A   0     -11.163   6.097 131.186  0.00  0.00    +0.000 A 
ATOM     28  C   UNK A   0     -11.335   4.862 130.555  0.00  0.00    +0.000 A 
ATOM     29  C   UNK A   0     -10.229   4.063 130.215  0.00  0.00    +0.000 A 
BRANCH  27  30
ATOM     30  O   UNK A   0     -12.117   6.993 131.548  0.00  0.00    +0.000 OA
BRANCH  30  31
ATOM     31  C   UNK A   0     -12.618   7.795 130.509  0.00  0.00    +0.000 C 
ATOM     32  F   UNK A   0     -11.643   8.145 129.644  0.00  0.00    +0.000 F 
ATOM     33  F   UNK A   0     -13.606   7.152 129.850  0.00  0.00    +0.000 F 
ATOM     34  F   UNK A   0     -13.132   8.920 131.048  0.00  0.00    +0.000 F 
ENDBRANCH  30  31
ENDBRANCH  27  30
ENDBRANCH  23  24
BRANCH  23  35
ATOM     35  C   UNK A   0      -7.603   4.169 128.108  0.00  0.00    +0.000 C 
ATOM     36  O   UNK A   0      -8.422   4.889 127.526  0.00  0.00    +0.000 OA
ATOM     37  N   UNK A   0      -6.656   3.581 127.280  0.00  0.00    +0.000 N 
ATOM     38  H   UNK A   0      -5.839   3.254 127.773  0.00  0.00    +0.000 HD
BRANCH  37  39
ATOM     39  C   UNK A   0      -6.762   3.536 125.682  0.00  0.00    +0.000 C 
ATOM     40  C   UNK A   0      -6.130   4.837 125.072  0.00  0.00    +0.000 C 
ATOM     41  C   UNK A   0      -6.006   2.264 125.416  0.00  0.00    +0.000 C 
ATOM     42  C   UNK A   0      -8.206   3.198 124.798  0.00  0.00    +0.000 C 
ENDBRANCH  37  39
ENDBRANCH  23  35
ENDBRANCH   8  23
TORSDOF 9
ENDMDL
MODEL 2
REMARK VINA RESULT:      -9.2      4.267      7.860
REMARK  Name = CHEMBL196780
REMARK  14 active torsions:
REMARK  status: ('A' for Active; 'I' for Inactive)
REMARK    1  A    between atoms: CD1_1  and  CG_2
REMARK    2  A    between atoms: CG_2  and  CD2_3
REMARK    3  A    between atoms: CG_2  and  CB_4
REMARK    4  A    between atoms: CB_4  and  CA_5
REMARK    5  A    between atoms: C_9  and  C_10
REMARK    6  A    between atoms: N_21  and  C_22
REMARK    7  A    between atoms: C_22  and  C_23
REMARK    8  A    between atoms: C_22  and  C_30
REMARK    9  A    between atoms: N_25  and  C_26
REMARK   10  A    between atoms: C_26  and  C_27
REMARK   11  A    between atoms: C_26  and  C_28
REMARK   12  A    between atoms: C_26  and  C_29
REMARK   13  A    between atoms: C_33  and  O_34
REMARK   14  A    between atoms: O_34  and  C_35
REMARK                            x       y       z     vdW  Elec       q    Type
REMARK                         _______ _______ _______ _____ _____    ______ ____
ROOT
ATOM      1  CA  LEU A   2      -4.961   3.186 128.551  0.00  0.00    +0.000 C 
ATOM      2  C   LEU A   2      -5.199   3.236 130.083  0.00  0.00    +0.000 C 
ATOM      3  O   LEU A   2      -4.423   3.583 130.934  0.00  0.00    +0.000 OA
ATOM      4  N   UNK A   1      -6.455   2.827 130.397  0.00  0.00    +0.000 N 
ATOM      5  C   UNK A   1      -7.472   3.282 129.499  0.00  0.00    +0.000 C 
ATOM      6  C   UNK A   1      -7.283   2.614 128.136  0.00  0.00    +0.000 C 
ATOM      7  O   UNK A   1      -8.290   2.421 127.465  0.00  0.00    +0.000 OA
ATOM      8  N   LEU A   2      -5.958   2.353 127.767  0.00  0.00    +0.000 N 
ATOM      9  H   UNK A   1      -6.605   2.768 131.396  0.00  0.00    +0.000 HD
ENDROOT
BRANCH   5  10
ATOM     10  C   UNK A   1      -8.886   2.943 129.975  0.00  0.00    +0.000 C 
ATOM     11  C   UNK A   1      -9.681   4.215 130.285  0.00  0.00    +0.000 C 
ATOM     12  C   UNK A   1      -9.373   4.398 131.740  0.00  0.00    +0.000 A 
ATOM     13  C   UNK A   1      -9.418   5.570 132.468  0.00  0.00    +0.000 A 
ATOM     14  C   UNK A   1      -8.965   5.542 133.788  0.00  0.00    +0.000 A 
ATOM     15  C   UNK A   1      -8.461   4.358 134.353  0.00  0.00    +0.000 A 
ATOM     16  C   UNK A   1      -8.404   3.180 133.607  0.00  0.00    +0.000 A 
ATOM     17  C   UNK A   1      -8.874   3.214 132.306  0.00  0.00    +0.000 A 
ATOM     18  C   UNK A   1      -8.829   2.118 131.289  0.00  0.00    +0.000 C 
ENDBRANCH   5  10
BRANCH   1  19
ATOM     19  CB  LEU A   2      -3.580   2.678 128.463  0.00  0.00    +0.000 C 
BRANCH  19  21
ATOM     20  CD1 LEU A   2      -2.561   4.624 127.912  0.00  0.00    +0.000 C 
ATOM     21  CG  LEU A   2      -2.880   3.328 127.284  0.00  0.00    +0.000 C 
ATOM     22  CD2 LEU A   2      -1.553   3.002 126.576  0.00  0.00    +0.000 C 
ENDBRANCH  19  21
ENDBRANCH   1  19
BRANCH   8  23
ATOM     23  C   UNK A   0      -5.606   1.493 126.503  0.00  0.00    +0.000 C 
BRANCH  23  24
ATOM     24  C   UNK A   0      -6.047   2.174 125.163  0.00  0.00    +0.000 A 
ATOM     25  C   UNK A   0      -5.646   3.474 124.807  0.00  0.00    +0.000 A 
ATOM     26  C   UNK A   0      -5.999   4.097 123.630  0.00  0.00    +0.000 A 
ATOM     27  C   UNK A   0      -6.578   3.351 122.635  0.00  0.00    +0.000 A 
ATOM     28  C   UNK A   0      -6.949   2.031 122.904  0.00  0.00    +0.000 A 
ATOM     29  C   UNK A   0      -6.768   1.475 124.183  0.00  0.00    +0.000 A 
BRANCH  27  30
ATOM     30  O   UNK A   0      -6.659   4.020 121.456  0.00  0.00    +0.000 OA
BRANCH  30  31
ATOM     31  C   UNK A   0      -5.443   4.185 120.771  0.00  0.00    +0.000 C 
ATOM     32  F   UNK A   0      -5.646   4.581 119.496  0.00  0.00    +0.000 F 
ATOM     33  F   UNK A   0      -4.658   5.078 121.409  0.00  0.00    +0.000 F 
ATOM     34  F   UNK A   0      -4.802   2.998 120.748  0.00  0.00    +0.000 F 
ENDBRANCH  30  31
ENDBRANCH  27  30
ENDBRANCH  23  24
BRANCH  23  35
ATOM     35  C   UNK A   0      -6.106  -0.104 126.467  0.00  0.00    +0.000 C 
ATOM     36  O   UNK A   0      -5.341  -1.049 126.249  0.00  0.00    +0.000 OA
ATOM     37  N   UNK A   0      -7.445  -0.455 126.577  0.00  0.00    +0.000 N 
ATOM     38  H   UNK A   0      -8.007   0.243 127.042  0.00  0.00    +0.000 HD
BRANCH  37  39
ATOM     39  C   UNK A   0      -8.041  -1.878 126.143  0.00  0.00    +0.000 C 
ATOM     40  C   UNK A   0      -8.076  -2.839 127.384  0.00  0.00    +0.000 C 
ATOM     41  C   UNK A   0      -9.383  -1.441 125.627  0.00  0.00    +0.000 C 
ATOM     42  C   UNK A   0      -7.501  -2.802 124.789  0.00  0.00    +0.000 C 
ENDBRANCH  37  39
ENDBRANCH  23  35
ENDBRANCH   8  23
TORSDOF 9
ENDMDL
MODEL 3
REMARK VINA RESULT:      -9.0      2.552      4.514
REMARK  Name = CHEMBL196780
REMARK  14 active torsions:
REMARK  status: ('A' for Active; 'I' for Inactive)
REMARK    1  A    between atoms: CD1_1  and  CG_2
REMARK    2  A    between atoms: CG_2  and  CD2_3
REMARK    3  A    between atoms: CG_2  and  CB_4
REMARK    4  A    between atoms: CB_4  and  CA_5
REMARK    5  A    between atoms: C_9  and  C_10
REMARK    6  A    between atoms: N_21  and  C_22
REMARK    7  A    between atoms: C_22  and  C_23
REMARK    8  A    between atoms: C_22  and  C_30
REMARK    9  A    between atoms: N_25  and  C_26
REMARK   10  A    between atoms: C_26  and  C_27
REMARK   11  A    between atoms: C_26  and  C_28
REMARK   12  A    between atoms: C_26  and  C_29
REMARK   13  A    between atoms: C_33  and  O_34
REMARK   14  A    between atoms: O_34  and  C_35
REMARK                            x       y       z     vdW  Elec       q    Type
REMARK                         _______ _______ _______ _____ _____    ______ ____
ROOT
ATOM      1  CA  LEU A   2      -7.866   1.100 129.218  0.00  0.00    +0.000 C 
ATOM      2  C   LEU A   2      -7.310   0.113 128.159  0.00  0.00    +0.000 C 
ATOM      3  O   LEU A   2      -7.118  -1.067 128.287  0.00  0.00    +0.000 OA
ATOM      4  N   UNK A   1      -7.046   0.749 126.988  0.00  0.00    +0.000 N 
ATOM      5  C   UNK A   1      -8.015   1.733 126.612  0.00  0.00    +0.000 C 
ATOM      6  C   UNK A   1      -7.959   2.903 127.595  0.00  0.00    +0.000 C 
ATOM      7  O   UNK A   1      -8.255   4.010 127.161  0.00  0.00    +0.000 OA
ATOM      8  N   LEU A   2      -7.639   2.571 128.917  0.00  0.00    +0.000 N 
ATOM      9  H   UNK A   1      -6.600   0.143 126.311  0.00  0.00    +0.000 HD
ENDROOT
BRANCH   5  10
ATOM     10  C   UNK A   1      -7.774   2.306 125.215  0.00  0.00    +0.000 C 
ATOM     11  C   UNK A   1      -8.999   2.104 124.318  0.00  0.00    +0.000 C 
ATOM     12  C   UNK A   1      -8.680   0.782 123.691  0.00  0.00    +0.000 A 
ATOM     13  C   UNK A   1      -9.566  -0.131 123.154  0.00  0.00    +0.000 A 
ATOM     14  C   UNK A   1      -9.067  -1.365 122.736  0.00  0.00    +0.000 A 
ATOM     15  C   UNK A   1      -7.704  -1.677 122.873  0.00  0.00    +0.000 A 
ATOM     16  C   UNK A   1      -6.815  -0.757 123.431  0.00  0.00    +0.000 A 
ATOM     17  C   UNK A   1      -7.316   0.472 123.824  0.00  0.00    +0.000 A 
ATOM     18  C   UNK A   1      -6.589   1.574 124.528  0.00  0.00    +0.000 C 
ENDBRANCH   5  10
BRANCH   1  19
ATOM     19  CB  LEU A   2      -7.198   0.648 130.452  0.00  0.00    +0.000 C 
BRANCH  19  21
ATOM     20  CD1 LEU A   2      -7.464   0.624 132.700  0.00  0.00    +0.000 C 
ATOM     21  CG  LEU A   2      -8.246   0.300 131.492  0.00  0.00    +0.000 C 
ATOM     22  CD2 LEU A   2      -9.603   0.943 131.831  0.00  0.00    +0.000 C 
ENDBRANCH  19  21
ENDBRANCH   1  19
BRANCH   8  23
ATOM     23  C   UNK A   0      -7.342   3.669 129.997  0.00  0.00    +0.000 C 
BRANCH  23  24
ATOM     24  C   UNK A   0      -8.605   4.522 130.360  0.00  0.00    +0.000 A 
ATOM     25  C   UNK A   0      -9.915   4.033 130.213  0.00  0.00    +0.000 A 
ATOM     26  C   UNK A   0     -11.047   4.747 130.539  0.00  0.00    +0.000 A 
ATOM     27  C   UNK A   0     -10.913   5.906 131.261  0.00  0.00    +0.000 A 
ATOM     28  C   UNK A   0      -9.633   6.417 131.493  0.00  0.00    +0.000 A 
ATOM     29  C   UNK A   0      -8.493   5.779 130.972  0.00  0.00    +0.000 A 
BRANCH  27  30
ATOM     30  O   UNK A   0     -12.100   6.383 131.715  0.00  0.00    +0.000 OA
BRANCH  30  31
ATOM     31  C   UNK A   0     -12.659   7.430 130.964  0.00  0.00    +0.000 C 
ATOM     32  F   UNK A   0     -11.713   8.089 130.260  0.00  0.00    +0.000 F 
ATOM     33  F   UNK A   0     -13.607   6.959 130.127  0.00  0.00    +0.000 F 
ATOM     34  F   UNK A   0     -13.239   8.302 131.813  0.00  0.00    +0.000 F 
ENDBRANCH  30  31
ENDBRANCH  27  30
ENDBRANCH  23  24
BRANCH  23  35
ATOM     35  C   UNK A   0      -6.063   4.715 129.731  0.00  0.00    +0.000 C 
ATOM     36  O   UNK A   0      -5.892   5.321 128.667  0.00  0.00    +0.000 OA
ATOM     37  N   UNK A   0      -5.048   4.884 130.663  0.00  0.00    +0.000 N 
ATOM     38  H   UNK A   0      -5.323   4.648 131.605  0.00  0.00    +0.000 HD
BRANCH  37  39
ATOM     39  C   UNK A   0      -3.615   5.518 130.328  0.00  0.00    +0.000 C 
ATOM     40  C   UNK A   0      -3.648   7.067 130.582  0.00  0.00    +0.000 C 
ATOM     41  C   UNK A   0      -2.761   4.726 131.279  0.00  0.00    +0.000 C 
ATOM     42  C   UNK A   0      -2.734   5.252 128.867  0.00  0.00    +0.000 C 
ENDBRANCH  37  39
ENDBRANCH  23  35
ENDBRANCH   8  23
TORSDOF 9
ENDMDL
MODEL 4
REMARK VINA RESULT:      -8.8      4.534      8.497
REMARK  Name = CHEMBL196780
REMARK  14 active torsions:
REMARK  status: ('A' for Active; 'I' for Inactive)
REMARK    1  A    between atoms: CD1_1  and  CG_2
REMARK    2  A    between atoms: CG_2  and  CD2_3
REMARK    3  A    between atoms: CG_2  and  CB_4
REMARK    4  A    between atoms: CB_4  and  CA_5
REMARK    5  A    between atoms: C_9  and  C_10
REMARK    6  A    between atoms: N_21  and  C_22
REMARK    7  A    between atoms: C_22  and  C_23
REMARK    8  A    between atoms: C_22  and  C_30
REMARK    9  A    between atoms: N_25  and  C_26
REMARK   10  A    between atoms: C_26  and  C_27
REMARK   11  A    between atoms: C_26  and  C_28
REMARK   12  A    between atoms: C_26  and  C_29
REMARK   13  A    between atoms: C_33  and  O_34
REMARK   14  A    between atoms: O_34  and  C_35
REMARK                            x       y       z     vdW  Elec       q    Type
REMARK                         _______ _______ _______ _____ _____    ______ ____
ROOT
ATOM      1  CA  LEU A   2      -5.679   2.029 129.091  0.00  0.00    +0.000 C 
ATOM      2  C   LEU A   2      -5.354   2.947 130.298  0.00  0.00    +0.000 C 
ATOM      3  O   LEU A   2      -4.719   3.969 130.291  0.00  0.00    +0.000 OA
ATOM      4  N   UNK A   1      -5.893   2.459 131.445  0.00  0.00    +0.000 N 
ATOM      5  C   UNK A   1      -7.205   1.907 131.299  0.00  0.00    +0.000 C 
ATOM      6  C   UNK A   1      -7.131   0.636 130.451  0.00  0.00    +0.000 C 
ATOM      7  O   UNK A   1      -7.962  -0.235 130.678  0.00  0.00    +0.000 OA
ATOM      8  N   LEU A   2      -6.153   0.632 129.449  0.00  0.00    +0.000 N 
ATOM      9  H   UNK A   1      -5.620   2.994 132.260  0.00  0.00    +0.000 HD
ENDROOT
BRANCH   5  10
ATOM     10  C   UNK A   1      -7.844   1.521 132.634  0.00  0.00    +0.000 C 
ATOM     11  C   UNK A   1      -9.052   2.409 132.943  0.00  0.00    +0.000 C 
ATOM     12  C   UNK A   1      -8.404   3.515 133.719  0.00  0.00    +0.000 A 
ATOM     13  C   UNK A   1      -8.861   4.808 133.884  0.00  0.00    +0.000 A 
ATOM     14  C   UNK A   1      -8.033   5.719 134.541  0.00  0.00    +0.000 A 
ATOM     15  C   UNK A   1      -6.763   5.336 135.006  0.00  0.00    +0.000 A 
ATOM     16  C   UNK A   1      -6.301   4.033 134.823  0.00  0.00    +0.000 A 
ATOM     17  C   UNK A   1      -7.137   3.131 134.188  0.00  0.00    +0.000 A 
ATOM     18  C   UNK A   1      -6.831   1.720 133.794  0.00  0.00    +0.000 C 
ENDBRANCH   5  10
BRANCH   1  19
ATOM     19  CB  LEU A   2      -4.414   2.041 128.336  0.00  0.00    +0.000 C 
BRANCH  19  21
ATOM     20  CD1 LEU A   2      -3.201   2.885 126.619  0.00  0.00    +0.000 C 
ATOM     21  CG  LEU A   2      -4.614   2.797 127.035  0.00  0.00    +0.000 C 
ATOM     22  CD2 LEU A   2      -5.291   2.396 125.713  0.00  0.00    +0.000 C 
ENDBRANCH  19  21
ENDBRANCH   1  19
BRANCH   8  23
ATOM     23  C   UNK A   0      -5.811  -0.664 128.633  0.00  0.00    +0.000 C 
BRANCH  23  24
ATOM     24  C   UNK A   0      -7.014  -1.172 127.767  0.00  0.00    +0.000 A 
ATOM     25  C   UNK A   0      -7.488  -0.470 126.645  0.00  0.00    +0.000 A 
ATOM     26  C   UNK A   0      -8.530  -0.895 125.851  0.00  0.00    +0.000 A 
ATOM     27  C   UNK A   0      -8.996  -2.177 126.003  0.00  0.00    +0.000 A 
ATOM     28  C   UNK A   0      -8.523  -2.950 127.065  0.00  0.00    +0.000 A 
ATOM     29  C   UNK A   0      -7.607  -2.423 127.993  0.00  0.00    +0.000 A 
BRANCH  27  30
ATOM     30  O   UNK A   0      -9.851  -2.545 125.014  0.00  0.00    +0.000 OA
BRANCH  30  31
ATOM     31  C   UNK A   0      -9.261  -3.189 123.913  0.00  0.00    +0.000 C 
ATOM     32  F   UNK A   0     -10.163  -3.927 123.233  0.00  0.00    +0.000 F 
ATOM     33  F   UNK A   0      -8.690  -2.287 123.087  0.00  0.00    +0.000 F 
ATOM     34  F   UNK A   0      -8.296  -4.014 124.370  0.00  0.00    +0.000 F 
ENDBRANCH  30  31
ENDBRANCH  27  30
ENDBRANCH  23  24
BRANCH  23  35
ATOM     35  C   UNK A   0      -5.169  -1.972 129.456  0.00  0.00    +0.000 C 
ATOM     36  O   UNK A   0      -4.435  -2.813 128.927  0.00  0.00    +0.000 OA
ATOM     37  N   UNK A   0      -5.515  -2.251 130.772  0.00  0.00    +0.000 N 
ATOM     38  H   UNK A   0      -5.848  -1.445 131.280  0.00  0.00    +0.000 HD
BRANCH  37  39
ATOM     39  C   UNK A   0      -5.290  -3.670 131.480  0.00  0.00    +0.000 C 
ATOM     40  C   UNK A   0      -3.836  -3.744 132.069  0.00  0.00    +0.000 C 
ATOM     41  C   UNK A   0      -6.396  -3.623 132.497  0.00  0.00    +0.000 C 
ATOM     42  C   UNK A   0      -5.633  -5.200 130.757  0.00  0.00    +0.000 C 
ENDBRANCH  37  39
ENDBRANCH  23  35
ENDBRANCH   8  23
TORSDOF 9
ENDMDL
MODEL 5
REMARK VINA RESULT:      -8.8      4.135      9.045
REMARK  Name = CHEMBL196780
REMARK  14 active torsions:
REMARK  status: ('A' for Active; 'I' for Inactive)
REMARK    1  A    between atoms: CD1_1  and  CG_2
REMARK    2  A    between atoms: CG_2  and  CD2_3
REMARK    3  A    between atoms: CG_2  and  CB_4
REMARK    4  A    between atoms: CB_4  and  CA_5
REMARK    5  A    between atoms: C_9  and  C_10
REMARK    6  A    between atoms: N_21  and  C_22
REMARK    7  A    between atoms: C_22  and  C_23
REMARK    8  A    between atoms: C_22  and  C_30
REMARK    9  A    between atoms: N_25  and  C_26
REMARK   10  A    between atoms: C_26  and  C_27
REMARK   11  A    between atoms: C_26  and  C_28
REMARK   12  A    between atoms: C_26  and  C_29
REMARK   13  A    between atoms: C_33  and  O_34
REMARK   14  A    between atoms: O_34  and  C_35
REMARK                            x       y       z     vdW  Elec       q    Type
REMARK                         _______ _______ _______ _____ _____    ______ ____
ROOT
ATOM      1  CA  LEU A   2      -7.379   2.386 126.718  0.00  0.00    +0.000 C 
ATOM      2  C   LEU A   2      -7.557   3.897 127.018  0.00  0.00    +0.000 C 
ATOM      3  O   LEU A   2      -7.607   4.800 126.226  0.00  0.00    +0.000 OA
ATOM      4  N   UNK A   1      -7.663   4.123 128.353  0.00  0.00    +0.000 N 
ATOM      5  C   UNK A   1      -8.445   3.155 129.061  0.00  0.00    +0.000 C 
ATOM      6  C   UNK A   1      -7.719   1.809 129.052  0.00  0.00    +0.000 C 
ATOM      7  O   UNK A   1      -7.903   1.070 130.011  0.00  0.00    +0.000 OA
ATOM      8  N   LEU A   2      -6.966   1.534 127.904  0.00  0.00    +0.000 N 
ATOM      9  H   UNK A   1      -7.691   5.109 128.578  0.00  0.00    +0.000 HD
ENDROOT
BRANCH   5  10
ATOM     10  C   UNK A   1      -8.680   3.531 130.525  0.00  0.00    +0.000 C 
ATOM     11  C   UNK A   1     -10.173   3.515 130.864  0.00  0.00    +0.000 C 
ATOM     12  C   UNK A   1     -10.548   4.936 130.573  0.00  0.00    +0.000 A 
ATOM     13  C   UNK A   1     -11.799   5.428 130.255  0.00  0.00    +0.000 A 
ATOM     14  C   UNK A   1     -11.904   6.771 129.891  0.00  0.00    +0.000 A 
ATOM     15  C   UNK A   1     -10.767   7.595 129.833  0.00  0.00    +0.000 A 
ATOM     16  C   UNK A   1      -9.504   7.088 130.140  0.00  0.00    +0.000 A 
ATOM     17  C   UNK A   1      -9.413   5.761 130.519  0.00  0.00    +0.000 A 
ATOM     18  C   UNK A   1      -8.172   4.973 130.800  0.00  0.00    +0.000 C 
ENDBRANCH   5  10
BRANCH   1  19
ATOM     19  CB  LEU A   2      -6.385   2.395 125.631  0.00  0.00    +0.000 C 
BRANCH  19  21
ATOM     20  CD1 LEU A   2      -6.350   2.988 123.446  0.00  0.00    +0.000 C 
ATOM     21  CG  LEU A   2      -7.068   2.043 124.323  0.00  0.00    +0.000 C 
ATOM     22  CD2 LEU A   2      -7.044   0.763 123.469  0.00  0.00    +0.000 C 
ENDBRANCH  19  21
ENDBRANCH   1  19
BRANCH   8  23
ATOM     23  C   UNK A   0      -6.003   0.298 127.824  0.00  0.00    +0.000 C 
BRANCH  23  24
ATOM     24  C   UNK A   0      -6.602  -0.886 126.991  0.00  0.00    +0.000 A 
ATOM     25  C   UNK A   0      -7.957  -1.254 127.067  0.00  0.00    +0.000 A 
ATOM     26  C   UNK A   0      -8.522  -2.277 126.336  0.00  0.00    +0.000 A 
ATOM     27  C   UNK A   0      -7.803  -2.829 125.306  0.00  0.00    +0.000 A 
ATOM     28  C   UNK A   0      -6.465  -2.463 125.139  0.00  0.00    +0.000 A 
ATOM     29  C   UNK A   0      -5.843  -1.567 126.027  0.00  0.00    +0.000 A 
BRANCH  27  30
ATOM     30  O   UNK A   0      -8.551  -3.650 124.525  0.00  0.00    +0.000 OA
BRANCH  30  31
ATOM     31  C   UNK A   0      -9.148  -3.043 123.408  0.00  0.00    +0.000 C 
ATOM     32  F   UNK A   0      -8.289  -2.968 122.370  0.00  0.00    +0.000 F 
ATOM     33  F   UNK A   0     -10.257  -3.719 123.038  0.00  0.00    +0.000 F 
ATOM     34  F   UNK A   0      -9.512  -1.789 123.749  0.00  0.00    +0.000 F 
ENDBRANCH  30  31
ENDBRANCH  27  30
ENDBRANCH  23  24
BRANCH  23  35
ATOM     35  C   UNK A   0      -5.393  -0.324 129.253  0.00  0.00    +0.000 C 
ATOM     36  O   UNK A   0      -4.328   0.051 129.756  0.00  0.00    +0.000 OA
ATOM     37  N   UNK A   0      -6.001  -1.386 129.909  0.00  0.00    +0.000 N 
ATOM     38  H   UNK A   0      -6.981  -1.486 129.689  0.00  0.00    +0.000 HD
BRANCH  37  39
ATOM     39  C   UNK A   0      -5.279  -2.294 131.015  0.00  0.00    +0.000 C 
ATOM     40  C   UNK A   0      -5.277  -1.546 132.395  0.00  0.00    +0.000 C 
ATOM     41  C   UNK A   0      -6.151  -3.517 130.945  0.00  0.00    +0.000 C 
ATOM     42  C   UNK A   0      -3.732  -3.036 130.826  0.00  0.00    +0.000 C 
ENDBRANCH  37  39
ENDBRANCH  23  35
ENDBRANCH   8  23
TORSDOF 9
ENDMDL
MODEL 6
REMARK VINA RESULT:      -8.7      2.266      3.069
REMARK  Name = CHEMBL196780
REMARK  14 active torsions:
REMARK  status: ('A' for Active; 'I' for Inactive)
REMARK    1  A    between atoms: CD1_1  and  CG_2
REMARK    2  A    between atoms: CG_2  and  CD2_3
REMARK    3  A    between atoms: CG_2  and  CB_4
REMARK    4  A    between atoms: CB_4  and  CA_5
REMARK    5  A    between atoms: C_9  and  C_10
REMARK    6  A    between atoms: N_21  and  C_22
REMARK    7  A    between atoms: C_22  and  C_23
REMARK    8  A    between atoms: C_22  and  C_30
REMARK    9  A    between atoms: N_25  and  C_26
REMARK   10  A    between atoms: C_26  and  C_27
REMARK   11  A    between atoms: C_26  and  C_28
REMARK   12  A    between atoms: C_26  and  C_29
REMARK   13  A    between atoms: C_33  and  O_34
REMARK   14  A    between atoms: O_34  and  C_35
REMARK                            x       y       z     vdW  Elec       q    Type
REMARK                         _______ _______ _______ _____ _____    ______ ____
ROOT
ATOM      1  CA  LEU A   2      -9.276   2.161 131.131  0.00  0.00    +0.000 C 
ATOM      2  C   LEU A   2      -8.912   0.664 131.308  0.00  0.00    +0.000 C 
ATOM      3  O   LEU A   2      -9.410  -0.126 132.066  0.00  0.00    +0.000 OA
ATOM      4  N   UNK A   1      -7.910   0.300 130.466  0.00  0.00    +0.000 N 
ATOM      5  C   UNK A   1      -8.000   0.865 129.154  0.00  0.00    +0.000 C 
ATOM      6  C   UNK A   1      -7.775   2.376 129.235  0.00  0.00    +0.000 C 
ATOM      7  O   UNK A   1      -7.267   2.917 128.260  0.00  0.00    +0.000 OA
ATOM      8  N   LEU A   2      -8.242   2.998 130.399  0.00  0.00    +0.000 N 
ATOM      9  H   UNK A   1      -7.596  -0.648 130.625  0.00  0.00    +0.000 HD
ENDROOT
BRANCH   5  10
ATOM     10  C   UNK A   1      -6.954   0.305 128.189  0.00  0.00    +0.000 C 
ATOM     11  C   UNK A   1      -7.548   0.101 126.792  0.00  0.00    +0.000 C 
ATOM     12  C   UNK A   1      -8.029  -1.314 126.890  0.00  0.00    +0.000 A 
ATOM     13  C   UNK A   1      -9.025  -1.917 126.147  0.00  0.00    +0.000 A 
ATOM     14  C   UNK A   1      -9.407  -3.215 126.490  0.00  0.00    +0.000 A 
ATOM     15  C   UNK A   1      -8.807  -3.882 127.570  0.00  0.00    +0.000 A 
ATOM     16  C   UNK A   1      -7.812  -3.262 128.327  0.00  0.00    +0.000 A 
ATOM     17  C   UNK A   1      -7.426  -1.983 127.967  0.00  0.00    +0.000 A 
ATOM     18  C   UNK A   1      -6.461  -1.085 128.675  0.00  0.00    +0.000 C 
ENDBRANCH   5  10
BRANCH   1  19
ATOM     19  CB  LEU A   2      -9.502   2.597 132.521  0.00  0.00    +0.000 C 
BRANCH  19  21
ATOM     20  CD1 LEU A   2      -8.729   3.886 134.215  0.00  0.00    +0.000 C 
ATOM     21  CG  LEU A   2      -8.187   3.056 133.122  0.00  0.00    +0.000 C 
ATOM     22  CD2 LEU A   2      -7.073   2.286 133.855  0.00  0.00    +0.000 C 
ENDBRANCH  19  21
ENDBRANCH   1  19
BRANCH   8  23
ATOM     23  C   UNK A   0      -7.910   4.495 130.727  0.00  0.00    +0.000 C 
BRANCH  23  24
ATOM     24  C   UNK A   0      -9.023   5.485 130.240  0.00  0.00    +0.000 A 
ATOM     25  C   UNK A   0      -9.693   6.358 131.115  0.00  0.00    +0.000 A 
ATOM     26  C   UNK A   0     -10.663   7.254 130.721  0.00  0.00    +0.000 A 
ATOM     27  C   UNK A   0     -10.839   7.489 129.380  0.00  0.00    +0.000 A 
ATOM     28  C   UNK A   0     -10.157   6.695 128.456  0.00  0.00    +0.000 A 
ATOM     29  C   UNK A   0      -9.325   5.643 128.880  0.00  0.00    +0.000 A 
BRANCH  27  30
ATOM     30  O   UNK A   0     -11.648   8.552 129.135  0.00  0.00    +0.000 OA
BRANCH  30  31
ATOM     31  C   UNK A   0     -12.898   8.243 128.572  0.00  0.00    +0.000 C 
ATOM     32  F   UNK A   0     -13.731   9.304 128.612  0.00  0.00    +0.000 F 
ATOM     33  F   UNK A   0     -12.751   7.822 127.298  0.00  0.00    +0.000 F 
ATOM     34  F   UNK A   0     -13.451   7.242 129.287  0.00  0.00    +0.000 F 
ENDBRANCH  30  31
ENDBRANCH  27  30
ENDBRANCH  23  24
BRANCH  23  35
ATOM     35  C   UNK A   0      -6.425   5.100 130.246  0.00  0.00    +0.000 C 
ATOM     36  O   UNK A   0      -6.242   6.284 129.942  0.00  0.00    +0.000 OA
ATOM     37  N   UNK A   0      -5.325   4.275 130.057  0.00  0.00    +0.000 N 
ATOM     38  H   UNK A   0      -5.377   3.410 130.573  0.00  0.00    +0.000 HD
BRANCH  37  39
ATOM     39  C   UNK A   0      -4.023   4.689 129.218  0.00  0.00    +0.000 C 
ATOM     40  C   UNK A   0      -3.004   5.433 130.153  0.00  0.00    +0.000 C 
ATOM     41  C   UNK A   0      -3.590   3.332 128.741  0.00  0.00    +0.000 C 
ATOM     42  C   UNK A   0      -4.047   5.527 127.709  0.00  0.00    +0.000 C 
ENDBRANCH  37  39
ENDBRANCH  23  35
ENDBRANCH   8  23
TORSDOF 9
ENDMDL
MODEL 7
REMARK VINA RESULT:      -8.5      4.687      6.564
REMARK  Name = CHEMBL196780
REMARK  14 active torsions:
REMARK  status: ('A' for Active; 'I' for Inactive)
REMARK    1  A    between atoms: CD1_1  and  CG_2
REMARK    2  A    between atoms: CG_2  and  CD2_3
REMARK    3  A    between atoms: CG_2  and  CB_4
REMARK    4  A    between atoms: CB_4  and  CA_5
REMARK    5  A    between atoms: C_9  and  C_10
REMARK    6  A    between atoms: N_21  and  C_22
REMARK    7  A    between atoms: C_22  and  C_23
REMARK    8  A    between atoms: C_22  and  C_30
REMARK    9  A    between atoms: N_25  and  C_26
REMARK   10  A    between atoms: C_26  and  C_27
REMARK   11  A    between atoms: C_26  and  C_28
REMARK   12  A    between atoms: C_26  and  C_29
REMARK   13  A    between atoms: C_33  and  O_34
REMARK   14  A    between atoms: O_34  and  C_35
REMARK                            x       y       z     vdW  Elec       q    Type
REMARK                         _______ _______ _______ _____ _____    ______ ____
ROOT
ATOM      1  CA  LEU A   2      -4.898   3.143 129.526  0.00  0.00    +0.000 C 
ATOM      2  C   LEU A   2      -5.309   1.734 129.025  0.00  0.00    +0.000 C 
ATOM      3  O   LEU A   2      -4.746   1.055 128.208  0.00  0.00    +0.000 OA
ATOM      4  N   UNK A   1      -6.441   1.306 129.641  0.00  0.00    +0.000 N 
ATOM      5  C   UNK A   1      -6.518   1.621 131.035  0.00  0.00    +0.000 C 
ATOM      6  C   UNK A   1      -6.650   3.135 131.207  0.00  0.00    +0.000 C 
ATOM      7  O   UNK A   1      -7.268   3.533 132.187  0.00  0.00    +0.000 OA
ATOM      8  N   LEU A   2      -5.984   3.915 130.253  0.00  0.00    +0.000 N 
ATOM      9  H   UNK A   1      -6.777   0.428 129.266  0.00  0.00    +0.000 HD
ENDROOT
BRANCH   5  10
ATOM     10  C   UNK A   1      -7.722   0.982 131.727  0.00  0.00    +0.000 C 
ATOM     11  C   UNK A   1      -7.275  -0.026 132.789  0.00  0.00    +0.000 C 
ATOM     12  C   UNK A   1      -7.229  -1.289 131.984  0.00  0.00    +0.000 A 
ATOM     13  C   UNK A   1      -6.489  -2.426 132.243  0.00  0.00    +0.000 A 
ATOM     14  C   UNK A   1      -6.494  -3.444 131.289  0.00  0.00    +0.000 A 
ATOM     15  C   UNK A   1      -7.218  -3.310 130.092  0.00  0.00    +0.000 A 
ATOM     16  C   UNK A   1      -7.952  -2.153 129.830  0.00  0.00    +0.000 A 
ATOM     17  C   UNK A   1      -7.957  -1.157 130.790  0.00  0.00    +0.000 A 
ATOM     18  C   UNK A   1      -8.583   0.199 130.699  0.00  0.00    +0.000 C 
ENDBRANCH   5  10
BRANCH   1  19
ATOM     19  CB  LEU A   2      -4.447   3.800 128.286  0.00  0.00    +0.000 C 
BRANCH  19  21
ATOM     20  CD1 LEU A   2      -2.404   3.554 127.341  0.00  0.00    +0.000 C 
ATOM     21  CG  LEU A   2      -3.021   4.285 128.464  0.00  0.00    +0.000 C 
ATOM     22  CD2 LEU A   2      -2.386   5.677 128.302  0.00  0.00    +0.000 C 
ENDBRANCH  19  21
ENDBRANCH   1  19
BRANCH   8  23
ATOM     23  C   UNK A   0      -6.187   5.468 130.168  0.00  0.00    +0.000 C 
BRANCH  23  24
ATOM     24  C   UNK A   0      -5.089   6.268 130.949  0.00  0.00    +0.000 A 
ATOM     25  C   UNK A   0      -4.479   5.774 132.115  0.00  0.00    +0.000 A 
ATOM     26  C   UNK A   0      -3.498   6.440 132.817  0.00  0.00    +0.000 A 
ATOM     27  C   UNK A   0      -2.905   7.536 132.244  0.00  0.00    +0.000 A 
ATOM     28  C   UNK A   0      -3.426   8.045 131.052  0.00  0.00    +0.000 A 
ATOM     29  C   UNK A   0      -4.563   7.472 130.455  0.00  0.00    +0.000 A 
BRANCH  27  30
ATOM     30  O   UNK A   0      -1.806   7.954 132.924  0.00  0.00    +0.000 OA
BRANCH  30  31
ATOM     31  C   UNK A   0      -0.635   7.214 132.692  0.00  0.00    +0.000 C 
ATOM     32  F   UNK A   0      -0.513   6.197 133.571  0.00  0.00    +0.000 F 
ATOM     33  F   UNK A   0      -0.621   6.733 131.431  0.00  0.00    +0.000 F 
ATOM     34  F   UNK A   0       0.425   8.034 132.843  0.00  0.00    +0.000 F 
ENDBRANCH  30  31
ENDBRANCH  27  30
ENDBRANCH  23  24
BRANCH  23  35
ATOM     35  C   UNK A   0      -7.683   6.095 130.580  0.00  0.00    +0.000 C 
ATOM     36  O   UNK A   0      -7.838   6.974 131.435  0.00  0.00    +0.000 OA
ATOM     37  N   UNK A   0      -8.862   5.583 130.056  0.00  0.00    +0.000 N 
ATOM     38  H   UNK A   0      -8.737   5.105 129.176  0.00  0.00    +0.000 HD
BRANCH  37  39
ATOM     39  C   UNK A   0     -10.312   5.828 130.693  0.00  0.00    +0.000 C 
ATOM     40  C   UNK A   0     -11.036   6.993 129.930  0.00  0.00    +0.000 C 
ATOM     41  C   UNK A   0     -10.907   4.461 130.498  0.00  0.00    +0.000 C 
ATOM     42  C   UNK A   0     -10.627   6.037 132.378  0.00  0.00    +0.000 C 
ENDBRANCH  37  39
ENDBRANCH  23  35
ENDBRANCH   8  23
TORSDOF 9
ENDMDL
MODEL 8
REMARK VINA RESULT:      -8.3      4.211      6.326
REMARK  Name = CHEMBL196780
REMARK  14 active torsions:
REMARK  status: ('A' for Active; 'I' for Inactive)
REMARK    1  A    between atoms: CD1_1  and  CG_2
REMARK    2  A    between atoms: CG_2  and  CD2_3
REMARK    3  A    between atoms: CG_2  and  CB_4
REMARK    4  A    between atoms: CB_4  and  CA_5
REMARK    5  A    between atoms: C_9  and  C_10
REMARK    6  A    between atoms: N_21  and  C_22
REMARK    7  A    between atoms: C_22  and  C_23
REMARK    8  A    between atoms: C_22  and  C_30
REMARK    9  A    between atoms: N_25  and  C_26
REMARK   10  A    between atoms: C_26  and  C_27
REMARK   11  A    between atoms: C_26  and  C_28
REMARK   12  A    between atoms: C_26  and  C_29
REMARK   13  A    between atoms: C_33  and  O_34
REMARK   14  A    between atoms: O_34  and  C_35
REMARK                            x       y       z     vdW  Elec       q    Type
REMARK                         _______ _______ _______ _____ _____    ______ ____
ROOT
ATOM      1  CA  LEU A   2      -5.055   1.446 127.691  0.00  0.00    +0.000 C 
ATOM      2  C   LEU A   2      -5.602   0.071 127.226  0.00  0.00    +0.000 C 
ATOM      3  O   LEU A   2      -5.231  -0.587 126.291  0.00  0.00    +0.000 OA
ATOM      4  N   UNK A   1      -6.610  -0.353 128.033  0.00  0.00    +0.000 N 
ATOM      5  C   UNK A   1      -6.406  -0.097 129.426  0.00  0.00    +0.000 C 
ATOM      6  C   UNK A   1      -6.450   1.411 129.678  0.00  0.00    +0.000 C 
ATOM      7  O   UNK A   1      -6.855   1.782 130.773  0.00  0.00    +0.000 OA
ATOM      8  N   LEU A   2      -5.954   2.213 128.644  0.00  0.00    +0.000 N 
ATOM      9  H   UNK A   1      -7.041  -1.205 127.697  0.00  0.00    +0.000 HD
ENDROOT
BRANCH   5  10
ATOM     10  C   UNK A   1      -7.477  -0.733 130.313  0.00  0.00    +0.000 C 
ATOM     11  C   UNK A   1      -6.932  -1.013 131.717  0.00  0.00    +0.000 C 
ATOM     12  C   UNK A   1      -6.420  -2.412 131.552  0.00  0.00    +0.000 A 
ATOM     13  C   UNK A   1      -5.442  -3.043 132.295  0.00  0.00    +0.000 A 
ATOM     14  C   UNK A   1      -5.023  -4.310 131.888  0.00  0.00    +0.000 A 
ATOM     15  C   UNK A   1      -5.568  -4.919 130.746  0.00  0.00    +0.000 A 
ATOM     16  C   UNK A   1      -6.546  -4.271 129.991  0.00  0.00    +0.000 A 
ATOM     17  C   UNK A   1      -6.969  -3.023 130.413  0.00  0.00    +0.000 A 
ATOM     18  C   UNK A   1      -7.924  -2.099 129.725  0.00  0.00    +0.000 C 
ENDBRANCH   5  10
BRANCH   1  19
ATOM     19  CB  LEU A   2      -4.828   2.143 126.413  0.00  0.00    +0.000 C 
BRANCH  19  21
ATOM     20  CD1 LEU A   2      -3.711   4.053 125.929  0.00  0.00    +0.000 C 
ATOM     21  CG  LEU A   2      -3.410   2.682 126.380  0.00  0.00    +0.000 C 
ATOM     22  CD2 LEU A   2      -2.392   2.952 127.503  0.00  0.00    +0.000 C 
ENDBRANCH  19  21
ENDBRANCH   1  19
BRANCH   8  23
ATOM     23  C   UNK A   0      -6.115   3.774 128.658  0.00  0.00    +0.000 C 
BRANCH  23  24
ATOM     24  C   UNK A   0      -4.995   4.493 129.485  0.00  0.00    +0.000 A 
ATOM     25  C   UNK A   0      -4.772   5.879 129.409  0.00  0.00    +0.000 A 
ATOM     26  C   UNK A   0      -3.810   6.548 130.134  0.00  0.00    +0.000 A 
ATOM     27  C   UNK A   0      -3.179   5.889 131.160  0.00  0.00    +0.000 A 
ATOM     28  C   UNK A   0      -3.402   4.521 131.327  0.00  0.00    +0.000 A 
ATOM     29  C   UNK A   0      -4.233   3.809 130.443  0.00  0.00    +0.000 A 
BRANCH  27  30
ATOM     30  O   UNK A   0      -2.435   6.718 131.937  0.00  0.00    +0.000 OA
BRANCH  30  31
ATOM     31  C   UNK A   0      -1.043   6.571 131.818  0.00  0.00    +0.000 C 
ATOM     32  F   UNK A   0      -0.611   5.455 132.442  0.00  0.00    +0.000 F 
ATOM     33  F   UNK A   0      -0.681   6.538 130.518  0.00  0.00    +0.000 F 
ATOM     34  F   UNK A   0      -0.451   7.636 132.395  0.00  0.00    +0.000 F 
ENDBRANCH  30  31
ENDBRANCH  27  30
ENDBRANCH  23  24
BRANCH  23  35
ATOM     35  C   UNK A   0      -7.593   4.413 129.113  0.00  0.00    +0.000 C 
ATOM     36  O   UNK A   0      -8.450   4.783 128.303  0.00  0.00    +0.000 OA
ATOM     37  N   UNK A   0      -7.904   4.666 130.443  0.00  0.00    +0.000 N 
ATOM     38  H   UNK A   0      -7.369   4.111 131.093  0.00  0.00    +0.000 HD
BRANCH  37  39
ATOM     39  C   UNK A   0      -9.086   5.636 130.921  0.00  0.00    +0.000 C 
ATOM     40  C   UNK A   0     -10.444   4.849 130.938  0.00  0.00    +0.000 C 
ATOM     41  C   UNK A   0      -8.554   6.033 132.270  0.00  0.00    +0.000 C 
ATOM     42  C   UNK A   0      -9.403   7.203 130.268  0.00  0.00    +0.000 C 
ENDBRANCH  37  39
ENDBRANCH  23  35
ENDBRANCH   8  23
TORSDOF 9
ENDMDL
MODEL 9
REMARK VINA RESULT:      -8.1      4.242      7.109
REMARK  Name = CHEMBL196780
REMARK  14 active torsions:
REMARK  status: ('A' for Active; 'I' for Inactive)
REMARK    1  A    between atoms: CD1_1  and  CG_2
REMARK    2  A    between atoms: CG_2  and  CD2_3
REMARK    3  A    between atoms: CG_2  and  CB_4
REMARK    4  A    between atoms: CB_4  and  CA_5
REMARK    5  A    between atoms: C_9  and  C_10
REMARK    6  A    between atoms: N_21  and  C_22
REMARK    7  A    between atoms: C_22  and  C_23
REMARK    8  A    between atoms: C_22  and  C_30
REMARK    9  A    between atoms: N_25  and  C_26
REMARK   10  A    between atoms: C_26  and  C_27
REMARK   11  A    between atoms: C_26  and  C_28
REMARK   12  A    between atoms: C_26  and  C_29
REMARK   13  A    between atoms: C_33  and  O_34
REMARK   14  A    between atoms: O_34  and  C_35
REMARK                            x       y       z     vdW  Elec       q    Type
REMARK                         _______ _______ _______ _____ _____    ______ ____
ROOT
ATOM      1  CA  LEU A   2      -7.599   1.404 128.282  0.00  0.00    +0.000 C 
ATOM      2  C   LEU A   2      -8.441   0.745 127.159  0.00  0.00    +0.000 C 
ATOM      3  O   LEU A   2      -9.387   1.212 126.583  0.00  0.00    +0.000 OA
ATOM      4  N   UNK A   1      -7.975  -0.496 126.861  0.00  0.00    +0.000 N 
ATOM      5  C   UNK A   1      -6.549  -0.610 126.847  0.00  0.00    +0.000 C 
ATOM      6  C   UNK A   1      -6.011  -0.433 128.268  0.00  0.00    +0.000 C 
ATOM      7  O   UNK A   1      -4.977  -1.026 128.551  0.00  0.00    +0.000 OA
ATOM      8  N   LEU A   2      -6.728   0.452 129.082  0.00  0.00    +0.000 N 
ATOM      9  H   UNK A   1      -8.562  -0.980 126.193  0.00  0.00    +0.000 HD
ENDROOT
BRANCH   5  10
ATOM     10  C   UNK A   1      -6.062  -1.971 126.348  0.00  0.00    +0.000 C 
ATOM     11  C   UNK A   1      -5.574  -1.883 124.898  0.00  0.00    +0.000 C 
ATOM     12  C   UNK A   1      -6.834  -2.202 124.153  0.00  0.00    +0.000 A 
ATOM     13  C   UNK A   1      -7.156  -1.851 122.856  0.00  0.00    +0.000 A 
ATOM     14  C   UNK A   1      -8.442  -2.140 122.398  0.00  0.00    +0.000 A 
ATOM     15  C   UNK A   1      -9.387  -2.755 123.236  0.00  0.00    +0.000 A 
ATOM     16  C   UNK A   1      -9.061  -3.093 124.550  0.00  0.00    +0.000 A 
ATOM     17  C   UNK A   1      -7.777  -2.821 124.989  0.00  0.00    +0.000 A 
ATOM     18  C   UNK A   1      -7.225  -3.000 126.368  0.00  0.00    +0.000 C 
ENDBRANCH   5  10
BRANCH   1  19
ATOM     19  CB  LEU A   2      -8.628   2.075 129.095  0.00  0.00    +0.000 C 
BRANCH  19  21
ATOM     20  CD1 LEU A   2      -8.673   3.816 130.544  0.00  0.00    +0.000 C 
ATOM     21  CG  LEU A   2      -8.349   3.567 129.126  0.00  0.00    +0.000 C 
ATOM     22  CD2 LEU A   2      -7.043   4.366 128.971  0.00  0.00    +0.000 C 
ENDBRANCH  19  21
ENDBRANCH   1  19
BRANCH   8  23
ATOM     23  C   UNK A   0      -6.431   0.588 130.617  0.00  0.00    +0.000 C 
BRANCH  23  24
ATOM     24  C   UNK A   0      -5.424   1.744 130.941  0.00  0.00    +0.000 A 
ATOM     25  C   UNK A   0      -4.393   2.117 130.061  0.00  0.00    +0.000 A 
ATOM     26  C   UNK A   0      -3.501   3.139 130.305  0.00  0.00    +0.000 A 
ATOM     27  C   UNK A   0      -3.751   4.001 131.342  0.00  0.00    +0.000 A 
ATOM     28  C   UNK A   0      -4.799   3.719 132.222  0.00  0.00    +0.000 A 
ATOM     29  C   UNK A   0      -5.573   2.554 132.077  0.00  0.00    +0.000 A 
BRANCH  27  30
ATOM     30  O   UNK A   0      -2.938   5.088 131.329  0.00  0.00    +0.000 OA
BRANCH  30  31
ATOM     31  C   UNK A   0      -1.919   5.092 132.298  0.00  0.00    +0.000 C 
ATOM     32  F   UNK A   0      -1.522   3.837 132.598  0.00  0.00    +0.000 F 
ATOM     33  F   UNK A   0      -0.863   5.817 131.871  0.00  0.00    +0.000 F 
ATOM     34  F   UNK A   0      -2.400   5.665 133.420  0.00  0.00    +0.000 F 
ENDBRANCH  30  31
ENDBRANCH  27  30
ENDBRANCH  23  24
BRANCH  23  35
ATOM     35  C   UNK A   0      -5.947  -0.778 131.454  0.00  0.00    +0.000 C 
ATOM     36  O   UNK A   0      -5.105  -0.757 132.358  0.00  0.00    +0.000 OA
ATOM     37  N   UNK A   0      -6.391  -2.047 131.105  0.00  0.00    +0.000 N 
ATOM     38  H   UNK A   0      -7.267  -2.042 130.603  0.00  0.00    +0.000 HD
BRANCH  37  39
ATOM     39  C   UNK A   0      -5.677  -3.407 131.561  0.00  0.00    +0.000 C 
ATOM     40  C   UNK A   0      -6.269  -3.882 132.935  0.00  0.00    +0.000 C 
ATOM     41  C   UNK A   0      -6.012  -4.274 130.379  0.00  0.00    +0.000 C 
ATOM     42  C   UNK A   0      -3.969  -3.653 131.620  0.00  0.00    +0.000 C 
ENDBRANCH  37  39
ENDBRANCH  23  35
ENDBRANCH   8  23
TORSDOF 9
ENDMDL
