MODEL 1
REMARK VINA RESULT:      -8.8      0.000      0.000
REMARK  Name = CHEMBL403149
REMARK  9 active torsions:
REMARK  status: ('A' for Active; 'I' for Inactive)
REMARK    1  A    between atoms: C_1  and  C_2
REMARK    2  A    between atoms: C_4  and  C_5
REMARK    3  A    between atoms: C_5  and  C_6
REMARK    4  A    between atoms: C_5  and  N_12
REMARK    5  A    between atoms: C_15  and  C_16
REMARK    6  A    between atoms: CA_28  and  CB_29
REMARK    7  A    between atoms: CB_29  and  CG_30
REMARK    8  A    between atoms: CG_30  and  CD1_31
REMARK    9  A    between atoms: CG_30  and  CD2_32
REMARK                            x       y       z     vdW  Elec       q    Type
REMARK                         _______ _______ _______ _____ _____    ______ ____
ROOT
ATOM      1  N   LEU A   1      -7.595   0.527 127.719  0.00  0.00    +0.000 N 
ATOM      2  C   UNK A   2      -7.199   1.413 126.711  0.00  0.00    +0.000 C 
ATOM      3  O   UNK A   2      -6.247   2.142 126.852  0.00  0.00    +0.000 OA
ATOM      4  C   UNK A   2      -8.141   1.421 125.459  0.00  0.00    +0.000 C 
ATOM      5  N   UNK A   2      -7.947   0.132 124.889  0.00  0.00    +0.000 N 
ATOM      6  C   LEU A   1      -8.263  -0.953 125.643  0.00  0.00    +0.000 C 
ATOM      7  O   LEU A   1      -8.463  -2.003 125.067  0.00  0.00    +0.000 OA
ATOM      8  CA  LEU A   1      -8.295  -0.708 127.207  0.00  0.00    +0.000 C 
ATOM      9  H   UNK A   2      -7.785  -0.038 123.904  0.00  0.00    +0.000 HD
ENDROOT
BRANCH   4  10
ATOM     10  C   UNK A   2      -7.884   2.493 124.422  0.00  0.00    +0.000 C 
ATOM     11  C   UNK A   2      -6.531   2.338 123.714  0.00  0.00    +0.000 C 
ATOM     12  C   UNK A   2      -6.803   2.977 122.404  0.00  0.00    +0.000 A 
ATOM     13  C   UNK A   2      -5.878   3.308 121.438  0.00  0.00    +0.000 A 
ATOM     14  C   UNK A   2      -6.355   3.874 120.261  0.00  0.00    +0.000 A 
ATOM     15  C   UNK A   2      -7.736   4.044 120.055  0.00  0.00    +0.000 A 
ATOM     16  C   UNK A   2      -8.661   3.638 121.015  0.00  0.00    +0.000 A 
ATOM     17  C   UNK A   2      -8.178   3.118 122.194  0.00  0.00    +0.000 A 
ATOM     18  C   UNK A   2      -8.973   2.585 123.335  0.00  0.00    +0.000 C 
ENDBRANCH   4  10
BRANCH   1  19
ATOM     19  C   UNK A   0      -7.026   0.764 129.176  0.00  0.00    +0.000 C 
BRANCH  19  23
ATOM     20  C   UNK A   0      -3.603  -3.113 129.262  0.00  0.00    +0.000 C 
ATOM     21  C   UNK A   0      -4.349  -1.829 129.570  0.00  0.00    +0.000 A 
ATOM     22  N   UNK A   0      -4.845  -0.839 128.819  0.00  0.00    +0.000 NA
ATOM     23  C   UNK A   0      -5.778  -0.141 129.671  0.00  0.00    +0.000 A 
ATOM     24  C   UNK A   0      -5.511  -0.602 130.943  0.00  0.00    +0.000 A 
ATOM     25  O   UNK A   0      -4.711  -1.703 130.883  0.00  0.00    +0.000 OA
ENDBRANCH  19  23
BRANCH  19  26
ATOM     26  C   UNK A   0      -8.232   0.692 130.247  0.00  0.00    +0.000 C 
ATOM     27  O   UNK A   0      -8.590  -0.365 130.770  0.00  0.00    +0.000 OA
ATOM     28  N   UNK A   0      -8.815   1.875 130.654  0.00  0.00    +0.000 N 
ATOM     29  C   UNK A   0      -9.593   2.290 131.816  0.00  0.00    +0.000 C 
ATOM     30  C   UNK A   0     -10.439   3.142 130.858  0.00  0.00    +0.000 C 
ATOM     31  C   UNK A   0      -9.291   2.996 129.900  0.00  0.00    +0.000 C 
ENDBRANCH  19  26
ENDBRANCH   1  19
BRANCH   8  32
ATOM     32  CB  LEU A   1      -7.587  -1.912 127.774  0.00  0.00    +0.000 C 
BRANCH  32  33
ATOM     33  CG  LEU A   1      -8.302  -2.917 128.673  0.00  0.00    +0.000 C 
ATOM     34  CD1 LEU A   1      -8.975  -4.016 127.831  0.00  0.00    +0.000 C 
ATOM     35  CD2 LEU A   1      -7.358  -3.652 129.576  0.00  0.00    +0.000 C 
ENDBRANCH  32  33
ENDBRANCH   8  32
TORSDOF 6
ENDMDL
MODEL 2
REMARK VINA RESULT:      -8.5      2.234      5.026
REMARK  Name = CHEMBL403149
REMARK  9 active torsions:
REMARK  status: ('A' for Active; 'I' for Inactive)
REMARK    1  A    between atoms: C_1  and  C_2
REMARK    2  A    between atoms: C_4  and  C_5
REMARK    3  A    between atoms: C_5  and  C_6
REMARK    4  A    between atoms: C_5  and  N_12
REMARK    5  A    between atoms: C_15  and  C_16
REMARK    6  A    between atoms: CA_28  and  CB_29
REMARK    7  A    between atoms: CB_29  and  CG_30
REMARK    8  A    between atoms: CG_30  and  CD1_31
REMARK    9  A    between atoms: CG_30  and  CD2_32
REMARK                            x       y       z     vdW  Elec       q    Type
REMARK                         _______ _______ _______ _____ _____    ______ ____
ROOT
ATOM      1  N   LEU A   1      -7.074   1.576 125.851  0.00  0.00    +0.000 N 
ATOM      2  C   UNK A   2      -7.137   1.703 124.459  0.00  0.00    +0.000 C 
ATOM      3  O   UNK A   2      -7.655   0.854 123.773  0.00  0.00    +0.000 OA
ATOM      4  C   UNK A   2      -6.414   2.975 123.898  0.00  0.00    +0.000 C 
ATOM      5  N   UNK A   2      -7.208   4.050 124.384  0.00  0.00    +0.000 N 
ATOM      6  C   LEU A   1      -7.327   4.197 125.730  0.00  0.00    +0.000 C 
ATOM      7  O   LEU A   1      -7.664   5.283 126.152  0.00  0.00    +0.000 OA
ATOM      8  CA  LEU A   1      -7.039   2.895 126.584  0.00  0.00    +0.000 C 
ATOM      9  H   UNK A   2      -7.522   4.828 123.818  0.00  0.00    +0.000 HD
ENDROOT
BRANCH   4  10
ATOM     10  C   UNK A   2      -6.274   3.069 122.393  0.00  0.00    +0.000 C 
ATOM     11  C   UNK A   2      -7.616   3.266 121.673  0.00  0.00    +0.000 C 
ATOM     12  C   UNK A   2      -7.194   3.981 120.446  0.00  0.00    +0.000 A 
ATOM     13  C   UNK A   2      -7.963   4.232 119.329  0.00  0.00    +0.000 A 
ATOM     14  C   UNK A   2      -7.375   4.953 118.296  0.00  0.00    +0.000 A 
ATOM     15  C   UNK A   2      -6.066   5.450 118.421  0.00  0.00    +0.000 A 
ATOM     16  C   UNK A   2      -5.328   5.247 119.586  0.00  0.00    +0.000 A 
ATOM     17  C   UNK A   2      -5.902   4.496 120.586  0.00  0.00    +0.000 A 
ATOM     18  C   UNK A   2      -5.323   4.186 121.923  0.00  0.00    +0.000 C 
ENDBRANCH   4  10
BRANCH   1  19
ATOM     19  C   UNK A   0      -7.336   0.146 126.475  0.00  0.00    +0.000 C 
BRANCH  19  23
ATOM     20  C   UNK A   0      -7.588   0.226 131.640  0.00  0.00    +0.000 C 
ATOM     21  C   UNK A   0      -7.155  -0.047 130.213  0.00  0.00    +0.000 A 
ATOM     22  N   UNK A   0      -7.798  -0.428 129.104  0.00  0.00    +0.000 NA
ATOM     23  C   UNK A   0      -6.906  -0.112 128.014  0.00  0.00    +0.000 A 
ATOM     24  C   UNK A   0      -5.690   0.144 128.613  0.00  0.00    +0.000 A 
ATOM     25  O   UNK A   0      -5.852   0.284 129.959  0.00  0.00    +0.000 OA
ENDBRANCH  19  23
BRANCH  19  26
ATOM     26  C   UNK A   0      -6.703  -0.988 125.517  0.00  0.00    +0.000 C 
ATOM     27  O   UNK A   0      -5.521  -0.972 125.165  0.00  0.00    +0.000 OA
ATOM     28  N   UNK A   0      -7.496  -2.059 125.159  0.00  0.00    +0.000 N 
ATOM     29  C   UNK A   0      -7.239  -3.415 124.687  0.00  0.00    +0.000 C 
ATOM     30  C   UNK A   0      -8.449  -3.245 123.756  0.00  0.00    +0.000 C 
ATOM     31  C   UNK A   0      -8.836  -2.108 124.659  0.00  0.00    +0.000 C 
ENDBRANCH  19  26
ENDBRANCH   1  19
BRANCH   8  32
ATOM     32  CB  LEU A   1      -8.145   2.886 127.609  0.00  0.00    +0.000 C 
BRANCH  32  33
ATOM     33  CG  LEU A   1      -7.900   3.293 129.059  0.00  0.00    +0.000 C 
ATOM     34  CD1 LEU A   1      -6.442   3.748 129.257  0.00  0.00    +0.000 C 
ATOM     35  CD2 LEU A   1      -8.727   4.473 129.472  0.00  0.00    +0.000 C 
ENDBRANCH  32  33
ENDBRANCH   8  32
TORSDOF 6
ENDMDL
MODEL 3
REMARK VINA RESULT:      -8.4      1.746      2.379
REMARK  Name = CHEMBL403149
REMARK  9 active torsions:
REMARK  status: ('A' for Active; 'I' for Inactive)
REMARK    1  A    between atoms: C_1  and  C_2
REMARK    2  A    between atoms: C_4  and  C_5
REMARK    3  A    between atoms: C_5  and  C_6
REMARK    4  A    between atoms: C_5  and  N_12
REMARK    5  A    between atoms: C_15  and  C_16
REMARK    6  A    between atoms: CA_28  and  CB_29
REMARK    7  A    between atoms: CB_29  and  CG_30
REMARK    8  A    between atoms: CG_30  and  CD1_31
REMARK    9  A    between atoms: CG_30  and  CD2_32
REMARK                            x       y       z     vdW  Elec       q    Type
REMARK                         _______ _______ _______ _____ _____    ______ ____
ROOT
ATOM      1  N   LEU A   1      -7.473   0.606 125.851  0.00  0.00    +0.000 N 
ATOM      2  C   UNK A   2      -7.064   1.644 125.007  0.00  0.00    +0.000 C 
ATOM      3  O   UNK A   2      -6.158   2.382 125.310  0.00  0.00    +0.000 OA
ATOM      4  C   UNK A   2      -7.931   1.795 123.710  0.00  0.00    +0.000 C 
ATOM      5  N   UNK A   2      -7.642   0.610 122.977  0.00  0.00    +0.000 N 
ATOM      6  C   LEU A   1      -7.949  -0.584 123.548  0.00  0.00    +0.000 C 
ATOM      7  O   LEU A   1      -8.064  -1.546 122.818  0.00  0.00    +0.000 OA
ATOM      8  CA  LEU A   1      -8.082  -0.569 125.126  0.00  0.00    +0.000 C 
ATOM      9  H   UNK A   2      -7.416   0.592 121.990  0.00  0.00    +0.000 HD
ENDROOT
BRANCH   4  10
ATOM     10  C   UNK A   2      -7.668   3.015 122.855  0.00  0.00    +0.000 C 
ATOM     11  C   UNK A   2      -6.183   3.206 122.514  0.00  0.00    +0.000 C 
ATOM     12  C   UNK A   2      -6.262   3.937 121.227  0.00  0.00    +0.000 A 
ATOM     13  C   UNK A   2      -5.225   4.553 120.561  0.00  0.00    +0.000 A 
ATOM     14  C   UNK A   2      -5.515   5.158 119.344  0.00  0.00    +0.000 A 
ATOM     15  C   UNK A   2      -6.809   5.089 118.798  0.00  0.00    +0.000 A 
ATOM     16  C   UNK A   2      -7.829   4.401 119.453  0.00  0.00    +0.000 A 
ATOM     17  C   UNK A   2      -7.544   3.841 120.677  0.00  0.00    +0.000 A 
ATOM     18  C   UNK A   2      -8.457   3.032 121.531  0.00  0.00    +0.000 C 
ENDBRANCH   4  10
BRANCH   1  19
ATOM     19  C   UNK A   0      -7.001   0.653 127.361  0.00  0.00    +0.000 C 
BRANCH  19  23
ATOM     20  C   UNK A   0      -7.253  -2.989 131.025  0.00  0.00    +0.000 C 
ATOM     21  C   UNK A   0      -6.947  -2.240 129.743  0.00  0.00    +0.000 A 
ATOM     22  N   UNK A   0      -7.677  -1.495 128.905  0.00  0.00    +0.000 NA
ATOM     23  C   UNK A   0      -6.721  -0.748 128.122  0.00  0.00    +0.000 A 
ATOM     24  C   UNK A   0      -5.509  -1.358 128.367  0.00  0.00    +0.000 A 
ATOM     25  O   UNK A   0      -5.616  -2.205 129.428  0.00  0.00    +0.000 OA
ENDBRANCH  19  23
BRANCH  19  26
ATOM     26  C   UNK A   0      -8.019   1.566 128.219  0.00  0.00    +0.000 C 
ATOM     27  O   UNK A   0      -9.118   1.918 127.785  0.00  0.00    +0.000 OA
ATOM     28  N   UNK A   0      -7.677   1.880 129.518  0.00  0.00    +0.000 N 
ATOM     29  C   UNK A   0      -8.418   2.299 130.703  0.00  0.00    +0.000 C 
ATOM     30  C   UNK A   0      -7.244   3.236 131.021  0.00  0.00    +0.000 C 
ATOM     31  C   UNK A   0      -6.455   2.379 130.072  0.00  0.00    +0.000 C 
ENDBRANCH  19  26
ENDBRANCH   1  19
BRANCH   8  32
ATOM     32  CB  LEU A   1      -7.350  -1.813 125.560  0.00  0.00    +0.000 C 
BRANCH  32  33
ATOM     33  CG  LEU A   1      -8.087  -3.111 125.876  0.00  0.00    +0.000 C 
ATOM     34  CD1 LEU A   1      -9.604  -2.864 125.972  0.00  0.00    +0.000 C 
ATOM     35  CD2 LEU A   1      -7.936  -4.136 124.793  0.00  0.00    +0.000 C 
ENDBRANCH  32  33
ENDBRANCH   8  32
TORSDOF 6
ENDMDL
MODEL 4
REMARK VINA RESULT:      -8.4      2.867      5.123
REMARK  Name = CHEMBL403149
REMARK  9 active torsions:
REMARK  status: ('A' for Active; 'I' for Inactive)
REMARK    1  A    between atoms: C_1  and  C_2
REMARK    2  A    between atoms: C_4  and  C_5
REMARK    3  A    between atoms: C_5  and  C_6
REMARK    4  A    between atoms: C_5  and  N_12
REMARK    5  A    between atoms: C_15  and  C_16
REMARK    6  A    between atoms: CA_28  and  CB_29
REMARK    7  A    between atoms: CB_29  and  CG_30
REMARK    8  A    between atoms: CG_30  and  CD1_31
REMARK    9  A    between atoms: CG_30  and  CD2_32
REMARK                            x       y       z     vdW  Elec       q    Type
REMARK                         _______ _______ _______ _____ _____    ______ ____
ROOT
ATOM      1  N   LEU A   1      -8.314   3.130 128.979  0.00  0.00    +0.000 N 
ATOM      2  C   UNK A   2      -7.838   3.783 127.836  0.00  0.00    +0.000 C 
ATOM      3  O   UNK A   2      -7.388   4.902 127.892  0.00  0.00    +0.000 OA
ATOM      4  C   UNK A   2      -8.023   2.969 126.510  0.00  0.00    +0.000 C 
ATOM      5  N   UNK A   2      -7.145   1.862 126.674  0.00  0.00    +0.000 N 
ATOM      6  C   LEU A   1      -7.369   1.019 127.716  0.00  0.00    +0.000 C 
ATOM      7  O   LEU A   1      -6.893  -0.095 127.653  0.00  0.00    +0.000 OA
ATOM      8  CA  LEU A   1      -8.208   1.626 128.914  0.00  0.00    +0.000 C 
ATOM      9  H   UNK A   2      -6.497   1.540 125.966  0.00  0.00    +0.000 HD
ENDROOT
BRANCH   4  10
ATOM     10  C   UNK A   2      -7.713   3.695 125.218  0.00  0.00    +0.000 C 
ATOM     11  C   UNK A   2      -6.207   3.846 124.957  0.00  0.00    +0.000 C 
ATOM     12  C   UNK A   2      -6.166   3.912 123.477  0.00  0.00    +0.000 A 
ATOM     13  C   UNK A   2      -5.084   4.255 122.695  0.00  0.00    +0.000 A 
ATOM     14  C   UNK A   2      -5.254   4.222 121.315  0.00  0.00    +0.000 A 
ATOM     15  C   UNK A   2      -6.471   3.799 120.753  0.00  0.00    +0.000 A 
ATOM     16  C   UNK A   2      -7.532   3.389 121.559  0.00  0.00    +0.000 A 
ATOM     17  C   UNK A   2      -7.369   3.465 122.923  0.00  0.00    +0.000 A 
ATOM     18  C   UNK A   2      -8.341   3.046 123.970  0.00  0.00    +0.000 C 
ENDBRANCH   4  10
BRANCH   1  19
ATOM     19  C   UNK A   0      -8.613   4.009 130.260  0.00  0.00    +0.000 C 
BRANCH  19  23
ATOM     20  C   UNK A   0     -10.838   8.001 127.839  0.00  0.00    +0.000 C 
ATOM     21  C   UNK A   0     -10.274   7.083 128.906  0.00  0.00    +0.000 A 
ATOM     22  N   UNK A   0     -10.379   5.773 129.154  0.00  0.00    +0.000 NA
ATOM     23  C   UNK A   0      -9.293   5.464 130.053  0.00  0.00    +0.000 A 
ATOM     24  C   UNK A   0      -8.835   6.689 130.492  0.00  0.00    +0.000 A 
ATOM     25  O   UNK A   0      -9.359   7.686 129.725  0.00  0.00    +0.000 OA
ENDBRANCH  19  23
BRANCH  19  26
ATOM     26  C   UNK A   0      -7.274   4.137 131.154  0.00  0.00    +0.000 C 
ATOM     27  O   UNK A   0      -6.152   4.245 130.654  0.00  0.00    +0.000 OA
ATOM     28  N   UNK A   0      -7.410   4.221 132.525  0.00  0.00    +0.000 N 
ATOM     29  C   UNK A   0      -6.574   4.720 133.611  0.00  0.00    +0.000 C 
ATOM     30  C   UNK A   0      -7.068   3.528 134.445  0.00  0.00    +0.000 C 
ATOM     31  C   UNK A   0      -8.182   3.436 133.441  0.00  0.00    +0.000 C 
ENDBRANCH  19  26
ENDBRANCH   1  19
BRANCH   8  32
ATOM     32  CB  LEU A   1      -7.470   1.158 130.142  0.00  0.00    +0.000 C 
BRANCH  32  33
ATOM     33  CG  LEU A   1      -8.077   0.144 131.107  0.00  0.00    +0.000 C 
ATOM     34  CD1 LEU A   1      -7.185  -0.025 132.350  0.00  0.00    +0.000 C 
ATOM     35  CD2 LEU A   1      -9.403   0.588 131.647  0.00  0.00    +0.000 C 
ENDBRANCH  32  33
ENDBRANCH   8  32
TORSDOF 6
ENDMDL
MODEL 5
REMARK VINA RESULT:      -8.4      1.453      3.414
REMARK  Name = CHEMBL403149
REMARK  9 active torsions:
REMARK  status: ('A' for Active; 'I' for Inactive)
REMARK    1  A    between atoms: C_1  and  C_2
REMARK    2  A    between atoms: C_4  and  C_5
REMARK    3  A    between atoms: C_5  and  C_6
REMARK    4  A    between atoms: C_5  and  N_12
REMARK    5  A    between atoms: C_15  and  C_16
REMARK    6  A    between atoms: CA_28  and  CB_29
REMARK    7  A    between atoms: CB_29  and  CG_30
REMARK    8  A    between atoms: CG_30  and  CD1_31
REMARK    9  A    between atoms: CG_30  and  CD2_32
REMARK                            x       y       z     vdW  Elec       q    Type
REMARK                         _______ _______ _______ _____ _____    ______ ____
ROOT
ATOM      1  N   LEU A   1      -7.999   0.585 127.625  0.00  0.00    +0.000 N 
ATOM      2  C   UNK A   2      -7.610   1.550 126.689  0.00  0.00    +0.000 C 
ATOM      3  O   UNK A   2      -6.901   2.477 126.999  0.00  0.00    +0.000 OA
ATOM      4  C   UNK A   2      -8.242   1.355 125.268  0.00  0.00    +0.000 C 
ATOM      5  N   UNK A   2      -7.643   0.152 124.801  0.00  0.00    +0.000 N 
ATOM      6  C   LEU A   1      -7.858  -0.985 125.513  0.00  0.00    +0.000 C 
ATOM      7  O   LEU A   1      -7.687  -2.046 124.949  0.00  0.00    +0.000 OA
ATOM      8  CA  LEU A   1      -8.275  -0.772 127.026  0.00  0.00    +0.000 C 
ATOM      9  H   UNK A   2      -7.242   0.035 123.879  0.00  0.00    +0.000 HD
ENDROOT
BRANCH   4  10
ATOM     10  C   UNK A   2      -8.022   2.470 124.268  0.00  0.00    +0.000 C 
ATOM     11  C   UNK A   2      -6.631   2.434 123.620  0.00  0.00    +0.000 C 
ATOM     12  C   UNK A   2      -6.893   3.083 122.314  0.00  0.00    +0.000 A 
ATOM     13  C   UNK A   2      -5.953   3.508 121.398  0.00  0.00    +0.000 A 
ATOM     14  C   UNK A   2      -6.420   4.066 120.214  0.00  0.00    +0.000 A 
ATOM     15  C   UNK A   2      -7.799   4.137 119.948  0.00  0.00    +0.000 A 
ATOM     16  C   UNK A   2      -8.732   3.638 120.855  0.00  0.00    +0.000 A 
ATOM     17  C   UNK A   2      -8.263   3.126 122.043  0.00  0.00    +0.000 A 
ATOM     18  C   UNK A   2      -9.065   2.506 123.135  0.00  0.00    +0.000 C 
ENDBRANCH   4  10
BRANCH   1  19
ATOM     19  C   UNK A   0      -7.821   0.930 129.159  0.00  0.00    +0.000 C 
BRANCH  19  23
ATOM     20  C   UNK A   0      -7.770   5.205 132.070  0.00  0.00    +0.000 C 
ATOM     21  C   UNK A   0      -8.048   4.208 130.962  0.00  0.00    +0.000 A 
ATOM     22  N   UNK A   0      -7.282   3.376 130.248  0.00  0.00    +0.000 NA
ATOM     23  C   UNK A   0      -8.194   2.425 129.658  0.00  0.00    +0.000 A 
ATOM     24  C   UNK A   0      -9.445   2.977 129.834  0.00  0.00    +0.000 A 
ATOM     25  O   UNK A   0      -9.379   4.014 130.715  0.00  0.00    +0.000 OA
ENDBRANCH  19  23
BRANCH  19  26
ATOM     26  C   UNK A   0      -6.330   0.535 129.634  0.00  0.00    +0.000 C 
ATOM     27  O   UNK A   0      -5.346   0.665 128.902  0.00  0.00    +0.000 OA
ATOM     28  N   UNK A   0      -6.148   0.124 130.939  0.00  0.00    +0.000 N 
ATOM     29  C   UNK A   0      -5.009   0.067 131.849  0.00  0.00    +0.000 C 
ATOM     30  C   UNK A   0      -5.571  -1.269 132.357  0.00  0.00    +0.000 C 
ATOM     31  C   UNK A   0      -6.864  -0.830 131.731  0.00  0.00    +0.000 C 
ENDBRANCH  19  26
ENDBRANCH   1  19
BRANCH   8  32
ATOM     32  CB  LEU A   1      -7.448  -1.787 127.773  0.00  0.00    +0.000 C 
BRANCH  32  33
ATOM     33  CG  LEU A   1      -8.086  -2.818 128.701  0.00  0.00    +0.000 C 
ATOM     34  CD1 LEU A   1      -8.841  -3.886 127.889  0.00  0.00    +0.000 C 
ATOM     35  CD2 LEU A   1      -7.069  -3.587 129.489  0.00  0.00    +0.000 C 
ENDBRANCH  32  33
ENDBRANCH   8  32
TORSDOF 6
ENDMDL
MODEL 6
REMARK VINA RESULT:      -8.3      3.588      5.719
REMARK  Name = CHEMBL403149
REMARK  9 active torsions:
REMARK  status: ('A' for Active; 'I' for Inactive)
REMARK    1  A    between atoms: C_1  and  C_2
REMARK    2  A    between atoms: C_4  and  C_5
REMARK    3  A    between atoms: C_5  and  C_6
REMARK    4  A    between atoms: C_5  and  N_12
REMARK    5  A    between atoms: C_15  and  C_16
REMARK    6  A    between atoms: CA_28  and  CB_29
REMARK    7  A    between atoms: CB_29  and  CG_30
REMARK    8  A    between atoms: CG_30  and  CD1_31
REMARK    9  A    between atoms: CG_30  and  CD2_32
REMARK                            x       y       z     vdW  Elec       q    Type
REMARK                         _______ _______ _______ _____ _____    ______ ____
ROOT
ATOM      1  N   LEU A   1      -8.741   3.322 129.300  0.00  0.00    +0.000 N 
ATOM      2  C   UNK A   2      -8.312   2.993 128.009  0.00  0.00    +0.000 C 
ATOM      3  O   UNK A   2      -7.927   3.840 127.239  0.00  0.00    +0.000 OA
ATOM      4  C   UNK A   2      -8.460   1.474 127.653  0.00  0.00    +0.000 C 
ATOM      5  N   UNK A   2      -7.518   0.839 128.509  0.00  0.00    +0.000 N 
ATOM      6  C   LEU A   1      -7.686   0.971 129.851  0.00  0.00    +0.000 C 
ATOM      7  O   LEU A   1      -7.146   0.156 130.570  0.00  0.00    +0.000 OA
ATOM      8  CA  LEU A   1      -8.549   2.216 130.309  0.00  0.00    +0.000 C 
ATOM      9  H   UNK A   2      -6.857   0.134 128.206  0.00  0.00    +0.000 HD
ENDROOT
BRANCH   4  10
ATOM     10  C   UNK A   2      -8.200   1.086 126.212  0.00  0.00    +0.000 C 
ATOM     11  C   UNK A   2      -6.876   0.334 126.018  0.00  0.00    +0.000 C 
ATOM     12  C   UNK A   2      -7.168  -0.480 124.815  0.00  0.00    +0.000 A 
ATOM     13  C   UNK A   2      -6.264  -1.200 124.064  0.00  0.00    +0.000 A 
ATOM     14  C   UNK A   2      -6.759  -1.925 122.987  0.00  0.00    +0.000 A 
ATOM     15  C   UNK A   2      -8.139  -1.961 122.720  0.00  0.00    +0.000 A 
ATOM     16  C   UNK A   2      -9.046  -1.284 123.532  0.00  0.00    +0.000 A 
ATOM     17  C   UNK A   2      -8.544  -0.534 124.570  0.00  0.00    +0.000 A 
ATOM     18  C   UNK A   2      -9.319   0.233 125.585  0.00  0.00    +0.000 C 
ENDBRANCH   4  10
BRANCH   1  19
ATOM     19  C   UNK A   0      -9.081   4.837 129.601  0.00  0.00    +0.000 C 
BRANCH  19  23
ATOM     20  C   UNK A   0      -4.694   6.179 131.989  0.00  0.00    +0.000 C 
ATOM     21  C   UNK A   0      -6.118   6.169 131.470  0.00  0.00    +0.000 A 
ATOM     22  N   UNK A   0      -6.670   5.927 130.276  0.00  0.00    +0.000 NA
ATOM     23  C   UNK A   0      -8.067   5.680 130.541  0.00  0.00    +0.000 A 
ATOM     24  C   UNK A   0      -8.263   6.106 131.838  0.00  0.00    +0.000 A 
ATOM     25  O   UNK A   0      -7.063   6.314 132.448  0.00  0.00    +0.000 OA
ENDBRANCH  19  23
BRANCH  19  26
ATOM     26  C   UNK A   0     -10.592   4.954 130.158  0.00  0.00    +0.000 C 
ATOM     27  O   UNK A   0     -11.290   3.964 130.388  0.00  0.00    +0.000 OA
ATOM     28  N   UNK A   0     -11.077   6.207 130.472  0.00  0.00    +0.000 N 
ATOM     29  C   UNK A   0     -12.150   6.709 131.323  0.00  0.00    +0.000 C 
ATOM     30  C   UNK A   0     -12.424   7.761 130.237  0.00  0.00    +0.000 C 
ATOM     31  C   UNK A   0     -11.045   7.437 129.739  0.00  0.00    +0.000 C 
ENDBRANCH  19  26
ENDBRANCH   1  19
BRANCH   8  32
ATOM     32  CB  LEU A   1      -7.777   2.779 131.475  0.00  0.00    +0.000 C 
BRANCH  32  33
ATOM     33  CG  LEU A   1      -8.152   2.457 132.918  0.00  0.00    +0.000 C 
ATOM     34  CD1 LEU A   1      -7.124   3.058 133.894  0.00  0.00    +0.000 C 
ATOM     35  CD2 LEU A   1      -9.461   3.065 133.321  0.00  0.00    +0.000 C 
ENDBRANCH  32  33
ENDBRANCH   8  32
TORSDOF 6
ENDMDL
MODEL 7
REMARK VINA RESULT:      -8.2      3.201      4.265
REMARK  Name = CHEMBL403149
REMARK  9 active torsions:
REMARK  status: ('A' for Active; 'I' for Inactive)
REMARK    1  A    between atoms: C_1  and  C_2
REMARK    2  A    between atoms: C_4  and  C_5
REMARK    3  A    between atoms: C_5  and  C_6
REMARK    4  A    between atoms: C_5  and  N_12
REMARK    5  A    between atoms: C_15  and  C_16
REMARK    6  A    between atoms: CA_28  and  CB_29
REMARK    7  A    between atoms: CB_29  and  CG_30
REMARK    8  A    between atoms: CG_30  and  CD1_31
REMARK    9  A    between atoms: CG_30  and  CD2_32
REMARK                            x       y       z     vdW  Elec       q    Type
REMARK                         _______ _______ _______ _____ _____    ______ ____
ROOT
ATOM      1  N   LEU A   1      -6.021   3.390 127.568  0.00  0.00    +0.000 N 
ATOM      2  C   UNK A   2      -5.617   3.117 126.256  0.00  0.00    +0.000 C 
ATOM      3  O   UNK A   2      -4.459   2.911 125.984  0.00  0.00    +0.000 OA
ATOM      4  C   UNK A   2      -6.774   3.191 125.202  0.00  0.00    +0.000 C 
ATOM      5  N   UNK A   2      -7.609   2.093 125.548  0.00  0.00    +0.000 N 
ATOM      6  C   LEU A   1      -8.172   2.084 126.785  0.00  0.00    +0.000 C 
ATOM      7  O   LEU A   1      -9.150   1.387 126.956  0.00  0.00    +0.000 OA
ATOM      8  CA  LEU A   1      -7.439   2.974 127.871  0.00  0.00    +0.000 C 
ATOM      9  H   UNK A   2      -7.979   1.425 124.882  0.00  0.00    +0.000 HD
ENDROOT
BRANCH   4  10
ATOM     10  C   UNK A   2      -6.372   3.102 123.745  0.00  0.00    +0.000 C 
ATOM     11  C   UNK A   2      -7.568   3.162 122.783  0.00  0.00    +0.000 C 
ATOM     12  C   UNK A   2      -6.944   3.734 121.567  0.00  0.00    +0.000 A 
ATOM     13  C   UNK A   2      -7.507   3.818 120.311  0.00  0.00    +0.000 A 
ATOM     14  C   UNK A   2      -6.755   4.424 119.311  0.00  0.00    +0.000 A 
ATOM     15  C   UNK A   2      -5.494   4.977 119.597  0.00  0.00    +0.000 A 
ATOM     16  C   UNK A   2      -4.971   4.944 120.889  0.00  0.00    +0.000 A 
ATOM     17  C   UNK A   2      -5.703   4.305 121.862  0.00  0.00    +0.000 A 
ATOM     18  C   UNK A   2      -5.366   4.183 123.308  0.00  0.00    +0.000 C 
ENDBRANCH   4  10
BRANCH   1  19
ATOM     19  C   UNK A   0      -4.907   3.806 128.612  0.00  0.00    +0.000 C 
BRANCH  19  23
ATOM     20  C   UNK A   0      -4.501  -0.751 131.024  0.00  0.00    +0.000 C 
ATOM     21  C   UNK A   0      -4.309   0.697 130.617  0.00  0.00    +0.000 A 
ATOM     22  N   UNK A   0      -4.149   1.318 129.443  0.00  0.00    +0.000 NA
ATOM     23  C   UNK A   0      -4.429   2.710 129.704  0.00  0.00    +0.000 A 
ATOM     24  C   UNK A   0      -4.428   2.821 131.078  0.00  0.00    +0.000 A 
ATOM     25  O   UNK A   0      -4.454   1.584 131.648  0.00  0.00    +0.000 OA
ENDBRANCH  19  23
BRANCH  19  26
ATOM     26  C   UNK A   0      -5.336   5.179 129.344  0.00  0.00    +0.000 C 
ATOM     27  O   UNK A   0      -6.446   5.336 129.857  0.00  0.00    +0.000 OA
ATOM     28  N   UNK A   0      -4.387   6.172 129.477  0.00  0.00    +0.000 N 
ATOM     29  C   UNK A   0      -4.220   7.322 130.359  0.00  0.00    +0.000 C 
ATOM     30  C   UNK A   0      -3.684   8.090 129.141  0.00  0.00    +0.000 C 
ATOM     31  C   UNK A   0      -3.479   6.736 128.524  0.00  0.00    +0.000 C 
ENDBRANCH  19  26
ENDBRANCH   1  19
BRANCH   8  32
ATOM     32  CB  LEU A   1      -7.415   2.096 129.096  0.00  0.00    +0.000 C 
BRANCH  32  33
ATOM     33  CG  LEU A   1      -8.101   2.510 130.395  0.00  0.00    +0.000 C 
ATOM     34  CD1 LEU A   1      -9.557   2.932 130.129  0.00  0.00    +0.000 C 
ATOM     35  CD2 LEU A   1      -8.205   1.379 131.375  0.00  0.00    +0.000 C 
ENDBRANCH  32  33
ENDBRANCH   8  32
TORSDOF 6
ENDMDL
MODEL 8
REMARK VINA RESULT:      -8.2      3.653      6.920
REMARK  Name = CHEMBL403149
REMARK  9 active torsions:
REMARK  status: ('A' for Active; 'I' for Inactive)
REMARK    1  A    between atoms: C_1  and  C_2
REMARK    2  A    between atoms: C_4  and  C_5
REMARK    3  A    between atoms: C_5  and  C_6
REMARK    4  A    between atoms: C_5  and  N_12
REMARK    5  A    between atoms: C_15  and  C_16
REMARK    6  A    between atoms: CA_28  and  CB_29
REMARK    7  A    between atoms: CB_29  and  CG_30
REMARK    8  A    between atoms: CG_30  and  CD1_31
REMARK    9  A    between atoms: CG_30  and  CD2_32
REMARK                            x       y       z     vdW  Elec       q    Type
REMARK                         _______ _______ _______ _____ _____    ______ ____
ROOT
ATOM      1  N   LEU A   1      -6.557   1.571 126.081  0.00  0.00    +0.000 N 
ATOM      2  C   UNK A   2      -5.365   1.818 126.771  0.00  0.00    +0.000 C 
ATOM      3  O   UNK A   2      -4.738   0.923 127.286  0.00  0.00    +0.000 OA
ATOM      4  C   UNK A   2      -4.988   3.335 126.877  0.00  0.00    +0.000 C 
ATOM      5  N   UNK A   2      -4.697   3.700 125.533  0.00  0.00    +0.000 N 
ATOM      6  C   LEU A   1      -5.688   3.578 124.610  0.00  0.00    +0.000 C 
ATOM      7  O   LEU A   1      -5.586   4.218 123.584  0.00  0.00    +0.000 OA
ATOM      8  CA  LEU A   1      -6.849   2.570 124.988  0.00  0.00    +0.000 C 
ATOM      9  H   UNK A   2      -3.882   4.229 125.249  0.00  0.00    +0.000 HD
ENDROOT
BRANCH   4  10
ATOM     10  C   UNK A   2      -3.822   3.685 127.776  0.00  0.00    +0.000 C 
ATOM     11  C   UNK A   2      -3.347   5.136 127.613  0.00  0.00    +0.000 C 
ATOM     12  C   UNK A   2      -2.769   5.414 128.949  0.00  0.00    +0.000 A 
ATOM     13  C   UNK A   2      -2.006   6.504 129.310  0.00  0.00    +0.000 A 
ATOM     14  C   UNK A   2      -1.590   6.584 130.634  0.00  0.00    +0.000 A 
ATOM     15  C   UNK A   2      -1.986   5.614 131.571  0.00  0.00    +0.000 A 
ATOM     16  C   UNK A   2      -2.816   4.556 131.204  0.00  0.00    +0.000 A 
ATOM     17  C   UNK A   2      -3.188   4.461 129.882  0.00  0.00    +0.000 A 
ATOM     18  C   UNK A   2      -4.095   3.448 129.274  0.00  0.00    +0.000 C 
ENDBRANCH   4  10
BRANCH   1  19
ATOM     19  C   UNK A   0      -7.268   0.177 126.313  0.00  0.00    +0.000 C 
BRANCH  19  23
ATOM     20  C   UNK A   0      -7.749  -3.346 130.069  0.00  0.00    +0.000 C 
ATOM     21  C   UNK A   0      -7.450  -2.070 129.306  0.00  0.00    +0.000 A 
ATOM     22  N   UNK A   0      -6.843  -1.803 128.144  0.00  0.00    +0.000 NA
ATOM     23  C   UNK A   0      -7.245  -0.460 127.801  0.00  0.00    +0.000 A 
ATOM     24  C   UNK A   0      -7.806   0.048 128.954  0.00  0.00    +0.000 A 
ATOM     25  O   UNK A   0      -8.027  -0.955 129.848  0.00  0.00    +0.000 OA
ENDBRANCH  19  23
BRANCH  19  26
ATOM     26  C   UNK A   0      -6.725  -0.894 125.234  0.00  0.00    +0.000 C 
ATOM     27  O   UNK A   0      -5.536  -0.967 124.915  0.00  0.00    +0.000 OA
ATOM     28  N   UNK A   0      -7.616  -1.819 124.727  0.00  0.00    +0.000 N 
ATOM     29  C   UNK A   0      -7.489  -3.127 124.094  0.00  0.00    +0.000 C 
ATOM     30  C   UNK A   0      -8.638  -2.709 123.163  0.00  0.00    +0.000 C 
ATOM     31  C   UNK A   0      -8.934  -1.656 124.192  0.00  0.00    +0.000 C 
ENDBRANCH  19  26
ENDBRANCH   1  19
BRANCH   8  32
ATOM     32  CB  LEU A   1      -7.091   1.805 123.712  0.00  0.00    +0.000 C 
BRANCH  32  33
ATOM     33  CG  LEU A   1      -8.437   1.844 122.994  0.00  0.00    +0.000 C 
ATOM     34  CD1 LEU A   1      -9.590   1.960 124.008  0.00  0.00    +0.000 C 
ATOM     35  CD2 LEU A   1      -8.583   3.047 122.111  0.00  0.00    +0.000 C 
ENDBRANCH  32  33
ENDBRANCH   8  32
TORSDOF 6
ENDMDL
MODEL 9
REMARK VINA RESULT:      -8.2      4.328      7.265
REMARK  Name = CHEMBL403149
REMARK  9 active torsions:
REMARK  status: ('A' for Active; 'I' for Inactive)
REMARK    1  A    between atoms: C_1  and  C_2
REMARK    2  A    between atoms: C_4  and  C_5
REMARK    3  A    between atoms: C_5  and  C_6
REMARK    4  A    between atoms: C_5  and  N_12
REMARK    5  A    between atoms: C_15  and  C_16
REMARK    6  A    between atoms: CA_28  and  CB_29
REMARK    7  A    between atoms: CB_29  and  CG_30
REMARK    8  A    between atoms: CG_30  and  CD1_31
REMARK    9  A    between atoms: CG_30  and  CD2_32
REMARK                            x       y       z     vdW  Elec       q    Type
REMARK                         _______ _______ _______ _____ _____    ______ ____
ROOT
ATOM      1  N   LEU A   1      -7.734   2.847 130.970  0.00  0.00    +0.000 N 
ATOM      2  C   UNK A   2      -8.902   3.385 130.419  0.00  0.00    +0.000 C 
ATOM      3  O   UNK A   2      -9.450   2.868 129.475  0.00  0.00    +0.000 OA
ATOM      4  C   UNK A   2      -9.359   4.732 131.078  0.00  0.00    +0.000 C 
ATOM      5  N   UNK A   2      -9.737   4.346 132.394  0.00  0.00    +0.000 N 
ATOM      6  C   LEU A   1      -8.788   3.791 133.193  0.00  0.00    +0.000 C 
ATOM      7  O   LEU A   1      -8.978   3.809 134.391  0.00  0.00    +0.000 OA
ATOM      8  CA  LEU A   1      -7.554   3.148 132.438  0.00  0.00    +0.000 C 
ATOM      9  H   UNK A   2     -10.595   4.634 132.849  0.00  0.00    +0.000 HD
ENDROOT
BRANCH   4  10
ATOM     10  C   UNK A   2     -10.498   5.467 130.403  0.00  0.00    +0.000 C 
ATOM     11  C   UNK A   2     -11.361   6.274 131.382  0.00  0.00    +0.000 C 
ATOM     12  C   UNK A   2     -11.879   7.352 130.507  0.00  0.00    +0.000 A 
ATOM     13  C   UNK A   2     -12.877   8.254 130.807  0.00  0.00    +0.000 A 
ATOM     14  C   UNK A   2     -13.187   9.210 129.847  0.00  0.00    +0.000 A 
ATOM     15  C   UNK A   2     -12.465   9.278 128.643  0.00  0.00    +0.000 A 
ATOM     16  C   UNK A   2     -11.412   8.401 128.385  0.00  0.00    +0.000 A 
ATOM     17  C   UNK A   2     -11.140   7.432 129.323  0.00  0.00    +0.000 A 
ATOM     18  C   UNK A   2     -10.046   6.422 129.281  0.00  0.00    +0.000 C 
ENDBRANCH   4  10
BRANCH   1  19
ATOM     19  C   UNK A   0      -6.933   1.788 130.110  0.00  0.00    +0.000 C 
BRANCH  19  23
ATOM     20  C   UNK A   0      -6.333  -3.339 129.779  0.00  0.00    +0.000 C 
ATOM     21  C   UNK A   0      -6.720  -1.951 130.252  0.00  0.00    +0.000 A 
ATOM     22  N   UNK A   0      -6.065  -0.790 130.358  0.00  0.00    +0.000 NA
ATOM     23  C   UNK A   0      -7.090   0.219 130.481  0.00  0.00    +0.000 A 
ATOM     24  C   UNK A   0      -8.248  -0.481 130.746  0.00  0.00    +0.000 A 
ATOM     25  O   UNK A   0      -8.056  -1.809 130.511  0.00  0.00    +0.000 OA
ENDBRANCH  19  23
BRANCH  19  26
ATOM     26  C   UNK A   0      -5.372   2.199 130.060  0.00  0.00    +0.000 C 
ATOM     27  O   UNK A   0      -4.587   1.927 130.971  0.00  0.00    +0.000 OA
ATOM     28  N   UNK A   0      -4.891   2.795 128.912  0.00  0.00    +0.000 N 
ATOM     29  C   UNK A   0      -3.571   2.949 128.311  0.00  0.00    +0.000 C 
ATOM     30  C   UNK A   0      -4.001   4.365 127.899  0.00  0.00    +0.000 C 
ATOM     31  C   UNK A   0      -5.404   3.882 128.133  0.00  0.00    +0.000 C 
ENDBRANCH  19  26
ENDBRANCH   1  19
BRANCH   8  32
ATOM     32  CB  LEU A   1      -7.333   1.842 133.157  0.00  0.00    +0.000 C 
BRANCH  32  33
ATOM     33  CG  LEU A   1      -6.271   1.691 134.242  0.00  0.00    +0.000 C 
ATOM     34  CD1 LEU A   1      -5.407   0.443 133.987  0.00  0.00    +0.000 C 
ATOM     35  CD2 LEU A   1      -5.299   2.832 134.256  0.00  0.00    +0.000 C 
ENDBRANCH  32  33
ENDBRANCH   8  32
TORSDOF 6
ENDMDL
