MODEL 1
REMARK VINA RESULT:      -8.1      0.000      0.000
REMARK  Name = CHEMBL594361
REMARK  6 active torsions:
REMARK  status: ('A' for Active; 'I' for Inactive)
REMARK    1  A    between atoms: C_1  and  O_2
REMARK    2  A    between atoms: O_2  and  C_3
REMARK    3  A    between atoms: C_6  and  N_7
REMARK    4  A    between atoms: C_8  and  C_9
REMARK    5  A    between atoms: C_15  and  O_16
REMARK    6  A    between atoms: O_16  and  C_17
REMARK                            x       y       z     vdW  Elec       q    Type
REMARK                         _______ _______ _______ _____ _____    ______ ____
ROOT
ATOM      1  N   UNL     1      -8.363  -1.232 124.521  0.00  0.00    +0.000 N 
ATOM      2  C   UNL     1      -8.992  -2.389 124.062  0.00  0.00    +0.000 A 
ATOM      3  C   UNL     1      -8.954  -3.769 124.644  0.00  0.00    +0.000 C 
ATOM      4  N   UNL     1      -9.788  -2.054 123.060  0.00  0.00    +0.000 NA
ATOM      5  N   UNL     1      -9.726  -0.690 122.874  0.00  0.00    +0.000 NA
ATOM      6  C   UNL     1      -8.858  -0.180 123.733  0.00  0.00    +0.000 A 
ATOM      7  N   UNL     1      -8.481   1.113 123.952  0.00  0.00    +0.000 N 
ATOM      8  C   UNL     1      -9.216   2.325 123.719  0.00  0.00    +0.000 C 
ATOM      9  C   UNL     1      -8.017   2.909 122.938  0.00  0.00    +0.000 C 
ATOM     10  C   UNL     1      -7.239   1.717 123.539  0.00  0.00    +0.000 C 
ENDROOT
BRANCH   1  14
ATOM     11  C   UNL     1      -5.832  -0.982 127.820  0.00  0.00    +0.000 A 
ATOM     12  C   UNL     1      -5.266  -1.165 126.568  0.00  0.00    +0.000 A 
ATOM     13  C   UNL     1      -6.108  -1.213 125.455  0.00  0.00    +0.000 A 
ATOM     14  C   UNL     1      -7.487  -1.072 125.623  0.00  0.00    +0.000 A 
ATOM     15  C   UNL     1      -7.973  -0.926 126.910  0.00  0.00    +0.000 A 
ATOM     16  N   UNL     1      -7.169  -0.886 128.008  0.00  0.00    +0.000 NA
BRANCH  11  18
ATOM     17  C   UNL     1      -4.595  -2.282 129.345  0.00  0.00    +0.000 C 
ATOM     18  O   UNL     1      -5.091  -0.997 128.974  0.00  0.00    +0.000 OA
ENDBRANCH  11  18
ENDBRANCH   1  14
BRANCH   9  19
ATOM     19  O   UNL     1      -8.215   3.030 121.501  0.00  0.00    +0.000 OA
BRANCH  19  20
ATOM     20  C   UNL     1      -7.364   3.850 120.795  0.00  0.00    +0.000 A 
ATOM     21  C   UNL     1      -7.749   4.273 119.520  0.00  0.00    +0.000 A 
ATOM     22  C   UNL     1      -6.838   4.954 118.701  0.00  0.00    +0.000 A 
ATOM     23  C   UNL     1      -5.558   5.249 119.170  0.00  0.00    +0.000 A 
ATOM     24  C   UNL     1      -5.183   4.844 120.447  0.00  0.00    +0.000 A 
ATOM     25  C   UNL     1      -6.079   4.132 121.246  0.00  0.00    +0.000 A 
ENDBRANCH  19  20
ENDBRANCH   9  19
TORSDOF 4
ENDMDL
MODEL 2
REMARK VINA RESULT:      -7.6      4.631      7.320
REMARK  Name = CHEMBL594361
REMARK  6 active torsions:
REMARK  status: ('A' for Active; 'I' for Inactive)
REMARK    1  A    between atoms: C_1  and  O_2
REMARK    2  A    between atoms: O_2  and  C_3
REMARK    3  A    between atoms: C_6  and  N_7
REMARK    4  A    between atoms: C_8  and  C_9
REMARK    5  A    between atoms: C_15  and  O_16
REMARK    6  A    between atoms: O_16  and  C_17
REMARK                            x       y       z     vdW  Elec       q    Type
REMARK                         _______ _______ _______ _____ _____    ______ ____
ROOT
ATOM      1  N   UNL     1      -6.333   3.376 122.740  0.00  0.00    +0.000 N 
ATOM      2  C   UNL     1      -5.956   3.891 121.499  0.00  0.00    +0.000 A 
ATOM      3  C   UNL     1      -6.472   3.531 120.141  0.00  0.00    +0.000 C 
ATOM      4  N   UNL     1      -5.127   4.901 121.709  0.00  0.00    +0.000 NA
ATOM      5  N   UNL     1      -4.981   5.088 123.067  0.00  0.00    +0.000 NA
ATOM      6  C   UNL     1      -5.685   4.167 123.703  0.00  0.00    +0.000 A 
ATOM      7  N   UNL     1      -5.877   3.962 125.039  0.00  0.00    +0.000 N 
ATOM      8  C   UNL     1      -5.824   4.907 126.119  0.00  0.00    +0.000 C 
ATOM      9  C   UNL     1      -4.859   3.979 126.891  0.00  0.00    +0.000 C 
ATOM     10  C   UNL     1      -5.266   2.927 125.836  0.00  0.00    +0.000 C 
ENDROOT
BRANCH   1  14
ATOM     11  C   UNL     1      -8.987   0.351 123.815  0.00  0.00    +0.000 A 
ATOM     12  C   UNL     1      -9.467   1.648 123.725  0.00  0.00    +0.000 A 
ATOM     13  C   UNL     1      -8.590   2.660 123.329  0.00  0.00    +0.000 A 
ATOM     14  C   UNL     1      -7.262   2.347 123.032  0.00  0.00    +0.000 A 
ATOM     15  C   UNL     1      -6.856   1.033 123.179  0.00  0.00    +0.000 A 
ATOM     16  N   UNL     1      -7.694   0.035 123.571  0.00  0.00    +0.000 NA
BRANCH  11  18
ATOM     17  C   UNL     1      -9.125  -1.515 125.244  0.00  0.00    +0.000 C 
ATOM     18  O   UNL     1      -9.756  -0.691 124.266  0.00  0.00    +0.000 OA
ENDBRANCH  11  18
ENDBRANCH   1  14
BRANCH   9  19
ATOM     19  O   UNL     1      -3.486   4.455 126.987  0.00  0.00    +0.000 OA
BRANCH  19  20
ATOM     20  C   UNL     1      -3.016   4.838 128.223  0.00  0.00    +0.000 A 
ATOM     21  C   UNL     1      -3.368   4.072 129.338  0.00  0.00    +0.000 A 
ATOM     22  C   UNL     1      -3.064   4.529 130.628  0.00  0.00    +0.000 A 
ATOM     23  C   UNL     1      -2.374   5.728 130.802  0.00  0.00    +0.000 A 
ATOM     24  C   UNL     1      -2.008   6.480 129.691  0.00  0.00    +0.000 A 
ATOM     25  C   UNL     1      -2.346   6.043 128.409  0.00  0.00    +0.000 A 
ENDBRANCH  19  20
ENDBRANCH   9  19
TORSDOF 4
ENDMDL
MODEL 3
REMARK VINA RESULT:      -7.5      1.720      2.088
REMARK  Name = CHEMBL594361
REMARK  6 active torsions:
REMARK  status: ('A' for Active; 'I' for Inactive)
REMARK    1  A    between atoms: C_1  and  O_2
REMARK    2  A    between atoms: O_2  and  C_3
REMARK    3  A    between atoms: C_6  and  N_7
REMARK    4  A    between atoms: C_8  and  C_9
REMARK    5  A    between atoms: C_15  and  O_16
REMARK    6  A    between atoms: O_16  and  C_17
REMARK                            x       y       z     vdW  Elec       q    Type
REMARK                         _______ _______ _______ _____ _____    ______ ____
ROOT
ATOM      1  N   UNL     1      -8.167  -0.864 126.311  0.00  0.00    +0.000 N 
ATOM      2  C   UNL     1      -8.758  -2.104 126.064  0.00  0.00    +0.000 A 
ATOM      3  C   UNL     1      -8.792  -3.316 126.943  0.00  0.00    +0.000 C 
ATOM      4  N   UNL     1      -9.444  -2.013 124.937  0.00  0.00    +0.000 NA
ATOM      5  N   UNL     1      -9.350  -0.725 124.456  0.00  0.00    +0.000 NA
ATOM      6  C   UNL     1      -8.570  -0.024 125.261  0.00  0.00    +0.000 A 
ATOM      7  N   UNL     1      -8.204   1.290 125.219  0.00  0.00    +0.000 N 
ATOM      8  C   UNL     1      -8.900   2.409 124.647  0.00  0.00    +0.000 C 
ATOM      9  C   UNL     1      -7.622   2.818 123.879  0.00  0.00    +0.000 C 
ATOM     10  C   UNL     1      -6.921   1.802 124.808  0.00  0.00    +0.000 C 
ENDROOT
BRANCH   1  14
ATOM     11  C   UNL     1      -5.847   0.531 129.477  0.00  0.00    +0.000 A 
ATOM     12  C   UNL     1      -7.200   0.834 129.467  0.00  0.00    +0.000 A 
ATOM     13  C   UNL     1      -7.988   0.338 128.428  0.00  0.00    +0.000 A 
ATOM     14  C   UNL     1      -7.406  -0.449 127.432  0.00  0.00    +0.000 A 
ATOM     15  C   UNL     1      -6.043  -0.676 127.498  0.00  0.00    +0.000 A 
ATOM     16  N   UNL     1      -5.257  -0.194 128.499  0.00  0.00    +0.000 NA
BRANCH  11  18
ATOM     17  C   UNL     1      -4.443   2.317 130.098  0.00  0.00    +0.000 C 
ATOM     18  O   UNL     1      -4.984   1.036 130.416  0.00  0.00    +0.000 OA
ENDBRANCH  11  18
ENDBRANCH   1  14
BRANCH   9  19
ATOM     19  O   UNL     1      -7.672   2.609 122.439  0.00  0.00    +0.000 OA
BRANCH  19  20
ATOM     20  C   UNL     1      -6.980   3.484 121.632  0.00  0.00    +0.000 A 
ATOM     21  C   UNL     1      -7.549   3.859 120.412  0.00  0.00    +0.000 A 
ATOM     22  C   UNL     1      -6.800   4.598 119.485  0.00  0.00    +0.000 A 
ATOM     23  C   UNL     1      -5.500   4.997 119.794  0.00  0.00    +0.000 A 
ATOM     24  C   UNL     1      -4.942   4.639 121.017  0.00  0.00    +0.000 A 
ATOM     25  C   UNL     1      -5.675   3.870 121.922  0.00  0.00    +0.000 A 
ENDBRANCH  19  20
ENDBRANCH   9  19
TORSDOF 4
ENDMDL
MODEL 4
REMARK VINA RESULT:      -7.3      1.829      2.311
REMARK  Name = CHEMBL594361
REMARK  6 active torsions:
REMARK  status: ('A' for Active; 'I' for Inactive)
REMARK    1  A    between atoms: C_1  and  O_2
REMARK    2  A    between atoms: O_2  and  C_3
REMARK    3  A    between atoms: C_6  and  N_7
REMARK    4  A    between atoms: C_8  and  C_9
REMARK    5  A    between atoms: C_15  and  O_16
REMARK    6  A    between atoms: O_16  and  C_17
REMARK                            x       y       z     vdW  Elec       q    Type
REMARK                         _______ _______ _______ _____ _____    ______ ____
ROOT
ATOM      1  N   UNL     1      -7.988  -1.529 126.886  0.00  0.00    +0.000 N 
ATOM      2  C   UNL     1      -8.864  -2.578 126.607  0.00  0.00    +0.000 A 
ATOM      3  C   UNL     1      -8.996  -3.898 127.303  0.00  0.00    +0.000 C 
ATOM      4  N   UNL     1      -9.708  -2.171 125.673  0.00  0.00    +0.000 NA
ATOM      5  N   UNL     1      -9.431  -0.858 125.359  0.00  0.00    +0.000 NA
ATOM      6  C   UNL     1      -8.386  -0.460 126.066  0.00  0.00    +0.000 A 
ATOM      7  N   UNL     1      -7.763   0.752 126.124  0.00  0.00    +0.000 N 
ATOM      8  C   UNL     1      -8.296   2.061 125.865  0.00  0.00    +0.000 C 
ATOM      9  C   UNL     1      -7.121   2.357 124.906  0.00  0.00    +0.000 C 
ATOM     10  C   UNL     1      -6.496   1.086 125.522  0.00  0.00    +0.000 C 
ENDROOT
BRANCH   1  14
ATOM     11  C   UNL     1      -5.082  -1.505 129.870  0.00  0.00    +0.000 A 
ATOM     12  C   UNL     1      -4.763  -2.067 128.644  0.00  0.00    +0.000 A 
ATOM     13  C   UNL     1      -5.721  -2.044 127.629  0.00  0.00    +0.000 A 
ATOM     14  C   UNL     1      -6.967  -1.459 127.865  0.00  0.00    +0.000 A 
ATOM     15  C   UNL     1      -7.216  -0.950 129.128  0.00  0.00    +0.000 A 
ATOM     16  N   UNL     1      -6.298  -0.970 130.132  0.00  0.00    +0.000 NA
BRANCH  11  18
ATOM     17  C   UNL     1      -4.881  -1.609 132.214  0.00  0.00    +0.000 C 
ATOM     18  O   UNL     1      -4.232  -1.548 130.946  0.00  0.00    +0.000 OA
ENDBRANCH  11  18
ENDBRANCH   1  14
BRANCH   9  19
ATOM     19  O   UNL     1      -7.474   2.413 123.495  0.00  0.00    +0.000 OA
BRANCH  19  20
ATOM     20  C   UNL     1      -6.766   3.270 122.682  0.00  0.00    +0.000 A 
ATOM     21  C   UNL     1      -7.104   3.338 121.328  0.00  0.00    +0.000 A 
ATOM     22  C   UNL     1      -6.294   4.056 120.437  0.00  0.00    +0.000 A 
ATOM     23  C   UNL     1      -5.171   4.739 120.906  0.00  0.00    +0.000 A 
ATOM     24  C   UNL     1      -4.847   4.685 122.257  0.00  0.00    +0.000 A 
ATOM     25  C   UNL     1      -5.633   3.938 123.136  0.00  0.00    +0.000 A 
ENDBRANCH  19  20
ENDBRANCH   9  19
TORSDOF 4
ENDMDL
MODEL 5
REMARK VINA RESULT:      -7.2      4.346      7.537
REMARK  Name = CHEMBL594361
REMARK  6 active torsions:
REMARK  status: ('A' for Active; 'I' for Inactive)
REMARK    1  A    between atoms: C_1  and  O_2
REMARK    2  A    between atoms: O_2  and  C_3
REMARK    3  A    between atoms: C_6  and  N_7
REMARK    4  A    between atoms: C_8  and  C_9
REMARK    5  A    between atoms: C_15  and  O_16
REMARK    6  A    between atoms: O_16  and  C_17
REMARK                            x       y       z     vdW  Elec       q    Type
REMARK                         _______ _______ _______ _____ _____    ______ ____
ROOT
ATOM      1  N   UNL     1      -7.594   2.012 123.747  0.00  0.00    +0.000 N 
ATOM      2  C   UNL     1      -8.395   0.927 124.107  0.00  0.00    +0.000 A 
ATOM      3  C   UNL     1      -9.285   0.093 123.238  0.00  0.00    +0.000 C 
ATOM      4  N   UNL     1      -8.141   0.631 125.371  0.00  0.00    +0.000 NA
ATOM      5  N   UNL     1      -7.158   1.475 125.841  0.00  0.00    +0.000 NA
ATOM      6  C   UNL     1      -6.830   2.325 124.883  0.00  0.00    +0.000 A 
ATOM      7  N   UNL     1      -5.895   3.319 124.860  0.00  0.00    +0.000 N 
ATOM      8  C   UNL     1      -4.677   3.438 125.611  0.00  0.00    +0.000 C 
ATOM      9  C   UNL     1      -5.077   4.866 126.046  0.00  0.00    +0.000 C 
ATOM     10  C   UNL     1      -6.157   4.734 124.950  0.00  0.00    +0.000 C 
ENDROOT
BRANCH   1  14
ATOM     11  C   UNL     1      -7.193   4.045 120.134  0.00  0.00    +0.000 A 
ATOM     12  C   UNL     1      -6.055   3.521 120.725  0.00  0.00    +0.000 A 
ATOM     13  C   UNL     1      -6.189   2.807 121.917  0.00  0.00    +0.000 A 
ATOM     14  C   UNL     1      -7.454   2.634 122.482  0.00  0.00    +0.000 A 
ATOM     15  C   UNL     1      -8.535   3.217 121.845  0.00  0.00    +0.000 A 
ATOM     16  N   UNL     1      -8.423   3.923 120.687  0.00  0.00    +0.000 NA
BRANCH  11  18
ATOM     17  C   UNL     1      -5.901   5.477 118.783  0.00  0.00    +0.000 C 
ATOM     18  O   UNL     1      -7.148   4.822 119.004  0.00  0.00    +0.000 OA
ENDBRANCH  11  18
ENDBRANCH   1  14
BRANCH   9  19
ATOM     19  O   UNL     1      -5.442   5.006 127.448  0.00  0.00    +0.000 OA
BRANCH  19  20
ATOM     20  C   UNL     1      -4.476   5.435 128.331  0.00  0.00    +0.000 A 
ATOM     21  C   UNL     1      -3.521   6.352 127.882  0.00  0.00    +0.000 A 
ATOM     22  C   UNL     1      -2.421   6.671 128.690  0.00  0.00    +0.000 A 
ATOM     23  C   UNL     1      -2.296   6.107 129.959  0.00  0.00    +0.000 A 
ATOM     24  C   UNL     1      -3.257   5.209 130.411  0.00  0.00    +0.000 A 
ATOM     25  C   UNL     1      -4.332   4.864 129.591  0.00  0.00    +0.000 A 
ENDBRANCH  19  20
ENDBRANCH   9  19
TORSDOF 4
ENDMDL
MODEL 6
REMARK VINA RESULT:      -7.2      2.525      3.435
REMARK  Name = CHEMBL594361
REMARK  6 active torsions:
REMARK  status: ('A' for Active; 'I' for Inactive)
REMARK    1  A    between atoms: C_1  and  O_2
REMARK    2  A    between atoms: O_2  and  C_3
REMARK    3  A    between atoms: C_6  and  N_7
REMARK    4  A    between atoms: C_8  and  C_9
REMARK    5  A    between atoms: C_15  and  O_16
REMARK    6  A    between atoms: O_16  and  C_17
REMARK                            x       y       z     vdW  Elec       q    Type
REMARK                         _______ _______ _______ _____ _____    ______ ____
ROOT
ATOM      1  N   UNL     1      -6.804  -2.219 124.561  0.00  0.00    +0.000 N 
ATOM      2  C   UNL     1      -5.839  -2.766 123.714  0.00  0.00    +0.000 A 
ATOM      3  C   UNL     1      -4.970  -3.965 123.937  0.00  0.00    +0.000 C 
ATOM      4  N   UNL     1      -5.896  -2.124 122.559  0.00  0.00    +0.000 NA
ATOM      5  N   UNL     1      -6.907  -1.189 122.614  0.00  0.00    +0.000 NA
ATOM      6  C   UNL     1      -7.453  -1.219 123.818  0.00  0.00    +0.000 A 
ATOM      7  N   UNL     1      -8.496  -0.510 124.337  0.00  0.00    +0.000 N 
ATOM      8  C   UNL     1      -9.617   0.084 123.662  0.00  0.00    +0.000 C 
ATOM      9  C   UNL     1      -9.341   1.427 124.374  0.00  0.00    +0.000 C 
ATOM     10  C   UNL     1      -8.398   0.589 125.265  0.00  0.00    +0.000 C 
ENDROOT
BRANCH   1  14
ATOM     11  C   UNL     1      -7.985  -3.200 128.433  0.00  0.00    +0.000 A 
ATOM     12  C   UNL     1      -8.766  -3.638 127.375  0.00  0.00    +0.000 A 
ATOM     13  C   UNL     1      -8.354  -3.343 126.074  0.00  0.00    +0.000 A 
ATOM     14  C   UNL     1      -7.175  -2.624 125.867  0.00  0.00    +0.000 A 
ATOM     15  C   UNL     1      -6.472  -2.196 126.979  0.00  0.00    +0.000 A 
ATOM     16  N   UNL     1      -6.862  -2.467 128.254  0.00  0.00    +0.000 NA
BRANCH  11  18
ATOM     17  C   UNL     1      -7.583  -2.628 130.681  0.00  0.00    +0.000 C 
ATOM     18  O   UNL     1      -8.350  -3.379 129.743  0.00  0.00    +0.000 OA
ENDBRANCH  11  18
ENDBRANCH   1  14
BRANCH   9  19
ATOM     19  O   UNL     1      -8.824   2.486 123.519  0.00  0.00    +0.000 OA
BRANCH  19  20
ATOM     20  C   UNL     1      -7.805   3.274 124.005  0.00  0.00    +0.000 A 
ATOM     21  C   UNL     1      -8.055   4.073 125.125  0.00  0.00    +0.000 A 
ATOM     22  C   UNL     1      -7.107   5.020 125.536  0.00  0.00    +0.000 A 
ATOM     23  C   UNL     1      -5.895   5.140 124.857  0.00  0.00    +0.000 A 
ATOM     24  C   UNL     1      -5.641   4.331 123.754  0.00  0.00    +0.000 A 
ATOM     25  C   UNL     1      -6.601   3.416 123.322  0.00  0.00    +0.000 A 
ENDBRANCH  19  20
ENDBRANCH   9  19
TORSDOF 4
ENDMDL
MODEL 7
REMARK VINA RESULT:      -7.2      7.489      9.271
REMARK  Name = CHEMBL594361
REMARK  6 active torsions:
REMARK  status: ('A' for Active; 'I' for Inactive)
REMARK    1  A    between atoms: C_1  and  O_2
REMARK    2  A    between atoms: O_2  and  C_3
REMARK    3  A    between atoms: C_6  and  N_7
REMARK    4  A    between atoms: C_8  and  C_9
REMARK    5  A    between atoms: C_15  and  O_16
REMARK    6  A    between atoms: O_16  and  C_17
REMARK                            x       y       z     vdW  Elec       q    Type
REMARK                         _______ _______ _______ _____ _____    ______ ____
ROOT
ATOM      1  N   UNL     1      -8.032   3.284 132.425  0.00  0.00    +0.000 N 
ATOM      2  C   UNL     1      -7.335   3.660 133.574  0.00  0.00    +0.000 A 
ATOM      3  C   UNL     1      -6.366   2.856 134.385  0.00  0.00    +0.000 C 
ATOM      4  N   UNL     1      -7.553   4.947 133.784  0.00  0.00    +0.000 NA
ATOM      5  N   UNL     1      -8.350   5.438 132.772  0.00  0.00    +0.000 NA
ATOM      6  C   UNL     1      -8.664   4.447 131.955  0.00  0.00    +0.000 A 
ATOM      7  N   UNL     1      -9.400   4.443 130.806  0.00  0.00    +0.000 N 
ATOM      8  C   UNL     1      -9.626   5.508 129.869  0.00  0.00    +0.000 C 
ATOM      9  C   UNL     1     -11.149   5.257 129.943  0.00  0.00    +0.000 C 
ATOM     10  C   UNL     1     -10.746   3.950 130.660  0.00  0.00    +0.000 C 
ENDROOT
BRANCH   1  14
ATOM     11  C   UNL     1      -7.897  -0.463 130.611  0.00  0.00    +0.000 A 
ATOM     12  C   UNL     1      -8.907  -0.210 131.526  0.00  0.00    +0.000 A 
ATOM     13  C   UNL     1      -8.978   1.056 132.109  0.00  0.00    +0.000 A 
ATOM     14  C   UNL     1      -8.044   2.033 131.760  0.00  0.00    +0.000 A 
ATOM     15  C   UNL     1      -7.048   1.688 130.864  0.00  0.00    +0.000 A 
ATOM     16  N   UNL     1      -6.957   0.457 130.291  0.00  0.00    +0.000 NA
BRANCH  11  18
ATOM     17  C   UNL     1      -7.374  -2.731 130.972  0.00  0.00    +0.000 C 
ATOM     18  O   UNL     1      -7.705  -1.698 130.046  0.00  0.00    +0.000 OA
ENDBRANCH  11  18
ENDBRANCH   1  14
BRANCH   9  19
ATOM     19  O   UNL     1     -11.914   6.287 130.632  0.00  0.00    +0.000 OA
BRANCH  19  20
ATOM     20  C   UNL     1     -12.580   7.220 129.869  0.00  0.00    +0.000 A 
ATOM     21  C   UNL     1     -13.234   6.792 128.711  0.00  0.00    +0.000 A 
ATOM     22  C   UNL     1     -13.765   7.732 127.816  0.00  0.00    +0.000 A 
ATOM     23  C   UNL     1     -13.678   9.095 128.098  0.00  0.00    +0.000 A 
ATOM     24  C   UNL     1     -13.043   9.518 129.260  0.00  0.00    +0.000 A 
ATOM     25  C   UNL     1     -12.482   8.583 130.131  0.00  0.00    +0.000 A 
ENDBRANCH  19  20
ENDBRANCH   9  19
TORSDOF 4
ENDMDL
MODEL 8
REMARK VINA RESULT:      -7.1      4.308      6.136
REMARK  Name = CHEMBL594361
REMARK  6 active torsions:
REMARK  status: ('A' for Active; 'I' for Inactive)
REMARK    1  A    between atoms: C_1  and  O_2
REMARK    2  A    between atoms: O_2  and  C_3
REMARK    3  A    between atoms: C_6  and  N_7
REMARK    4  A    between atoms: C_8  and  C_9
REMARK    5  A    between atoms: C_15  and  O_16
REMARK    6  A    between atoms: O_16  and  C_17
REMARK                            x       y       z     vdW  Elec       q    Type
REMARK                         _______ _______ _______ _____ _____    ______ ____
ROOT
ATOM      1  N   UNL     1      -8.008   0.867 124.786  0.00  0.00    +0.000 N 
ATOM      2  C   UNL     1      -9.117   1.376 124.109  0.00  0.00    +0.000 A 
ATOM      3  C   UNL     1      -9.970   0.708 123.076  0.00  0.00    +0.000 C 
ATOM      4  N   UNL     1      -9.415   2.552 124.636  0.00  0.00    +0.000 NA
ATOM      5  N   UNL     1      -8.547   2.812 125.675  0.00  0.00    +0.000 NA
ATOM      6  C   UNL     1      -7.682   1.817 125.768  0.00  0.00    +0.000 A 
ATOM      7  N   UNL     1      -6.661   1.608 126.650  0.00  0.00    +0.000 N 
ATOM      8  C   UNL     1      -6.514   2.083 127.997  0.00  0.00    +0.000 C 
ATOM      9  C   UNL     1      -5.101   2.611 127.663  0.00  0.00    +0.000 C 
ATOM     10  C   UNL     1      -5.255   1.770 126.377  0.00  0.00    +0.000 C 
ENDROOT
BRANCH   1  14
ATOM     11  C   UNL     1      -6.341  -2.913 124.258  0.00  0.00    +0.000 A 
ATOM     12  C   UNL     1      -6.049  -1.928 123.328  0.00  0.00    +0.000 A 
ATOM     13  C   UNL     1      -6.575  -0.650 123.520  0.00  0.00    +0.000 A 
ATOM     14  C   UNL     1      -7.374  -0.390 124.636  0.00  0.00    +0.000 A 
ATOM     15  C   UNL     1      -7.644  -1.438 125.498  0.00  0.00    +0.000 A 
ATOM     16  N   UNL     1      -7.147  -2.692 125.323  0.00  0.00    +0.000 NA
BRANCH  11  18
ATOM     17  C   UNL     1      -4.568  -4.365 123.716  0.00  0.00    +0.000 C 
ATOM     18  O   UNL     1      -5.930  -4.213 124.110  0.00  0.00    +0.000 OA
ENDBRANCH  11  18
ENDBRANCH   1  14
BRANCH   9  19
ATOM     19  O   UNL     1      -4.980   4.061 127.603  0.00  0.00    +0.000 OA
BRANCH  19  20
ATOM     20  C   UNL     1      -3.960   4.657 128.309  0.00  0.00    +0.000 A 
ATOM     21  C   UNL     1      -3.768   4.291 129.644  0.00  0.00    +0.000 A 
ATOM     22  C   UNL     1      -2.864   5.004 130.444  0.00  0.00    +0.000 A 
ATOM     23  C   UNL     1      -2.122   6.053 129.901  0.00  0.00    +0.000 A 
ATOM     24  C   UNL     1      -2.301   6.403 128.567  0.00  0.00    +0.000 A 
ATOM     25  C   UNL     1      -3.229   5.718 127.782  0.00  0.00    +0.000 A 
ENDBRANCH  19  20
ENDBRANCH   9  19
TORSDOF 4
ENDMDL
MODEL 9
REMARK VINA RESULT:      -7.0      6.522      9.842
REMARK  Name = CHEMBL594361
REMARK  6 active torsions:
REMARK  status: ('A' for Active; 'I' for Inactive)
REMARK    1  A    between atoms: C_1  and  O_2
REMARK    2  A    between atoms: O_2  and  C_3
REMARK    3  A    between atoms: C_6  and  N_7
REMARK    4  A    between atoms: C_8  and  C_9
REMARK    5  A    between atoms: C_15  and  O_16
REMARK    6  A    between atoms: O_16  and  C_17
REMARK                            x       y       z     vdW  Elec       q    Type
REMARK                         _______ _______ _______ _____ _____    ______ ____
ROOT
ATOM      1  N   UNL     1      -7.037   4.988 130.688  0.00  0.00    +0.000 N 
ATOM      2  C   UNL     1      -5.850   5.709 130.553  0.00  0.00    +0.000 A 
ATOM      3  C   UNL     1      -5.619   7.175 130.749  0.00  0.00    +0.000 C 
ATOM      4  N   UNL     1      -4.868   4.847 130.350  0.00  0.00    +0.000 NA
ATOM      5  N   UNL     1      -5.377   3.567 130.388  0.00  0.00    +0.000 NA
ATOM      6  C   UNL     1      -6.685   3.633 130.572  0.00  0.00    +0.000 A 
ATOM      7  N   UNL     1      -7.614   2.642 130.707  0.00  0.00    +0.000 N 
ATOM      8  C   UNL     1      -7.446   1.299 131.189  0.00  0.00    +0.000 C 
ATOM      9  C   UNL     1      -8.160   0.752 129.932  0.00  0.00    +0.000 C 
ATOM     10  C   UNL     1      -8.563   2.226 129.705  0.00  0.00    +0.000 C 
ENDROOT
BRANCH   1  14
ATOM     11  C   UNL     1     -10.938   6.167 131.553  0.00  0.00    +0.000 A 
ATOM     12  C   UNL     1     -10.075   5.918 132.609  0.00  0.00    +0.000 A 
ATOM     13  C   UNL     1      -8.756   5.558 132.324  0.00  0.00    +0.000 A 
ATOM     14  C   UNL     1      -8.337   5.461 130.996  0.00  0.00    +0.000 A 
ATOM     15  C   UNL     1      -9.270   5.694 130.001  0.00  0.00    +0.000 A 
ATOM     16  N   UNL     1     -10.561   6.038 130.259  0.00  0.00    +0.000 NA
BRANCH  11  18
ATOM     17  C   UNL     1     -12.820   7.349 130.775  0.00  0.00    +0.000 C 
ATOM     18  O   UNL     1     -12.267   6.453 131.737  0.00  0.00    +0.000 OA
ENDBRANCH  11  18
ENDBRANCH   1  14
BRANCH   9  19
ATOM     19  O   UNL     1      -7.300   0.054 128.987  0.00  0.00    +0.000 OA
BRANCH  19  20
ATOM     20  C   UNL     1      -7.666  -1.212 128.589  0.00  0.00    +0.000 A 
ATOM     21  C   UNL     1      -7.941  -1.435 127.237  0.00  0.00    +0.000 A 
ATOM     22  C   UNL     1      -8.490  -2.656 126.824  0.00  0.00    +0.000 A 
ATOM     23  C   UNL     1      -8.726  -3.669 127.754  0.00  0.00    +0.000 A 
ATOM     24  C   UNL     1      -8.434  -3.452 129.096  0.00  0.00    +0.000 A 
ATOM     25  C   UNL     1      -7.923  -2.222 129.511  0.00  0.00    +0.000 A 
ENDBRANCH  19  20
ENDBRANCH   9  19
TORSDOF 4
ENDMDL
