MODEL 1
REMARK VINA RESULT:      -9.1      0.000      0.000
REMARK  Name = CHEMBL2037504
REMARK  12 active torsions:
REMARK  status: ('A' for Active; 'I' for Inactive)
REMARK    1  A    between atoms: CD1_1  and  CG1_2
REMARK    2  A    between atoms: CG1_2  and  CB_3
REMARK    3  A    between atoms: CB_3  and  CG2_4
REMARK    4  A    between atoms: CB_3  and  CA_5
REMARK    5  A    between atoms: C_9  and  C_10
REMARK    6  A    between atoms: N_21  and  C_22
REMARK    7  A    between atoms: C_22  and  C_23
REMARK    8  A    between atoms: C_22  and  C_28
REMARK    9  A    between atoms: N_25  and  C_26
REMARK   10  A    between atoms: N_25  and  C_27
REMARK   11  A    between atoms: C_30  and  C_31
REMARK   12  A    between atoms: C_34  and  C_35
REMARK                            x       y       z     vdW  Elec       q    Type
REMARK                         _______ _______ _______ _____ _____    ______ ____
ROOT
ATOM      1  CA  ILE A   2      -8.620   2.493 129.816  0.00  0.00    +0.000 C 
ATOM      2  C   ILE A   2      -8.003   1.237 129.109  0.00  0.00    +0.000 C 
ATOM      3  O   ILE A   2      -7.959   0.092 129.489  0.00  0.00    +0.000 OA
ATOM      4  N   UNK A   1      -7.484   1.566 127.913  0.00  0.00    +0.000 N 
ATOM      5  C   UNK A   1      -8.037   2.707 127.238  0.00  0.00    +0.000 C 
ATOM      6  C   UNK A   1      -7.866   3.964 128.088  0.00  0.00    +0.000 C 
ATOM      7  O   UNK A   1      -7.658   5.020 127.548  0.00  0.00    +0.000 OA
ATOM      8  N   ILE A   2      -8.013   3.736 129.446  0.00  0.00    +0.000 N 
ATOM      9  H   UNK A   1      -7.014   0.790 127.466  0.00  0.00    +0.000 HD
ENDROOT
BRANCH   5  10
ATOM     10  C   UNK A   1      -7.275   3.025 125.969  0.00  0.00    +0.000 C 
ATOM     11  C   UNK A   1      -8.251   3.446 124.880  0.00  0.00    +0.000 C 
ATOM     12  C   UNK A   1      -8.535   2.125 124.229  0.00  0.00    +0.000 A 
ATOM     13  C   UNK A   1      -9.667   1.776 123.521  0.00  0.00    +0.000 A 
ATOM     14  C   UNK A   1      -9.811   0.445 123.126  0.00  0.00    +0.000 A 
ATOM     15  C   UNK A   1      -8.849  -0.520 123.468  0.00  0.00    +0.000 A 
ATOM     16  C   UNK A   1      -7.726  -0.173 124.218  0.00  0.00    +0.000 A 
ATOM     17  C   UNK A   1      -7.574   1.157 124.573  0.00  0.00    +0.000 A 
ATOM     18  C   UNK A   1      -6.533   1.747 125.470  0.00  0.00    +0.000 C 
ENDBRANCH   5  10
BRANCH   1  19
ATOM     19  CB  ILE A   2      -8.297   2.288 131.234  0.00  0.00    +0.000 C 
ATOM     20  CG2 ILE A   2      -9.890   1.656 131.935  0.00  0.00    +0.000 C 
BRANCH  19  22
ATOM     21  CD1 ILE A   2      -5.148   2.605 132.458  0.00  0.00    +0.000 C 
ATOM     22  CG1 ILE A   2      -6.462   1.718 131.659  0.00  0.00    +0.000 C 
ENDBRANCH  19  22
ENDBRANCH   1  19
BRANCH   8  23
ATOM     23  C   UNK A   0      -7.800   4.736 130.512  0.00  0.00    +0.000 C 
BRANCH  23  24
ATOM     24  C   UNK A   0      -9.082   5.519 130.864  0.00  0.00    +0.000 A 
ATOM     25  C   UNK A   0     -10.037   5.727 129.888  0.00  0.00    +0.000 A 
ATOM     26  C   UNK A   0     -11.301   6.190 130.158  0.00  0.00    +0.000 A 
ATOM     27  C   UNK A   0     -12.218   6.338 128.992  0.00  0.00    +0.000 C 
ATOM     28  C   UNK A   0     -11.598   6.438 131.481  0.00  0.00    +0.000 A 
ATOM     29  N   UNK A   0     -10.690   6.354 132.491  0.00  0.00    +0.000 NA
ATOM     30  C   UNK A   0      -9.435   5.907 132.187  0.00  0.00    +0.000 A 
ATOM     31  C   UNK A   0      -8.499   5.711 133.371  0.00  0.00    +0.000 C 
ENDBRANCH  23  24
BRANCH  23  32
ATOM     32  C   UNK A   0      -6.266   5.759 130.360  0.00  0.00    +0.000 C 
ATOM     33  O   UNK A   0      -6.372   6.957 130.679  0.00  0.00    +0.000 OA
ATOM     34  N   UNK A   0      -4.767   5.362 129.853  0.00  0.00    +0.000 N 
ATOM     35  C   UNK A   0      -3.843   3.899 129.209  0.00  0.00    +0.000 C 
ATOM     36  C   UNK A   0      -4.025   6.613 129.673  0.00  0.00    +0.000 C 
ENDBRANCH  23  32
ENDBRANCH   8  23
TORSDOF 6
ENDMDL
MODEL 2
REMARK VINA RESULT:      -9.1      3.260      5.601
REMARK  Name = CHEMBL2037504
REMARK  12 active torsions:
REMARK  status: ('A' for Active; 'I' for Inactive)
REMARK    1  A    between atoms: CD1_1  and  CG1_2
REMARK    2  A    between atoms: CG1_2  and  CB_3
REMARK    3  A    between atoms: CB_3  and  CG2_4
REMARK    4  A    between atoms: CB_3  and  CA_5
REMARK    5  A    between atoms: C_9  and  C_10
REMARK    6  A    between atoms: N_21  and  C_22
REMARK    7  A    between atoms: C_22  and  C_23
REMARK    8  A    between atoms: C_22  and  C_28
REMARK    9  A    between atoms: N_25  and  C_26
REMARK   10  A    between atoms: N_25  and  C_27
REMARK   11  A    between atoms: C_30  and  C_31
REMARK   12  A    between atoms: C_34  and  C_35
REMARK                            x       y       z     vdW  Elec       q    Type
REMARK                         _______ _______ _______ _____ _____    ______ ____
ROOT
ATOM      1  CA  ILE A   2      -7.048   2.044 127.840  0.00  0.00    +0.000 C 
ATOM      2  C   ILE A   2      -8.276   1.188 127.372  0.00  0.00    +0.000 C 
ATOM      3  O   ILE A   2      -9.386   1.550 127.069  0.00  0.00    +0.000 OA
ATOM      4  N   UNK A   1      -7.956  -0.117 127.314  0.00  0.00    +0.000 N 
ATOM      5  C   UNK A   1      -6.579  -0.457 127.094  0.00  0.00    +0.000 C 
ATOM      6  C   UNK A   1      -5.706   0.101 128.216  0.00  0.00    +0.000 C 
ATOM      7  O   UNK A   1      -4.745  -0.525 128.585  0.00  0.00    +0.000 OA
ATOM      8  N   ILE A   2      -6.121   1.340 128.675  0.00  0.00    +0.000 N 
ATOM      9  H   UNK A   1      -8.749  -0.701 127.085  0.00  0.00    +0.000 HD
ENDROOT
BRANCH   5  10
ATOM     10  C   UNK A   1      -6.356  -1.952 127.174  0.00  0.00    +0.000 C 
ATOM     11  C   UNK A   1      -5.745  -2.448 125.871  0.00  0.00    +0.000 C 
ATOM     12  C   UNK A   1      -6.980  -2.800 125.097  0.00  0.00    +0.000 A 
ATOM     13  C   UNK A   1      -7.113  -2.845 123.724  0.00  0.00    +0.000 A 
ATOM     14  C   UNK A   1      -8.388  -3.042 123.194  0.00  0.00    +0.000 A 
ATOM     15  C   UNK A   1      -9.511  -3.159 124.031  0.00  0.00    +0.000 A 
ATOM     16  C   UNK A   1      -9.379  -3.075 125.416  0.00  0.00    +0.000 A 
ATOM     17  C   UNK A   1      -8.104  -2.916 125.934  0.00  0.00    +0.000 A 
ATOM     18  C   UNK A   1      -7.724  -2.677 127.360  0.00  0.00    +0.000 C 
ENDBRANCH   5  10
BRANCH   1  19
ATOM     19  CB  ILE A   2      -7.650   3.083 128.687  0.00  0.00    +0.000 C 
ATOM     20  CG2 ILE A   2      -7.636   4.573 127.589  0.00  0.00    +0.000 C 
BRANCH  19  22
ATOM     21  CD1 ILE A   2      -8.933   1.440 131.364  0.00  0.00    +0.000 C 
ATOM     22  CG1 ILE A   2      -9.045   2.507 129.950  0.00  0.00    +0.000 C 
ENDBRANCH  19  22
ENDBRANCH   1  19
BRANCH   8  23
ATOM     23  C   UNK A   0      -5.538   2.072 129.816  0.00  0.00    +0.000 C 
BRANCH  23  24
ATOM     24  C   UNK A   0      -4.417   3.045 129.395  0.00  0.00    +0.000 A 
ATOM     25  C   UNK A   0      -3.547   2.679 128.387  0.00  0.00    +0.000 A 
ATOM     26  C   UNK A   0      -2.683   3.558 127.780  0.00  0.00    +0.000 A 
ATOM     27  C   UNK A   0      -1.826   3.004 126.693  0.00  0.00    +0.000 C 
ATOM     28  C   UNK A   0      -2.725   4.864 128.217  0.00  0.00    +0.000 A 
ATOM     29  N   UNK A   0      -3.479   5.289 129.268  0.00  0.00    +0.000 NA
ATOM     30  C   UNK A   0      -4.315   4.385 129.863  0.00  0.00    +0.000 A 
ATOM     31  C   UNK A   0      -5.227   4.943 130.946  0.00  0.00    +0.000 C 
ENDBRANCH  23  24
BRANCH  23  32
ATOM     32  C   UNK A   0      -5.178   1.058 131.323  0.00  0.00    +0.000 C 
ATOM     33  O   UNK A   0      -4.346   1.532 132.116  0.00  0.00    +0.000 OA
ATOM     34  N   UNK A   0      -5.762  -0.390 131.795  0.00  0.00    +0.000 N 
ATOM     35  C   UNK A   0      -6.927  -1.696 131.207  0.00  0.00    +0.000 C 
ATOM     36  C   UNK A   0      -4.933  -0.846 132.916  0.00  0.00    +0.000 C 
ENDBRANCH  23  32
ENDBRANCH   8  23
TORSDOF 6
ENDMDL
MODEL 3
REMARK VINA RESULT:      -9.1      2.486      6.328
REMARK  Name = CHEMBL2037504
REMARK  12 active torsions:
REMARK  status: ('A' for Active; 'I' for Inactive)
REMARK    1  A    between atoms: CD1_1  and  CG1_2
REMARK    2  A    between atoms: CG1_2  and  CB_3
REMARK    3  A    between atoms: CB_3  and  CG2_4
REMARK    4  A    between atoms: CB_3  and  CA_5
REMARK    5  A    between atoms: C_9  and  C_10
REMARK    6  A    between atoms: N_21  and  C_22
REMARK    7  A    between atoms: C_22  and  C_23
REMARK    8  A    between atoms: C_22  and  C_28
REMARK    9  A    between atoms: N_25  and  C_26
REMARK   10  A    between atoms: N_25  and  C_27
REMARK   11  A    between atoms: C_30  and  C_31
REMARK   12  A    between atoms: C_34  and  C_35
REMARK                            x       y       z     vdW  Elec       q    Type
REMARK                         _______ _______ _______ _____ _____    ______ ____
ROOT
ATOM      1  CA  ILE A   2      -7.929   2.929 128.714  0.00  0.00    +0.000 C 
ATOM      2  C   ILE A   2      -8.218   4.299 128.008  0.00  0.00    +0.000 C 
ATOM      3  O   ILE A   2      -8.106   4.597 126.844  0.00  0.00    +0.000 OA
ATOM      4  N   UNK A   1      -8.661   5.210 128.894  0.00  0.00    +0.000 N 
ATOM      5  C   UNK A   1      -9.330   4.727 130.069  0.00  0.00    +0.000 C 
ATOM      6  C   UNK A   1      -8.401   3.827 130.879  0.00  0.00    +0.000 C 
ATOM      7  O   UNK A   1      -8.469   3.835 132.082  0.00  0.00    +0.000 OA
ATOM      8  N   ILE A   2      -7.572   3.041 130.096  0.00  0.00    +0.000 N 
ATOM      9  H   UNK A   1      -8.787   6.124 128.480  0.00  0.00    +0.000 HD
ENDROOT
BRANCH   5  10
ATOM     10  C   UNK A   1      -9.662   5.854 131.023  0.00  0.00    +0.000 C 
ATOM     11  C   UNK A   1     -11.162   5.883 131.278  0.00  0.00    +0.000 C 
ATOM     12  C   UNK A   1     -11.613   6.828 130.204  0.00  0.00    +0.000 A 
ATOM     13  C   UNK A   1     -12.863   6.887 129.623  0.00  0.00    +0.000 A 
ATOM     14  C   UNK A   1     -13.039   7.733 128.528  0.00  0.00    +0.000 A 
ATOM     15  C   UNK A   1     -11.968   8.480 128.009  0.00  0.00    +0.000 A 
ATOM     16  C   UNK A   1     -10.697   8.388 128.573  0.00  0.00    +0.000 A 
ATOM     17  C   UNK A   1     -10.540   7.574 129.682  0.00  0.00    +0.000 A 
ATOM     18  C   UNK A   1      -9.265   7.219 130.379  0.00  0.00    +0.000 C 
ENDBRANCH   5  10
BRANCH   1  19
ATOM     19  CB  ILE A   2      -6.732   2.428 128.024  0.00  0.00    +0.000 C 
ATOM     20  CG2 ILE A   2      -7.415   1.122 126.904  0.00  0.00    +0.000 C 
BRANCH  19  22
ATOM     21  CD1 ILE A   2      -4.383   4.021 126.165  0.00  0.00    +0.000 C 
ATOM     22  CG1 ILE A   2      -5.303   3.730 127.655  0.00  0.00    +0.000 C 
ENDBRANCH  19  22
ENDBRANCH   1  19
BRANCH   8  23
ATOM     23  C   UNK A   0      -6.503   2.155 130.599  0.00  0.00    +0.000 C 
BRANCH  23  24
ATOM     24  C   UNK A   0      -7.049   0.897 131.306  0.00  0.00    +0.000 A 
ATOM     25  C   UNK A   0      -7.328  -0.231 130.560  0.00  0.00    +0.000 A 
ATOM     26  C   UNK A   0      -7.581  -1.460 131.119  0.00  0.00    +0.000 A 
ATOM     27  C   UNK A   0      -7.843  -2.580 130.170  0.00  0.00    +0.000 C 
ATOM     28  C   UNK A   0      -7.533  -1.535 132.494  0.00  0.00    +0.000 A 
ATOM     29  N   UNK A   0      -7.362  -0.456 133.307  0.00  0.00    +0.000 NA
ATOM     30  C   UNK A   0      -7.131   0.757 132.720  0.00  0.00    +0.000 A 
ATOM     31  C   UNK A   0      -6.821   1.902 133.673  0.00  0.00    +0.000 C 
ENDBRANCH  23  24
BRANCH  23  32
ATOM     32  C   UNK A   0      -5.099   2.998 131.462  0.00  0.00    +0.000 C 
ATOM     33  O   UNK A   0      -4.106   2.293 131.710  0.00  0.00    +0.000 OA
ATOM     34  N   UNK A   0      -4.939   4.537 131.980  0.00  0.00    +0.000 N 
ATOM     35  C   UNK A   0      -5.904   6.109 132.035  0.00  0.00    +0.000 C 
ATOM     36  C   UNK A   0      -3.748   4.583 132.834  0.00  0.00    +0.000 C 
ENDBRANCH  23  32
ENDBRANCH   8  23
TORSDOF 6
ENDMDL
MODEL 4
REMARK VINA RESULT:      -9.0      2.241      7.520
REMARK  Name = CHEMBL2037504
REMARK  12 active torsions:
REMARK  status: ('A' for Active; 'I' for Inactive)
REMARK    1  A    between atoms: CD1_1  and  CG1_2
REMARK    2  A    between atoms: CG1_2  and  CB_3
REMARK    3  A    between atoms: CB_3  and  CG2_4
REMARK    4  A    between atoms: CB_3  and  CA_5
REMARK    5  A    between atoms: C_9  and  C_10
REMARK    6  A    between atoms: N_21  and  C_22
REMARK    7  A    between atoms: C_22  and  C_23
REMARK    8  A    between atoms: C_22  and  C_28
REMARK    9  A    between atoms: N_25  and  C_26
REMARK   10  A    between atoms: N_25  and  C_27
REMARK   11  A    between atoms: C_30  and  C_31
REMARK   12  A    between atoms: C_34  and  C_35
REMARK                            x       y       z     vdW  Elec       q    Type
REMARK                         _______ _______ _______ _____ _____    ______ ____
ROOT
ATOM      1  CA  ILE A   2      -6.514   3.019 126.808  0.00  0.00    +0.000 C 
ATOM      2  C   ILE A   2      -6.113   4.206 127.752  0.00  0.00    +0.000 C 
ATOM      3  O   ILE A   2      -5.390   5.146 127.530  0.00  0.00    +0.000 OA
ATOM      4  N   UNK A   1      -6.713   4.089 128.950  0.00  0.00    +0.000 N 
ATOM      5  C   UNK A   1      -7.955   3.370 129.006  0.00  0.00    +0.000 C 
ATOM      6  C   UNK A   1      -7.760   1.931 128.534  0.00  0.00    +0.000 C 
ATOM      7  O   UNK A   1      -8.397   1.048 129.049  0.00  0.00    +0.000 OA
ATOM      8  N   ILE A   2      -6.854   1.809 127.493  0.00  0.00    +0.000 N 
ATOM      9  H   UNK A   1      -6.417   4.801 129.604  0.00  0.00    +0.000 HD
ENDROOT
BRANCH   5  10
ATOM     10  C   UNK A   1      -8.446   3.218 130.430  0.00  0.00    +0.000 C 
ATOM     11  C   UNK A   1      -9.959   3.060 130.434  0.00  0.00    +0.000 C 
ATOM     12  C   UNK A   1     -10.393   4.489 130.570  0.00  0.00    +0.000 A 
ATOM     13  C   UNK A   1     -11.593   5.034 130.163  0.00  0.00    +0.000 A 
ATOM     14  C   UNK A   1     -11.745   6.419 130.236  0.00  0.00    +0.000 A 
ATOM     15  C   UNK A   1     -10.695   7.240 130.679  0.00  0.00    +0.000 A 
ATOM     16  C   UNK A   1      -9.469   6.691 131.053  0.00  0.00    +0.000 A 
ATOM     17  C   UNK A   1      -9.341   5.313 131.012  0.00  0.00    +0.000 A 
ATOM     18  C   UNK A   1      -8.103   4.506 131.242  0.00  0.00    +0.000 C 
ENDBRANCH   5  10
BRANCH   1  19
ATOM     19  CB  ILE A   2      -5.278   2.733 126.066  0.00  0.00    +0.000 C 
ATOM     20  CG2 ILE A   2      -5.591   3.522 124.421  0.00  0.00    +0.000 C 
BRANCH  19  22
ATOM     21  CD1 ILE A   2      -1.949   3.091 126.610  0.00  0.00    +0.000 C 
ATOM     22  CG1 ILE A   2      -3.606   2.684 127.101  0.00  0.00    +0.000 C 
ENDBRANCH  19  22
ENDBRANCH   1  19
BRANCH   8  23
ATOM     23  C   UNK A   0      -6.389   0.537 126.905  0.00  0.00    +0.000 C 
BRANCH  23  24
ATOM     24  C   UNK A   0      -7.235   0.092 125.694  0.00  0.00    +0.000 A 
ATOM     25  C   UNK A   0      -8.437   0.720 125.441  0.00  0.00    +0.000 A 
ATOM     26  C   UNK A   0      -9.135   0.568 124.267  0.00  0.00    +0.000 A 
ATOM     27  C   UNK A   0     -10.407   1.337 124.146  0.00  0.00    +0.000 C 
ATOM     28  C   UNK A   0      -8.568  -0.251 123.315  0.00  0.00    +0.000 A 
ATOM     29  N   UNK A   0      -7.440  -0.984 123.518  0.00  0.00    +0.000 NA
ATOM     30  C   UNK A   0      -6.778  -0.824 124.704  0.00  0.00    +0.000 A 
ATOM     31  C   UNK A   0      -5.457  -1.568 124.828  0.00  0.00    +0.000 C 
ENDBRANCH  23  24
BRANCH  23  32
ATOM     32  C   UNK A   0      -5.972  -0.802 128.113  0.00  0.00    +0.000 C 
ATOM     33  O   UNK A   0      -4.933  -0.638 128.776  0.00  0.00    +0.000 OA
ATOM     34  N   UNK A   0      -6.739  -2.201 128.457  0.00  0.00    +0.000 N 
ATOM     35  C   UNK A   0      -8.228  -3.155 127.928  0.00  0.00    +0.000 C 
ATOM     36  C   UNK A   0      -5.829  -3.000 129.283  0.00  0.00    +0.000 C 
ENDBRANCH  23  32
ENDBRANCH   8  23
TORSDOF 6
ENDMDL
MODEL 5
REMARK VINA RESULT:      -8.9      2.083      4.369
REMARK  Name = CHEMBL2037504
REMARK  12 active torsions:
REMARK  status: ('A' for Active; 'I' for Inactive)
REMARK    1  A    between atoms: CD1_1  and  CG1_2
REMARK    2  A    between atoms: CG1_2  and  CB_3
REMARK    3  A    between atoms: CB_3  and  CG2_4
REMARK    4  A    between atoms: CB_3  and  CA_5
REMARK    5  A    between atoms: C_9  and  C_10
REMARK    6  A    between atoms: N_21  and  C_22
REMARK    7  A    between atoms: C_22  and  C_23
REMARK    8  A    between atoms: C_22  and  C_28
REMARK    9  A    between atoms: N_25  and  C_26
REMARK   10  A    between atoms: N_25  and  C_27
REMARK   11  A    between atoms: C_30  and  C_31
REMARK   12  A    between atoms: C_34  and  C_35
REMARK                            x       y       z     vdW  Elec       q    Type
REMARK                         _______ _______ _______ _____ _____    ______ ____
ROOT
ATOM      1  CA  ILE A   2      -5.685   2.376 128.339  0.00  0.00    +0.000 C 
ATOM      2  C   ILE A   2      -5.105   2.163 126.898  0.00  0.00    +0.000 C 
ATOM      3  O   ILE A   2      -3.965   2.255 126.513  0.00  0.00    +0.000 OA
ATOM      4  N   UNK A   1      -6.078   1.820 126.036  0.00  0.00    +0.000 N 
ATOM      5  C   UNK A   1      -7.237   1.159 126.567  0.00  0.00    +0.000 C 
ATOM      6  C   UNK A   1      -7.933   2.048 127.595  0.00  0.00    +0.000 C 
ATOM      7  O   UNK A   1      -9.134   2.022 127.683  0.00  0.00    +0.000 OA
ATOM      8  N   ILE A   2      -7.056   2.789 128.369  0.00  0.00    +0.000 N 
ATOM      9  H   UNK A   1      -5.746   1.747 125.083  0.00  0.00    +0.000 HD
ENDROOT
BRANCH   5  10
ATOM     10  C   UNK A   1      -8.292   0.945 125.503  0.00  0.00    +0.000 C 
ATOM     11  C   UNK A   1      -9.022  -0.365 125.764  0.00  0.00    +0.000 C 
ATOM     12  C   UNK A   1      -8.192  -1.317 124.954  0.00  0.00    +0.000 A 
ATOM     13  C   UNK A   1      -8.052  -2.674 125.157  0.00  0.00    +0.000 A 
ATOM     14  C   UNK A   1      -7.109  -3.360 124.391  0.00  0.00    +0.000 A 
ATOM     15  C   UNK A   1      -6.301  -2.684 123.462  0.00  0.00    +0.000 A 
ATOM     16  C   UNK A   1      -6.417  -1.306 123.286  0.00  0.00    +0.000 A 
ATOM     17  C   UNK A   1      -7.381  -0.640 124.025  0.00  0.00    +0.000 A 
ATOM     18  C   UNK A   1      -7.610   0.835 124.104  0.00  0.00    +0.000 C 
ENDBRANCH   5  10
BRANCH   1  19
ATOM     19  CB  ILE A   2      -4.908   3.508 128.863  0.00  0.00    +0.000 C 
ATOM     20  CG2 ILE A   2      -3.805   2.708 130.117  0.00  0.00    +0.000 C 
BRANCH  19  22
ATOM     21  CD1 ILE A   2      -3.598   6.475 127.867  0.00  0.00    +0.000 C 
ATOM     22  CG1 ILE A   2      -4.477   4.955 127.602  0.00  0.00    +0.000 C 
ENDBRANCH  19  22
ENDBRANCH   1  19
BRANCH   8  23
ATOM     23  C   UNK A   0      -7.441   3.807 129.366  0.00  0.00    +0.000 C 
BRANCH  23  24
ATOM     24  C   UNK A   0      -7.666   3.213 130.773  0.00  0.00    +0.000 A 
ATOM     25  C   UNK A   0      -8.228   1.958 130.895  0.00  0.00    +0.000 A 
ATOM     26  C   UNK A   0      -8.244   1.251 132.072  0.00  0.00    +0.000 A 
ATOM     27  C   UNK A   0      -8.872  -0.101 132.027  0.00  0.00    +0.000 C 
ATOM     28  C   UNK A   0      -7.649   1.851 133.161  0.00  0.00    +0.000 A 
ATOM     29  N   UNK A   0      -7.160   3.121 133.153  0.00  0.00    +0.000 NA
ATOM     30  C   UNK A   0      -7.175   3.806 131.970  0.00  0.00    +0.000 A 
ATOM     31  C   UNK A   0      -6.501   5.170 131.988  0.00  0.00    +0.000 C 
ENDBRANCH  23  24
BRANCH  23  32
ATOM     32  C   UNK A   0      -8.712   5.033 128.814  0.00  0.00    +0.000 C 
ATOM     33  O   UNK A   0      -8.735   5.288 127.597  0.00  0.00    +0.000 OA
ATOM     34  N   UNK A   0      -9.823   5.871 129.665  0.00  0.00    +0.000 N 
ATOM     35  C   UNK A   0     -10.385   6.089 131.410  0.00  0.00    +0.000 C 
ATOM     36  C   UNK A   0     -10.372   6.895 128.770  0.00  0.00    +0.000 C 
ENDBRANCH  23  32
ENDBRANCH   8  23
TORSDOF 6
ENDMDL
MODEL 6
REMARK VINA RESULT:      -8.7      2.312      6.790
REMARK  Name = CHEMBL2037504
REMARK  12 active torsions:
REMARK  status: ('A' for Active; 'I' for Inactive)
REMARK    1  A    between atoms: CD1_1  and  CG1_2
REMARK    2  A    between atoms: CG1_2  and  CB_3
REMARK    3  A    between atoms: CB_3  and  CG2_4
REMARK    4  A    between atoms: CB_3  and  CA_5
REMARK    5  A    between atoms: C_9  and  C_10
REMARK    6  A    between atoms: N_21  and  C_22
REMARK    7  A    between atoms: C_22  and  C_23
REMARK    8  A    between atoms: C_22  and  C_28
REMARK    9  A    between atoms: N_25  and  C_26
REMARK   10  A    between atoms: N_25  and  C_27
REMARK   11  A    between atoms: C_30  and  C_31
REMARK   12  A    between atoms: C_34  and  C_35
REMARK                            x       y       z     vdW  Elec       q    Type
REMARK                         _______ _______ _______ _____ _____    ______ ____
ROOT
ATOM      1  CA  ILE A   2      -7.273   5.595 131.421  0.00  0.00    +0.000 C 
ATOM      2  C   ILE A   2      -8.596   5.991 132.164  0.00  0.00    +0.000 C 
ATOM      3  O   ILE A   2      -8.747   6.393 133.291  0.00  0.00    +0.000 OA
ATOM      4  N   UNK A   1      -9.661   5.847 131.355  0.00  0.00    +0.000 N 
ATOM      5  C   UNK A   1      -9.443   5.953 129.940  0.00  0.00    +0.000 C 
ATOM      6  C   UNK A   1      -8.458   4.884 129.471  0.00  0.00    +0.000 C 
ATOM      7  O   UNK A   1      -8.600   4.385 128.383  0.00  0.00    +0.000 OA
ATOM      8  N   ILE A   2      -7.447   4.626 130.381  0.00  0.00    +0.000 N 
ATOM      9  H   UNK A   1     -10.536   6.026 131.829  0.00  0.00    +0.000 HD
ENDROOT
BRANCH   5  10
ATOM     10  C   UNK A   1     -10.703   5.649 129.159  0.00  0.00    +0.000 C 
ATOM     11  C   UNK A   1     -10.963   6.764 128.156  0.00  0.00    +0.000 C 
ATOM     12  C   UNK A   1     -11.835   7.675 128.967  0.00  0.00    +0.000 A 
ATOM     13  C   UNK A   1     -11.999   9.035 128.796  0.00  0.00    +0.000 A 
ATOM     14  C   UNK A   1     -12.735   9.733 129.754  0.00  0.00    +0.000 A 
ATOM     15  C   UNK A   1     -13.267   9.079 130.878  0.00  0.00    +0.000 A 
ATOM     16  C   UNK A   1     -13.067   7.713 131.068  0.00  0.00    +0.000 A 
ATOM     17  C   UNK A   1     -12.367   7.022 130.093  0.00  0.00    +0.000 A 
ATOM     18  C   UNK A   1     -11.922   5.595 130.131  0.00  0.00    +0.000 C 
ENDBRANCH   5  10
BRANCH   1  19
ATOM     19  CB  ILE A   2      -6.474   4.934 132.463  0.00  0.00    +0.000 C 
ATOM     20  CG2 ILE A   2      -5.243   6.235 132.929  0.00  0.00    +0.000 C 
BRANCH  19  22
ATOM     21  CD1 ILE A   2      -8.980   2.857 133.420  0.00  0.00    +0.000 C 
ATOM     22  CG1 ILE A   2      -7.412   3.661 133.634  0.00  0.00    +0.000 C 
ENDBRANCH  19  22
ENDBRANCH   1  19
BRANCH   8  23
ATOM     23  C   UNK A   0      -6.418   3.576 130.246  0.00  0.00    +0.000 C 
BRANCH  23  24
ATOM     24  C   UNK A   0      -5.364   3.904 129.168  0.00  0.00    +0.000 A 
ATOM     25  C   UNK A   0      -5.773   4.133 127.870  0.00  0.00    +0.000 A 
ATOM     26  C   UNK A   0      -4.953   4.665 126.904  0.00  0.00    +0.000 A 
ATOM     27  C   UNK A   0      -5.559   4.868 125.557  0.00  0.00    +0.000 C 
ATOM     28  C   UNK A   0      -3.670   4.985 127.292  0.00  0.00    +0.000 A 
ATOM     29  N   UNK A   0      -3.156   4.703 128.521  0.00  0.00    +0.000 NA
ATOM     30  C   UNK A   0      -3.992   4.157 129.454  0.00  0.00    +0.000 A 
ATOM     31  C   UNK A   0      -3.403   3.981 130.846  0.00  0.00    +0.000 C 
ENDBRANCH  23  24
BRANCH  23  32
ATOM     32  C   UNK A   0      -7.044   1.834 130.234  0.00  0.00    +0.000 C 
ATOM     33  O   UNK A   0      -6.858   1.178 131.274  0.00  0.00    +0.000 OA
ATOM     34  N   UNK A   0      -7.800   0.983 129.066  0.00  0.00    +0.000 N 
ATOM     35  C   UNK A   0      -8.378   1.192 127.325  0.00  0.00    +0.000 C 
ATOM     36  C   UNK A   0      -7.817  -0.419 129.494  0.00  0.00    +0.000 C 
ENDBRANCH  23  32
ENDBRANCH   8  23
TORSDOF 6
ENDMDL
MODEL 7
REMARK VINA RESULT:      -8.6      3.420      5.436
REMARK  Name = CHEMBL2037504
REMARK  12 active torsions:
REMARK  status: ('A' for Active; 'I' for Inactive)
REMARK    1  A    between atoms: CD1_1  and  CG1_2
REMARK    2  A    between atoms: CG1_2  and  CB_3
REMARK    3  A    between atoms: CB_3  and  CG2_4
REMARK    4  A    between atoms: CB_3  and  CA_5
REMARK    5  A    between atoms: C_9  and  C_10
REMARK    6  A    between atoms: N_21  and  C_22
REMARK    7  A    between atoms: C_22  and  C_23
REMARK    8  A    between atoms: C_22  and  C_28
REMARK    9  A    between atoms: N_25  and  C_26
REMARK   10  A    between atoms: N_25  and  C_27
REMARK   11  A    between atoms: C_30  and  C_31
REMARK   12  A    between atoms: C_34  and  C_35
REMARK                            x       y       z     vdW  Elec       q    Type
REMARK                         _______ _______ _______ _____ _____    ______ ____
ROOT
ATOM      1  CA  ILE A   2      -7.291   2.766 130.058  0.00  0.00    +0.000 C 
ATOM      2  C   ILE A   2      -8.207   1.524 130.335  0.00  0.00    +0.000 C 
ATOM      3  O   ILE A   2      -9.385   1.487 130.593  0.00  0.00    +0.000 OA
ATOM      4  N   UNK A   1      -7.506   0.380 130.237  0.00  0.00    +0.000 N 
ATOM      5  C   UNK A   1      -6.344   0.380 129.393  0.00  0.00    +0.000 C 
ATOM      6  C   UNK A   1      -5.329   1.410 129.882  0.00  0.00    +0.000 C 
ATOM      7  O   UNK A   1      -4.152   1.177 129.778  0.00  0.00    +0.000 OA
ATOM      8  N   ILE A   2      -5.910   2.565 130.380  0.00  0.00    +0.000 N 
ATOM      9  H   UNK A   1      -8.054  -0.434 130.482  0.00  0.00    +0.000 HD
ENDROOT
BRANCH   5  10
ATOM     10  C   UNK A   1      -5.595  -0.933 129.478  0.00  0.00    +0.000 C 
ATOM     11  C   UNK A   1      -5.314  -1.452 128.075  0.00  0.00    +0.000 C 
ATOM     12  C   UNK A   1      -6.526  -2.304 127.842  0.00  0.00    +0.000 A 
ATOM     13  C   UNK A   1      -7.079  -2.643 126.624  0.00  0.00    +0.000 A 
ATOM     14  C   UNK A   1      -8.301  -3.316 126.622  0.00  0.00    +0.000 A 
ATOM     15  C   UNK A   1      -8.967  -3.612 127.822  0.00  0.00    +0.000 A 
ATOM     16  C   UNK A   1      -8.425  -3.234 129.050  0.00  0.00    +0.000 A 
ATOM     17  C   UNK A   1      -7.195  -2.599 129.043  0.00  0.00    +0.000 A 
ATOM     18  C   UNK A   1      -6.477  -1.993 130.207  0.00  0.00    +0.000 C 
ENDBRANCH   5  10
BRANCH   1  19
ATOM     19  CB  ILE A   2      -7.785   3.779 131.000  0.00  0.00    +0.000 C 
ATOM     20  CG2 ILE A   2      -8.789   4.897 129.919  0.00  0.00    +0.000 C 
BRANCH  19  22
ATOM     21  CD1 ILE A   2      -9.227   3.896 134.069  0.00  0.00    +0.000 C 
ATOM     22  CG1 ILE A   2      -8.172   3.180 132.834  0.00  0.00    +0.000 C 
ENDBRANCH  19  22
ENDBRANCH   1  19
BRANCH   8  23
ATOM     23  C   UNK A   0      -5.187   3.684 131.015  0.00  0.00    +0.000 C 
BRANCH  23  24
ATOM     24  C   UNK A   0      -4.399   4.541 130.002  0.00  0.00    +0.000 A 
ATOM     25  C   UNK A   0      -3.579   3.918 129.083  0.00  0.00    +0.000 A 
ATOM     26  C   UNK A   0      -3.035   4.563 127.999  0.00  0.00    +0.000 A 
ATOM     27  C   UNK A   0      -2.188   3.738 127.091  0.00  0.00    +0.000 C 
ATOM     28  C   UNK A   0      -3.357   5.894 127.848  0.00  0.00    +0.000 A 
ATOM     29  N   UNK A   0      -4.076   6.609 128.756  0.00  0.00    +0.000 NA
ATOM     30  C   UNK A   0      -4.588   5.942 129.834  0.00  0.00    +0.000 A 
ATOM     31  C   UNK A   0      -5.489   6.759 130.749  0.00  0.00    +0.000 C 
ENDBRANCH  23  24
BRANCH  23  32
ATOM     32  C   UNK A   0      -4.280   3.274 132.576  0.00  0.00    +0.000 C 
ATOM     33  O   UNK A   0      -3.330   2.478 132.464  0.00  0.00    +0.000 OA
ATOM     34  N   UNK A   0      -4.523   3.770 134.110  0.00  0.00    +0.000 N 
ATOM     35  C   UNK A   0      -5.672   4.848 135.073  0.00  0.00    +0.000 C 
ATOM     36  C   UNK A   0      -3.697   2.923 134.975  0.00  0.00    +0.000 C 
ENDBRANCH  23  32
ENDBRANCH   8  23
TORSDOF 6
ENDMDL
MODEL 8
REMARK VINA RESULT:      -8.6      3.364      6.676
REMARK  Name = CHEMBL2037504
REMARK  12 active torsions:
REMARK  status: ('A' for Active; 'I' for Inactive)
REMARK    1  A    between atoms: CD1_1  and  CG1_2
REMARK    2  A    between atoms: CG1_2  and  CB_3
REMARK    3  A    between atoms: CB_3  and  CG2_4
REMARK    4  A    between atoms: CB_3  and  CA_5
REMARK    5  A    between atoms: C_9  and  C_10
REMARK    6  A    between atoms: N_21  and  C_22
REMARK    7  A    between atoms: C_22  and  C_23
REMARK    8  A    between atoms: C_22  and  C_28
REMARK    9  A    between atoms: N_25  and  C_26
REMARK   10  A    between atoms: N_25  and  C_27
REMARK   11  A    between atoms: C_30  and  C_31
REMARK   12  A    between atoms: C_34  and  C_35
REMARK                            x       y       z     vdW  Elec       q    Type
REMARK                         _______ _______ _______ _____ _____    ______ ____
ROOT
ATOM      1  CA  ILE A   2      -6.294   5.566 132.640  0.00  0.00    +0.000 C 
ATOM      2  C   ILE A   2      -7.768   5.319 133.113  0.00  0.00    +0.000 C 
ATOM      3  O   ILE A   2      -8.229   5.362 134.228  0.00  0.00    +0.000 OA
ATOM      4  N   UNK A   1      -8.568   5.042 132.068  0.00  0.00    +0.000 N 
ATOM      5  C   UNK A   1      -8.187   5.557 130.782  0.00  0.00    +0.000 C 
ATOM      6  C   UNK A   1      -6.820   5.012 130.374  0.00  0.00    +0.000 C 
ATOM      7  O   UNK A   1      -6.598   4.778 129.214  0.00  0.00    +0.000 OA
ATOM      8  N   ILE A   2      -5.939   4.880 131.434  0.00  0.00    +0.000 N 
ATOM      9  H   UNK A   1      -9.510   4.807 132.350  0.00  0.00    +0.000 HD
ENDROOT
BRANCH   5  10
ATOM     10  C   UNK A   1      -9.111   5.064 129.690  0.00  0.00    +0.000 C 
ATOM     11  C   UNK A   1      -9.407   6.200 128.721  0.00  0.00    +0.000 C 
ATOM     12  C   UNK A   1     -10.646   6.779 129.335  0.00  0.00    +0.000 A 
ATOM     13  C   UNK A   1     -11.107   8.073 129.208  0.00  0.00    +0.000 A 
ATOM     14  C   UNK A   1     -12.198   8.462 129.986  0.00  0.00    +0.000 A 
ATOM     15  C   UNK A   1     -12.792   7.572 130.897  0.00  0.00    +0.000 A 
ATOM     16  C   UNK A   1     -12.300   6.277 131.052  0.00  0.00    +0.000 A 
ATOM     17  C   UNK A   1     -11.240   5.890 130.249  0.00  0.00    +0.000 A 
ATOM     18  C   UNK A   1     -10.467   4.611 130.315  0.00  0.00    +0.000 C 
ENDBRANCH   5  10
BRANCH   1  19
ATOM     19  CB  ILE A   2      -5.481   4.964 133.706  0.00  0.00    +0.000 C 
ATOM     20  CG2 ILE A   2      -4.806   6.440 134.596  0.00  0.00    +0.000 C 
BRANCH  19  22
ATOM     21  CD1 ILE A   2      -7.064   1.963 133.712  0.00  0.00    +0.000 C 
ATOM     22  CG1 ILE A   2      -6.120   3.265 134.465  0.00  0.00    +0.000 C 
ENDBRANCH  19  22
ENDBRANCH   1  19
BRANCH   8  23
ATOM     23  C   UNK A   0      -4.589   4.285 131.360  0.00  0.00    +0.000 C 
BRANCH  23  24
ATOM     24  C   UNK A   0      -3.702   4.943 130.282  0.00  0.00    +0.000 A 
ATOM     25  C   UNK A   0      -3.300   4.199 129.191  0.00  0.00    +0.000 A 
ATOM     26  C   UNK A   0      -2.725   4.752 128.073  0.00  0.00    +0.000 A 
ATOM     27  C   UNK A   0      -2.369   3.810 126.974  0.00  0.00    +0.000 C 
ATOM     28  C   UNK A   0      -2.568   6.121 128.073  0.00  0.00    +0.000 A 
ATOM     29  N   UNK A   0      -2.845   6.917 129.142  0.00  0.00    +0.000 NA
ATOM     30  C   UNK A   0      -3.401   6.334 130.246  0.00  0.00    +0.000 A 
ATOM     31  C   UNK A   0      -3.808   7.286 131.361  0.00  0.00    +0.000 C 
ENDBRANCH  23  24
BRANCH  23  32
ATOM     32  C   UNK A   0      -4.522   2.436 131.418  0.00  0.00    +0.000 C 
ATOM     33  O   UNK A   0      -3.663   1.943 132.170  0.00  0.00    +0.000 OA
ATOM     34  N   UNK A   0      -5.400   1.314 130.624  0.00  0.00    +0.000 N 
ATOM     35  C   UNK A   0      -6.757   1.215 129.376  0.00  0.00    +0.000 C 
ATOM     36  C   UNK A   0      -4.743   0.021 130.836  0.00  0.00    +0.000 C 
ENDBRANCH  23  32
ENDBRANCH   8  23
TORSDOF 6
ENDMDL
MODEL 9
REMARK VINA RESULT:      -8.5      2.966      6.639
REMARK  Name = CHEMBL2037504
REMARK  12 active torsions:
REMARK  status: ('A' for Active; 'I' for Inactive)
REMARK    1  A    between atoms: CD1_1  and  CG1_2
REMARK    2  A    between atoms: CG1_2  and  CB_3
REMARK    3  A    between atoms: CB_3  and  CG2_4
REMARK    4  A    between atoms: CB_3  and  CA_5
REMARK    5  A    between atoms: C_9  and  C_10
REMARK    6  A    between atoms: N_21  and  C_22
REMARK    7  A    between atoms: C_22  and  C_23
REMARK    8  A    between atoms: C_22  and  C_28
REMARK    9  A    between atoms: N_25  and  C_26
REMARK   10  A    between atoms: N_25  and  C_27
REMARK   11  A    between atoms: C_30  and  C_31
REMARK   12  A    between atoms: C_34  and  C_35
REMARK                            x       y       z     vdW  Elec       q    Type
REMARK                         _______ _______ _______ _____ _____    ______ ____
ROOT
ATOM      1  CA  ILE A   2      -4.762   2.042 128.397  0.00  0.00    +0.000 C 
ATOM      2  C   ILE A   2      -5.415   0.751 127.793  0.00  0.00    +0.000 C 
ATOM      3  O   ILE A   2      -5.239   0.241 126.713  0.00  0.00    +0.000 OA
ATOM      4  N   UNK A   1      -6.265   0.188 128.670  0.00  0.00    +0.000 N 
ATOM      5  C   UNK A   1      -6.032   0.420 130.067  0.00  0.00    +0.000 C 
ATOM      6  C   UNK A   1      -6.096   1.914 130.377  0.00  0.00    +0.000 C 
ATOM      7  O   UNK A   1      -6.546   2.281 131.433  0.00  0.00    +0.000 OA
ATOM      8  N   ILE A   2      -5.569   2.710 129.374  0.00  0.00    +0.000 N 
ATOM      9  H   UNK A   1      -6.756  -0.606 128.281  0.00  0.00    +0.000 HD
ENDROOT
BRANCH   5  10
ATOM     10  C   UNK A   1      -7.133  -0.172 130.921  0.00  0.00    +0.000 C 
ATOM     11  C   UNK A   1      -6.530  -0.790 132.174  0.00  0.00    +0.000 C 
ATOM     12  C   UNK A   1      -6.303  -2.199 131.713  0.00  0.00    +0.000 A 
ATOM     13  C   UNK A   1      -5.374  -3.093 132.205  0.00  0.00    +0.000 A 
ATOM     14  C   UNK A   1      -5.211  -4.306 131.535  0.00  0.00    +0.000 A 
ATOM     15  C   UNK A   1      -5.946  -4.598 130.374  0.00  0.00    +0.000 A 
ATOM     16  C   UNK A   1      -6.856  -3.677 129.857  0.00  0.00    +0.000 A 
ATOM     17  C   UNK A   1      -7.037  -2.491 130.549  0.00  0.00    +0.000 A 
ATOM     18  C   UNK A   1      -7.853  -1.309 130.132  0.00  0.00    +0.000 C 
ENDBRANCH   5  10
BRANCH   1  19
ATOM     19  CB  ILE A   2      -4.672   2.956 127.250  0.00  0.00    +0.000 C 
ATOM     20  CG2 ILE A   2      -2.883   2.863 126.785  0.00  0.00    +0.000 C 
BRANCH  19  22
ATOM     21  CD1 ILE A   2      -6.395   2.658 124.343  0.00  0.00    +0.000 C 
ATOM     22  CG1 ILE A   2      -6.240   3.059 126.065  0.00  0.00    +0.000 C 
ENDBRANCH  19  22
ENDBRANCH   1  19
BRANCH   8  23
ATOM     23  C   UNK A   0      -5.590   4.186 129.349  0.00  0.00    +0.000 C 
BRANCH  23  24
ATOM     24  C   UNK A   0      -4.366   4.814 130.049  0.00  0.00    +0.000 A 
ATOM     25  C   UNK A   0      -3.932   4.291 131.250  0.00  0.00    +0.000 A 
ATOM     26  C   UNK A   0      -2.725   4.616 131.821  0.00  0.00    +0.000 A 
ATOM     27  C   UNK A   0      -2.399   3.944 133.111  0.00  0.00    +0.000 C 
ATOM     28  C   UNK A   0      -1.932   5.501 131.125  0.00  0.00    +0.000 A 
ATOM     29  N   UNK A   0      -2.322   6.138 129.986  0.00  0.00    +0.000 NA
ATOM     30  C   UNK A   0      -3.537   5.806 129.453  0.00  0.00    +0.000 A 
ATOM     31  C   UNK A   0      -3.868   6.451 128.115  0.00  0.00    +0.000 C 
ENDBRANCH  23  24
BRANCH  23  32
ATOM     32  C   UNK A   0      -7.217   4.974 129.744  0.00  0.00    +0.000 C 
ATOM     33  O   UNK A   0      -8.001   5.119 128.790  0.00  0.00    +0.000 OA
ATOM     34  N   UNK A   0      -7.811   5.540 131.154  0.00  0.00    +0.000 N 
ATOM     35  C   UNK A   0      -7.302   5.731 132.918  0.00  0.00    +0.000 C 
ATOM     36  C   UNK A   0      -9.021   6.305 130.838  0.00  0.00    +0.000 C 
ENDBRANCH  23  32
ENDBRANCH   8  23
TORSDOF 6
ENDMDL
