MODEL 1
REMARK VINA RESULT:      -7.9      0.000      0.000
REMARK  Name = CHEMBL512105
REMARK  7 active torsions:
REMARK  status: ('A' for Active; 'I' for Inactive)
REMARK    1  A    between atoms: C_1  and  O_2
REMARK    2  A    between atoms: O_2  and  C_3
REMARK    3  A    between atoms: C_3  and  C_4
REMARK    4  A    between atoms: C_7  and  C_8
REMARK    5  A    between atoms: C_11  and  C_12
REMARK    6  A    between atoms: C_16  and  C_17
REMARK    7  A    between atoms: N_22  and  C_23
REMARK                            x       y       z     vdW  Elec       q    Type
REMARK                         _______ _______ _______ _____ _____    ______ ____
ROOT
ATOM      1  C   UNL     1      -6.969   2.491 132.883  0.00  0.00    +0.000 A 
ATOM      2  N   UNL     1      -7.950   1.737 133.350  0.00  0.00    +0.000 NA
ATOM      3  N   UNL     1      -9.162   2.343 133.038  0.00  0.00    +0.000 NA
ATOM      4  C   UNL     1      -8.914   3.458 132.372  0.00  0.00    +0.000 A 
ATOM      5  N   UNL     1      -7.538   3.585 132.267  0.00  0.00    +0.000 N 
ENDROOT
BRANCH   4   6
ATOM      6  C   UNL     1      -9.857   4.373 131.705  0.00  0.00    +0.000 A 
ATOM      7  C   UNL     1     -10.370   4.097 130.434  0.00  0.00    +0.000 A 
ATOM      8  N   UNL     1     -11.128   4.967 129.708  0.00  0.00    +0.000 NA
ATOM      9  C   UNL     1     -11.355   6.169 130.290  0.00  0.00    +0.000 A 
ATOM     10  C   UNL     1     -10.829   6.451 131.553  0.00  0.00    +0.000 A 
ATOM     11  N   UNL     1     -10.073   5.578 132.282  0.00  0.00    +0.000 NA
BRANCH   9  12
ATOM     12  C   UNL     1     -12.164   7.140 129.540  0.00  0.00    +0.000 A 
ATOM     13  C   UNL     1     -12.854   6.770 128.372  0.00  0.00    +0.000 A 
ATOM     14  C   UNL     1     -13.640   7.694 127.674  0.00  0.00    +0.000 A 
ATOM     15  C   UNL     1     -13.759   9.003 128.138  0.00  0.00    +0.000 A 
ATOM     16  C   UNL     1     -13.107   9.386 129.312  0.00  0.00    +0.000 A 
ATOM     17  C   UNL     1     -12.304   8.465 129.997  0.00  0.00    +0.000 A 
BRANCH  16  18
ATOM     18  C   UNL     1     -13.302  10.709 129.838  0.00  0.00    +0.000 C 
ATOM     19  N   UNL     1     -13.426  11.781 130.255  0.00  0.00    +0.000 NA
ENDBRANCH  16  18
ENDBRANCH   9  12
ENDBRANCH   4   6
BRANCH   5  20
ATOM     20  C   UNL     1      -6.876   4.625 131.615  0.00  0.00    +0.000 A 
ATOM     21  C   UNL     1      -6.441   5.742 132.322  0.00  0.00    +0.000 A 
ATOM     22  C   UNL     1      -5.728   6.704 131.625  0.00  0.00    +0.000 A 
ATOM     23  C   UNL     1      -5.490   6.501 130.272  0.00  0.00    +0.000 A 
ATOM     24  N   UNL     1      -5.903   5.417 129.577  0.00  0.00    +0.000 NA
ATOM     25  C   UNL     1      -6.596   4.493 130.262  0.00  0.00    +0.000 A 
ENDBRANCH   5  20
BRANCH   1  26
ATOM     26  C   UNL     1      -5.486   2.254 132.994  0.00  0.00    +0.000 C 
BRANCH  26  28
ATOM     27  C   UNL     1      -3.613   3.140 134.164  0.00  0.00    +0.000 C 
ATOM     28  O   UNL     1      -5.001   2.812 134.225  0.00  0.00    +0.000 OA
ENDBRANCH  26  28
ENDBRANCH   1  26
TORSDOF 6
ENDMDL
MODEL 2
REMARK VINA RESULT:      -7.3      6.358      8.885
REMARK  Name = CHEMBL512105
REMARK  7 active torsions:
REMARK  status: ('A' for Active; 'I' for Inactive)
REMARK    1  A    between atoms: C_1  and  O_2
REMARK    2  A    between atoms: O_2  and  C_3
REMARK    3  A    between atoms: C_3  and  C_4
REMARK    4  A    between atoms: C_7  and  C_8
REMARK    5  A    between atoms: C_11  and  C_12
REMARK    6  A    between atoms: C_16  and  C_17
REMARK    7  A    between atoms: N_22  and  C_23
REMARK                            x       y       z     vdW  Elec       q    Type
REMARK                         _______ _______ _______ _____ _____    ______ ____
ROOT
ATOM      1  C   UNL     1      -5.889   3.725 122.119  0.00  0.00    +0.000 A 
ATOM      2  N   UNL     1      -5.153   4.741 122.538  0.00  0.00    +0.000 NA
ATOM      3  N   UNL     1      -5.469   5.001 123.866  0.00  0.00    +0.000 NA
ATOM      4  C   UNL     1      -6.390   4.135 124.255  0.00  0.00    +0.000 A 
ATOM      5  N   UNL     1      -6.683   3.321 123.171  0.00  0.00    +0.000 N 
ENDROOT
BRANCH   4   6
ATOM      6  C   UNL     1      -6.945   3.909 125.600  0.00  0.00    +0.000 A 
ATOM      7  C   UNL     1      -7.991   4.689 126.102  0.00  0.00    +0.000 A 
ATOM      8  N   UNL     1      -8.448   4.624 127.384  0.00  0.00    +0.000 NA
ATOM      9  C   UNL     1      -7.806   3.745 128.190  0.00  0.00    +0.000 A 
ATOM     10  C   UNL     1      -6.750   2.976 127.693  0.00  0.00    +0.000 A 
ATOM     11  N   UNL     1      -6.294   3.038 126.407  0.00  0.00    +0.000 NA
BRANCH   9  12
ATOM     12  C   UNL     1      -8.263   3.646 129.583  0.00  0.00    +0.000 A 
ATOM     13  C   UNL     1      -7.900   2.558 130.396  0.00  0.00    +0.000 A 
ATOM     14  C   UNL     1      -8.320   2.481 131.729  0.00  0.00    +0.000 A 
ATOM     15  C   UNL     1      -9.103   3.497 132.276  0.00  0.00    +0.000 A 
ATOM     16  C   UNL     1      -9.451   4.602 131.497  0.00  0.00    +0.000 A 
ATOM     17  C   UNL     1      -9.046   4.666 130.157  0.00  0.00    +0.000 A 
BRANCH  16  18
ATOM     18  C   UNL     1     -10.180   5.690 132.086  0.00  0.00    +0.000 C 
ATOM     19  N   UNL     1     -10.772   6.580 132.529  0.00  0.00    +0.000 NA
ENDBRANCH  16  18
ENDBRANCH   9  12
ENDBRANCH   4   6
BRANCH   5  20
ATOM     20  C   UNL     1      -7.595   2.267 123.184  0.00  0.00    +0.000 A 
ATOM     21  C   UNL     1      -8.928   2.479 122.845  0.00  0.00    +0.000 A 
ATOM     22  C   UNL     1      -9.764   1.374 122.810  0.00  0.00    +0.000 A 
ATOM     23  C   UNL     1      -9.228   0.129 123.112  0.00  0.00    +0.000 A 
ATOM     24  N   UNL     1      -7.934  -0.089 123.438  0.00  0.00    +0.000 NA
ATOM     25  C   UNL     1      -7.134   0.990 123.471  0.00  0.00    +0.000 A 
ENDBRANCH   5  20
BRANCH   1  26
ATOM     26  C   UNL     1      -5.908   3.097 120.750  0.00  0.00    +0.000 C 
BRANCH  26  28
ATOM     27  C   UNL     1      -7.760   4.198 119.741  0.00  0.00    +0.000 C 
ATOM     28  O   UNL     1      -6.340   4.066 119.783  0.00  0.00    +0.000 OA
ENDBRANCH  26  28
ENDBRANCH   1  26
TORSDOF 6
ENDMDL
MODEL 3
REMARK VINA RESULT:      -7.1      3.645      8.274
REMARK  Name = CHEMBL512105
REMARK  7 active torsions:
REMARK  status: ('A' for Active; 'I' for Inactive)
REMARK    1  A    between atoms: C_1  and  O_2
REMARK    2  A    between atoms: O_2  and  C_3
REMARK    3  A    between atoms: C_3  and  C_4
REMARK    4  A    between atoms: C_7  and  C_8
REMARK    5  A    between atoms: C_11  and  C_12
REMARK    6  A    between atoms: C_16  and  C_17
REMARK    7  A    between atoms: N_22  and  C_23
REMARK                            x       y       z     vdW  Elec       q    Type
REMARK                         _______ _______ _______ _____ _____    ______ ____
ROOT
ATOM      1  C   UNL     1     -12.953   8.741 130.635  0.00  0.00    +0.000 A 
ATOM      2  N   UNL     1     -13.019   8.423 131.916  0.00  0.00    +0.000 NA
ATOM      3  N   UNL     1     -12.400   7.192 132.101  0.00  0.00    +0.000 NA
ATOM      4  C   UNL     1     -11.948   6.770 130.931  0.00  0.00    +0.000 A 
ATOM      5  N   UNL     1     -12.291   7.722 129.983  0.00  0.00    +0.000 N 
ENDROOT
BRANCH   4   6
ATOM      6  C   UNL     1     -11.105   5.602 130.626  0.00  0.00    +0.000 A 
ATOM      7  C   UNL     1     -11.662   4.358 130.313  0.00  0.00    +0.000 A 
ATOM      8  N   UNL     1     -10.940   3.212 130.163  0.00  0.00    +0.000 NA
ATOM      9  C   UNL     1      -9.605   3.333 130.356  0.00  0.00    +0.000 A 
ATOM     10  C   UNL     1      -9.050   4.572 130.684  0.00  0.00    +0.000 A 
ATOM     11  N   UNL     1      -9.772   5.722 130.831  0.00  0.00    +0.000 NA
BRANCH   9  12
ATOM     12  C   UNL     1      -8.789   2.119 130.210  0.00  0.00    +0.000 A 
ATOM     13  C   UNL     1      -8.902   1.049 131.115  0.00  0.00    +0.000 A 
ATOM     14  C   UNL     1      -8.138  -0.113 130.958  0.00  0.00    +0.000 A 
ATOM     15  C   UNL     1      -7.255  -0.231 129.885  0.00  0.00    +0.000 A 
ATOM     16  C   UNL     1      -7.149   0.806 128.956  0.00  0.00    +0.000 A 
ATOM     17  C   UNL     1      -7.899   1.977 129.128  0.00  0.00    +0.000 A 
BRANCH  16  18
ATOM     18  C   UNL     1      -6.307   0.648 127.803  0.00  0.00    +0.000 C 
ATOM     19  N   UNL     1      -5.631   0.487 126.878  0.00  0.00    +0.000 NA
ENDBRANCH  16  18
ENDBRANCH   9  12
ENDBRANCH   4   6
BRANCH   5  20
ATOM     20  C   UNL     1     -11.974   7.652 128.627  0.00  0.00    +0.000 A 
ATOM     21  C   UNL     1     -10.777   8.177 128.151  0.00  0.00    +0.000 A 
ATOM     22  C   UNL     1     -10.494   8.009 126.804  0.00  0.00    +0.000 A 
ATOM     23  C   UNL     1     -11.415   7.333 126.014  0.00  0.00    +0.000 A 
ATOM     24  N   UNL     1     -12.578   6.815 126.468  0.00  0.00    +0.000 NA
ATOM     25  C   UNL     1     -12.842   6.986 127.774  0.00  0.00    +0.000 A 
ENDBRANCH   5  20
BRANCH   1  26
ATOM     26  C   UNL     1     -13.500   9.969 129.956  0.00  0.00    +0.000 C 
BRANCH  26  28
ATOM     27  C   UNL     1     -13.809  12.313 130.217  0.00  0.00    +0.000 C 
ATOM     28  O   UNL     1     -13.290  11.116 130.793  0.00  0.00    +0.000 OA
ENDBRANCH  26  28
ENDBRANCH   1  26
TORSDOF 6
ENDMDL
MODEL 4
REMARK VINA RESULT:      -7.1      6.301      9.235
REMARK  Name = CHEMBL512105
REMARK  7 active torsions:
REMARK  status: ('A' for Active; 'I' for Inactive)
REMARK    1  A    between atoms: C_1  and  O_2
REMARK    2  A    between atoms: O_2  and  C_3
REMARK    3  A    between atoms: C_3  and  C_4
REMARK    4  A    between atoms: C_7  and  C_8
REMARK    5  A    between atoms: C_11  and  C_12
REMARK    6  A    between atoms: C_16  and  C_17
REMARK    7  A    between atoms: N_22  and  C_23
REMARK                            x       y       z     vdW  Elec       q    Type
REMARK                         _______ _______ _______ _____ _____    ______ ____
ROOT
ATOM      1  C   UNL     1      -5.876   3.716 122.190  0.00  0.00    +0.000 A 
ATOM      2  N   UNL     1      -5.149   4.743 122.598  0.00  0.00    +0.000 NA
ATOM      3  N   UNL     1      -5.483   5.026 123.917  0.00  0.00    +0.000 NA
ATOM      4  C   UNL     1      -6.405   4.163 124.311  0.00  0.00    +0.000 A 
ATOM      5  N   UNL     1      -6.681   3.329 123.239  0.00  0.00    +0.000 N 
ENDROOT
BRANCH   4   6
ATOM      6  C   UNL     1      -6.976   3.960 125.653  0.00  0.00    +0.000 A 
ATOM      7  C   UNL     1      -8.033   4.743 126.126  0.00  0.00    +0.000 A 
ATOM      8  N   UNL     1      -8.506   4.700 127.404  0.00  0.00    +0.000 NA
ATOM      9  C   UNL     1      -7.868   3.841 128.234  0.00  0.00    +0.000 A 
ATOM     10  C   UNL     1      -6.801   3.070 127.766  0.00  0.00    +0.000 A 
ATOM     11  N   UNL     1      -6.329   3.110 126.486  0.00  0.00    +0.000 NA
BRANCH   9  12
ATOM     12  C   UNL     1      -8.343   3.767 129.623  0.00  0.00    +0.000 A 
ATOM     13  C   UNL     1      -9.389   4.586 130.083  0.00  0.00    +0.000 A 
ATOM     14  C   UNL     1      -9.852   4.495 131.401  0.00  0.00    +0.000 A 
ATOM     15  C   UNL     1      -9.283   3.574 132.280  0.00  0.00    +0.000 A 
ATOM     16  C   UNL     1      -8.263   2.730 131.838  0.00  0.00    +0.000 A 
ATOM     17  C   UNL     1      -7.788   2.838 130.524  0.00  0.00    +0.000 A 
BRANCH  16  18
ATOM     18  C   UNL     1      -7.740   1.721 132.716  0.00  0.00    +0.000 C 
ATOM     19  N   UNL     1      -7.293   0.902 133.401  0.00  0.00    +0.000 NA
ENDBRANCH  16  18
ENDBRANCH   9  12
ENDBRANCH   4   6
BRANCH   5  20
ATOM     20  C   UNL     1      -7.589   2.271 123.261  0.00  0.00    +0.000 A 
ATOM     21  C   UNL     1      -8.921   2.473 122.911  0.00  0.00    +0.000 A 
ATOM     22  C   UNL     1      -9.752   1.364 122.885  0.00  0.00    +0.000 A 
ATOM     23  C   UNL     1      -9.213   0.125 123.207  0.00  0.00    +0.000 A 
ATOM     24  N   UNL     1      -7.919  -0.083 123.542  0.00  0.00    +0.000 NA
ATOM     25  C   UNL     1      -7.124   1.000 123.566  0.00  0.00    +0.000 A 
ENDBRANCH   5  20
BRANCH   1  26
ATOM     26  C   UNL     1      -5.876   3.063 120.832  0.00  0.00    +0.000 C 
BRANCH  26  28
ATOM     27  C   UNL     1      -7.717   4.158 119.798  0.00  0.00    +0.000 C 
ATOM     28  O   UNL     1      -6.299   4.013 119.842  0.00  0.00    +0.000 OA
ENDBRANCH  26  28
ENDBRANCH   1  26
TORSDOF 6
ENDMDL
MODEL 5
REMARK VINA RESULT:      -7.1      2.273      3.402
REMARK  Name = CHEMBL512105
REMARK  7 active torsions:
REMARK  status: ('A' for Active; 'I' for Inactive)
REMARK    1  A    between atoms: C_1  and  O_2
REMARK    2  A    between atoms: O_2  and  C_3
REMARK    3  A    between atoms: C_3  and  C_4
REMARK    4  A    between atoms: C_7  and  C_8
REMARK    5  A    between atoms: C_11  and  C_12
REMARK    6  A    between atoms: C_16  and  C_17
REMARK    7  A    between atoms: N_22  and  C_23
REMARK                            x       y       z     vdW  Elec       q    Type
REMARK                         _______ _______ _______ _____ _____    ______ ____
ROOT
ATOM      1  C   UNL     1      -5.782   3.507 134.652  0.00  0.00    +0.000 A 
ATOM      2  N   UNL     1      -5.488   4.638 135.272  0.00  0.00    +0.000 NA
ATOM      3  N   UNL     1      -6.159   5.678 134.639  0.00  0.00    +0.000 NA
ATOM      4  C   UNL     1      -6.868   5.174 133.642  0.00  0.00    +0.000 A 
ATOM      5  N   UNL     1      -6.642   3.807 133.618  0.00  0.00    +0.000 N 
ENDROOT
BRANCH   4   6
ATOM      6  C   UNL     1      -7.849   5.841 132.769  0.00  0.00    +0.000 A 
ATOM      7  C   UNL     1      -9.218   5.817 133.054  0.00  0.00    +0.000 A 
ATOM      8  N   UNL     1     -10.183   6.288 132.214  0.00  0.00    +0.000 NA
ATOM      9  C   UNL     1      -9.739   6.784 131.034  0.00  0.00    +0.000 A 
ATOM     10  C   UNL     1      -8.373   6.793 130.743  0.00  0.00    +0.000 A 
ATOM     11  N   UNL     1      -7.405   6.325 131.585  0.00  0.00    +0.000 NA
BRANCH   9  12
ATOM     12  C   UNL     1     -10.747   7.298 130.096  0.00  0.00    +0.000 A 
ATOM     13  C   UNL     1     -11.964   7.835 130.552  0.00  0.00    +0.000 A 
ATOM     14  C   UNL     1     -12.910   8.343 129.655  0.00  0.00    +0.000 A 
ATOM     15  C   UNL     1     -12.652   8.333 128.285  0.00  0.00    +0.000 A 
ATOM     16  C   UNL     1     -11.438   7.832 127.811  0.00  0.00    +0.000 A 
ATOM     17  C   UNL     1     -10.502   7.305 128.710  0.00  0.00    +0.000 A 
BRANCH  16  18
ATOM     18  C   UNL     1     -11.135   7.904 126.408  0.00  0.00    +0.000 C 
ATOM     19  N   UNL     1     -10.889   7.997 125.282  0.00  0.00    +0.000 NA
ENDBRANCH  16  18
ENDBRANCH   9  12
ENDBRANCH   4   6
BRANCH   5  20
ATOM     20  C   UNL     1      -7.227   2.914 132.720  0.00  0.00    +0.000 A 
ATOM     21  C   UNL     1      -8.445   2.309 133.014  0.00  0.00    +0.000 A 
ATOM     22  C   UNL     1      -9.003   1.488 132.047  0.00  0.00    +0.000 A 
ATOM     23  C   UNL     1      -8.320   1.318 130.849  0.00  0.00    +0.000 A 
ATOM     24  N   UNL     1      -7.139   1.906 130.551  0.00  0.00    +0.000 NA
ATOM     25  C   UNL     1      -6.607   2.697 131.498  0.00  0.00    +0.000 A 
ENDBRANCH   5  20
BRANCH   1  26
ATOM     26  C   UNL     1      -5.280   2.122 134.966  0.00  0.00    +0.000 C 
BRANCH  26  28
ATOM     27  C   UNL     1      -3.411   2.082 133.494  0.00  0.00    +0.000 C 
ATOM     28  O   UNL     1      -3.849   2.092 134.852  0.00  0.00    +0.000 OA
ENDBRANCH  26  28
ENDBRANCH   1  26
TORSDOF 6
ENDMDL
MODEL 6
REMARK VINA RESULT:      -6.9      5.341      8.497
REMARK  Name = CHEMBL512105
REMARK  7 active torsions:
REMARK  status: ('A' for Active; 'I' for Inactive)
REMARK    1  A    between atoms: C_1  and  O_2
REMARK    2  A    between atoms: O_2  and  C_3
REMARK    3  A    between atoms: C_3  and  C_4
REMARK    4  A    between atoms: C_7  and  C_8
REMARK    5  A    between atoms: C_11  and  C_12
REMARK    6  A    between atoms: C_16  and  C_17
REMARK    7  A    between atoms: N_22  and  C_23
REMARK                            x       y       z     vdW  Elec       q    Type
REMARK                         _______ _______ _______ _____ _____    ______ ____
ROOT
ATOM      1  C   UNL     1      -8.851   5.628 130.540  0.00  0.00    +0.000 A 
ATOM      2  N   UNL     1      -9.045   6.281 129.407  0.00  0.00    +0.000 NA
ATOM      3  N   UNL     1      -8.704   5.445 128.350  0.00  0.00    +0.000 NA
ATOM      4  C   UNL     1      -8.313   4.282 128.844  0.00  0.00    +0.000 A 
ATOM      5  N   UNL     1      -8.385   4.370 130.225  0.00  0.00    +0.000 N 
ENDROOT
BRANCH   4   6
ATOM      6  C   UNL     1      -7.989   3.032 128.136  0.00  0.00    +0.000 A 
ATOM      7  C   UNL     1      -6.729   2.816 127.569  0.00  0.00    +0.000 A 
ATOM      8  N   UNL     1      -6.416   1.748 126.782  0.00  0.00    +0.000 NA
ATOM      9  C   UNL     1      -7.428   0.878 126.549  0.00  0.00    +0.000 A 
ATOM     10  C   UNL     1      -8.691   1.101 127.102  0.00  0.00    +0.000 A 
ATOM     11  N   UNL     1      -9.004   2.169 127.894  0.00  0.00    +0.000 NA
BRANCH   9  12
ATOM     12  C   UNL     1      -7.135  -0.286 125.701  0.00  0.00    +0.000 A 
ATOM     13  C   UNL     1      -5.818  -0.743 125.515  0.00  0.00    +0.000 A 
ATOM     14  C   UNL     1      -5.548  -1.865 124.723  0.00  0.00    +0.000 A 
ATOM     15  C   UNL     1      -6.592  -2.559 124.113  0.00  0.00    +0.000 A 
ATOM     16  C   UNL     1      -7.910  -2.143 124.308  0.00  0.00    +0.000 A 
ATOM     17  C   UNL     1      -8.176  -1.006 125.083  0.00  0.00    +0.000 A 
BRANCH  16  18
ATOM     18  C   UNL     1      -8.991  -2.909 123.754  0.00  0.00    +0.000 C 
ATOM     19  N   UNL     1      -9.883  -3.503 123.318  0.00  0.00    +0.000 NA
ENDBRANCH  16  18
ENDBRANCH   9  12
ENDBRANCH   4   6
BRANCH   5  20
ATOM     20  C   UNL     1      -8.073   3.339 131.111  0.00  0.00    +0.000 A 
ATOM     21  C   UNL     1      -9.053   2.444 131.532  0.00  0.00    +0.000 A 
ATOM     22  C   UNL     1      -8.658   1.402 132.355  0.00  0.00    +0.000 A 
ATOM     23  C   UNL     1      -7.318   1.310 132.711  0.00  0.00    +0.000 A 
ATOM     24  N   UNL     1      -6.358   2.170 132.303  0.00  0.00    +0.000 NA
ATOM     25  C   UNL     1      -6.753   3.178 131.507  0.00  0.00    +0.000 A 
ENDBRANCH   5  20
BRANCH   1  26
ATOM     26  C   UNL     1      -9.065   6.128 131.945  0.00  0.00    +0.000 C 
BRANCH  26  28
ATOM     27  C   UNL     1     -11.423   6.442 131.906  0.00  0.00    +0.000 C 
ATOM     28  O   UNL     1     -10.338   5.675 132.428  0.00  0.00    +0.000 OA
ENDBRANCH  26  28
ENDBRANCH   1  26
TORSDOF 6
ENDMDL
MODEL 7
REMARK VINA RESULT:      -6.9      4.042      9.115
REMARK  Name = CHEMBL512105
REMARK  7 active torsions:
REMARK  status: ('A' for Active; 'I' for Inactive)
REMARK    1  A    between atoms: C_1  and  O_2
REMARK    2  A    between atoms: O_2  and  C_3
REMARK    3  A    between atoms: C_3  and  C_4
REMARK    4  A    between atoms: C_7  and  C_8
REMARK    5  A    between atoms: C_11  and  C_12
REMARK    6  A    between atoms: C_16  and  C_17
REMARK    7  A    between atoms: N_22  and  C_23
REMARK                            x       y       z     vdW  Elec       q    Type
REMARK                         _______ _______ _______ _____ _____    ______ ____
ROOT
ATOM      1  C   UNL     1     -10.629   5.031 131.081  0.00  0.00    +0.000 A 
ATOM      2  N   UNL     1     -11.271   4.407 130.108  0.00  0.00    +0.000 NA
ATOM      3  N   UNL     1     -10.674   3.168 129.906  0.00  0.00    +0.000 NA
ATOM      4  C   UNL     1      -9.678   3.037 130.767  0.00  0.00    +0.000 A 
ATOM      5  N   UNL     1      -9.618   4.202 131.516  0.00  0.00    +0.000 N 
ENDROOT
BRANCH   4   6
ATOM      6  C   UNL     1      -8.838   1.860 131.046  0.00  0.00    +0.000 A 
ATOM      7  C   UNL     1      -7.637   1.639 130.365  0.00  0.00    +0.000 A 
ATOM      8  N   UNL     1      -6.892   0.503 130.475  0.00  0.00    +0.000 NA
ATOM      9  C   UNL     1      -7.398  -0.450 131.293  0.00  0.00    +0.000 A 
ATOM     10  C   UNL     1      -8.607  -0.237 131.961  0.00  0.00    +0.000 A 
ATOM     11  N   UNL     1      -9.351   0.903 131.854  0.00  0.00    +0.000 NA
BRANCH   9  12
ATOM     12  C   UNL     1      -6.630  -1.695 131.436  0.00  0.00    +0.000 A 
ATOM     13  C   UNL     1      -7.053  -2.720 132.301  0.00  0.00    +0.000 A 
ATOM     14  C   UNL     1      -6.329  -3.912 132.417  0.00  0.00    +0.000 A 
ATOM     15  C   UNL     1      -5.174  -4.105 131.661  0.00  0.00    +0.000 A 
ATOM     16  C   UNL     1      -4.751  -3.114 130.773  0.00  0.00    +0.000 A 
ATOM     17  C   UNL     1      -5.466  -1.913 130.675  0.00  0.00    +0.000 A 
BRANCH  16  18
ATOM     18  C   UNL     1      -3.612  -3.350 129.929  0.00  0.00    +0.000 C 
ATOM     19  N   UNL     1      -2.703  -3.574 129.250  0.00  0.00    +0.000 NA
ENDBRANCH  16  18
ENDBRANCH   9  12
ENDBRANCH   4   6
BRANCH   5  20
ATOM     20  C   UNL     1      -8.709   4.446 132.545  0.00  0.00    +0.000 A 
ATOM     21  C   UNL     1      -9.001   4.071 133.853  0.00  0.00    +0.000 A 
ATOM     22  C   UNL     1      -8.024   4.279 134.813  0.00  0.00    +0.000 A 
ATOM     23  C   UNL     1      -6.819   4.845 134.419  0.00  0.00    +0.000 A 
ATOM     24  N   UNL     1      -6.522   5.209 133.150  0.00  0.00    +0.000 NA
ATOM     25  C   UNL     1      -7.478   5.005 132.229  0.00  0.00    +0.000 A 
ENDBRANCH   5  20
BRANCH   1  26
ATOM     26  C   UNL     1     -10.901   6.404 131.638  0.00  0.00    +0.000 C 
BRANCH  26  28
ATOM     27  C   UNL     1     -12.895   7.521 130.977  0.00  0.00    +0.000 C 
ATOM     28  O   UNL     1     -12.310   6.564 131.859  0.00  0.00    +0.000 OA
ENDBRANCH  26  28
ENDBRANCH   1  26
TORSDOF 6
ENDMDL
MODEL 8
REMARK VINA RESULT:      -6.9      7.916     11.095
REMARK  Name = CHEMBL512105
REMARK  7 active torsions:
REMARK  status: ('A' for Active; 'I' for Inactive)
REMARK    1  A    between atoms: C_1  and  O_2
REMARK    2  A    between atoms: O_2  and  C_3
REMARK    3  A    between atoms: C_3  and  C_4
REMARK    4  A    between atoms: C_7  and  C_8
REMARK    5  A    between atoms: C_11  and  C_12
REMARK    6  A    between atoms: C_16  and  C_17
REMARK    7  A    between atoms: N_22  and  C_23
REMARK                            x       y       z     vdW  Elec       q    Type
REMARK                         _______ _______ _______ _____ _____    ______ ____
ROOT
ATOM      1  C   UNL     1      -6.696   2.738 123.554  0.00  0.00    +0.000 A 
ATOM      2  N   UNL     1      -6.117   3.562 124.411  0.00  0.00    +0.000 NA
ATOM      3  N   UNL     1      -6.013   2.921 125.640  0.00  0.00    +0.000 NA
ATOM      4  C   UNL     1      -6.519   1.705 125.523  0.00  0.00    +0.000 A 
ATOM      5  N   UNL     1      -6.968   1.563 124.220  0.00  0.00    +0.000 N 
ENDROOT
BRANCH   4   6
ATOM      6  C   UNL     1      -6.515   0.597 126.495  0.00  0.00    +0.000 A 
ATOM      7  C   UNL     1      -7.511   0.472 127.468  0.00  0.00    +0.000 A 
ATOM      8  N   UNL     1      -7.483  -0.442 128.479  0.00  0.00    +0.000 NA
ATOM      9  C   UNL     1      -6.394  -1.246 128.510  0.00  0.00    +0.000 A 
ATOM     10  C   UNL     1      -5.391  -1.110 127.547  0.00  0.00    +0.000 A 
ATOM     11  N   UNL     1      -5.419  -0.197 126.532  0.00  0.00    +0.000 NA
BRANCH   9  12
ATOM     12  C   UNL     1      -6.320  -2.243 129.587  0.00  0.00    +0.000 A 
ATOM     13  C   UNL     1      -5.476  -3.363 129.490  0.00  0.00    +0.000 A 
ATOM     14  C   UNL     1      -5.395  -4.298 130.529  0.00  0.00    +0.000 A 
ATOM     15  C   UNL     1      -6.147  -4.122 131.689  0.00  0.00    +0.000 A 
ATOM     16  C   UNL     1      -6.968  -3.002 131.821  0.00  0.00    +0.000 A 
ATOM     17  C   UNL     1      -7.065  -2.079 130.771  0.00  0.00    +0.000 A 
BRANCH  16  18
ATOM     18  C   UNL     1      -7.674  -2.774 133.052  0.00  0.00    +0.000 C 
ATOM     19  N   UNL     1      -8.215  -2.604 134.060  0.00  0.00    +0.000 NA
ENDBRANCH  16  18
ENDBRANCH   9  12
ENDBRANCH   4   6
BRANCH   5  20
ATOM     20  C   UNL     1      -7.552   0.410 123.694  0.00  0.00    +0.000 A 
ATOM     21  C   UNL     1      -6.761  -0.625 123.205  0.00  0.00    +0.000 A 
ATOM     22  C   UNL     1      -7.406  -1.770 122.763  0.00  0.00    +0.000 A 
ATOM     23  C   UNL     1      -8.792  -1.818 122.834  0.00  0.00    +0.000 A 
ATOM     24  N   UNL     1      -9.569  -0.821 123.313  0.00  0.00    +0.000 NA
ATOM     25  C   UNL     1      -8.934   0.285 123.735  0.00  0.00    +0.000 A 
ENDBRANCH   5  20
BRANCH   1  26
ATOM     26  C   UNL     1      -7.036   2.995 122.109  0.00  0.00    +0.000 C 
BRANCH  26  28
ATOM     27  C   UNL     1      -5.769   4.250 120.534  0.00  0.00    +0.000 C 
ATOM     28  O   UNL     1      -5.828   3.072 121.337  0.00  0.00    +0.000 OA
ENDBRANCH  26  28
ENDBRANCH   1  26
TORSDOF 6
ENDMDL
MODEL 9
REMARK VINA RESULT:      -6.9      7.055     10.927
REMARK  Name = CHEMBL512105
REMARK  7 active torsions:
REMARK  status: ('A' for Active; 'I' for Inactive)
REMARK    1  A    between atoms: C_1  and  O_2
REMARK    2  A    between atoms: O_2  and  C_3
REMARK    3  A    between atoms: C_3  and  C_4
REMARK    4  A    between atoms: C_7  and  C_8
REMARK    5  A    between atoms: C_11  and  C_12
REMARK    6  A    between atoms: C_16  and  C_17
REMARK    7  A    between atoms: N_22  and  C_23
REMARK                            x       y       z     vdW  Elec       q    Type
REMARK                         _______ _______ _______ _____ _____    ______ ____
ROOT
ATOM      1  C   UNL     1      -9.008  -0.038 123.844  0.00  0.00    +0.000 A 
ATOM      2  N   UNL     1      -9.214  -1.213 123.274  0.00  0.00    +0.000 NA
ATOM      3  N   UNL     1      -8.763  -2.208 124.133  0.00  0.00    +0.000 NA
ATOM      4  C   UNL     1      -8.294  -1.635 125.229  0.00  0.00    +0.000 A 
ATOM      5  N   UNL     1      -8.426  -0.264 125.073  0.00  0.00    +0.000 N 
ENDROOT
BRANCH   4   6
ATOM      6  C   UNL     1      -7.838  -2.259 126.484  0.00  0.00    +0.000 A 
ATOM      7  C   UNL     1      -8.740  -2.823 127.391  0.00  0.00    +0.000 A 
ATOM      8  N   UNL     1      -8.396  -3.283 128.627  0.00  0.00    +0.000 NA
ATOM      9  C   UNL     1      -7.090  -3.147 128.958  0.00  0.00    +0.000 A 
ATOM     10  C   UNL     1      -6.191  -2.569 128.058  0.00  0.00    +0.000 A 
ATOM     11  N   UNL     1      -6.535  -2.111 126.818  0.00  0.00    +0.000 NA
BRANCH   9  12
ATOM     12  C   UNL     1      -6.675  -3.625 130.285  0.00  0.00    +0.000 A 
ATOM     13  C   UNL     1      -5.680  -4.608 130.429  0.00  0.00    +0.000 A 
ATOM     14  C   UNL     1      -5.274  -5.043 131.697  0.00  0.00    +0.000 A 
ATOM     15  C   UNL     1      -5.849  -4.495 132.842  0.00  0.00    +0.000 A 
ATOM     16  C   UNL     1      -6.817  -3.496 132.724  0.00  0.00    +0.000 A 
ATOM     17  C   UNL     1      -7.237  -3.077 131.454  0.00  0.00    +0.000 A 
BRANCH  16  18
ATOM     18  C   UNL     1      -7.344  -2.868 133.904  0.00  0.00    +0.000 C 
ATOM     19  N   UNL     1      -7.736  -2.351 134.862  0.00  0.00    +0.000 NA
ENDBRANCH  16  18
ENDBRANCH   9  12
ENDBRANCH   4   6
BRANCH   5  20
ATOM     20  C   UNL     1      -8.060   0.690 126.023  0.00  0.00    +0.000 A 
ATOM     21  C   UNL     1      -6.793   1.265 125.998  0.00  0.00    +0.000 A 
ATOM     22  C   UNL     1      -6.522   2.256 126.927  0.00  0.00    +0.000 A 
ATOM     23  C   UNL     1      -7.521   2.618 127.821  0.00  0.00    +0.000 A 
ATOM     24  N   UNL     1      -8.757   2.070 127.849  0.00  0.00    +0.000 NA
ATOM     25  C   UNL     1      -9.008   1.108 126.946  0.00  0.00    +0.000 A 
ENDBRANCH   5  20
BRANCH   1  26
ATOM     26  C   UNL     1      -9.317   1.328 123.289  0.00  0.00    +0.000 C 
BRANCH  26  28
ATOM     27  C   UNL     1      -8.337   3.121 122.071  0.00  0.00    +0.000 C 
ATOM     28  O   UNL     1      -8.100   1.962 122.868  0.00  0.00    +0.000 OA
ENDBRANCH  26  28
ENDBRANCH   1  26
TORSDOF 6
ENDMDL
