MODEL 1
REMARK VINA RESULT:     -10.9      0.000      0.000
REMARK  Name = CHEMBL279782
REMARK  7 active torsions:
REMARK  status: ('A' for Active; 'I' for Inactive)
REMARK    1  A    between atoms: C_1  and  N_2
REMARK    2  A    between atoms: N_7  and  C_8
REMARK    3  A    between atoms: C_8  and  C_9
REMARK    4  A    between atoms: N_11  and  C_12
REMARK    5  A    between atoms: C_12  and  C_13
REMARK    6  A    between atoms: C_17  and  C_18
REMARK    7  A    between atoms: C_23  and  N_24
REMARK                            x       y       z     vdW  Elec       q    Type
REMARK                         _______ _______ _______ _____ _____    ______ ____
ROOT
ATOM      1  C   UNL     1      -7.303  -1.916 128.160  0.00  0.00    +0.000 A 
ATOM      2  C   UNL     1      -7.465  -0.551 128.250  0.00  0.00    +0.000 A 
ATOM      3  C   UNL     1      -7.626  -0.239 129.619  0.00  0.00    +0.000 A 
ATOM      4  C   UNL     1      -7.836   0.947 130.352  0.00  0.00    +0.000 A 
ATOM      5  C   UNL     1      -7.990   0.869 131.743  0.00  0.00    +0.000 A 
ATOM      6  C   UNL     1      -7.971  -0.396 132.355  0.00  0.00    +0.000 A 
ATOM      7  C   UNL     1      -7.716  -1.584 131.661  0.00  0.00    +0.000 A 
ATOM      8  C   UNL     1      -7.562  -1.458 130.289  0.00  0.00    +0.000 A 
ATOM      9  O   UNL     1      -7.355  -2.478 129.404  0.00  0.00    +0.000 OA
ENDROOT
BRANCH   5  10
ATOM     10  C   UNL     1      -8.275   2.129 132.524  0.00  0.00    +0.000 C 
ATOM     11  O   UNL     1      -8.096   2.159 133.736  0.00  0.00    +0.000 OA
ATOM     12  N   UNL     1      -8.599   3.249 131.766  0.00  0.00    +0.000 N 
ATOM     13  C   UNL     1      -8.019   4.556 132.110  0.00  0.00    +0.000 C 
ATOM     14  C   UNL     1      -7.819   5.372 130.842  0.00  0.00    +0.000 C 
ATOM     15  C   UNL     1      -9.107   5.443 130.011  0.00  0.00    +0.000 C 
ATOM     16  C   UNL     1      -9.584   4.022 129.672  0.00  0.00    +0.000 C 
ATOM     17  C   UNL     1      -9.818   3.233 130.946  0.00  0.00    +0.000 C 
BRANCH  15  18
ATOM     18  N   UNL     1     -10.206   6.295 130.565  0.00  0.00    +0.000 N 
ATOM     19  C   UNL     1     -10.601   6.321 131.908  0.00  0.00    +0.000 C 
ATOM     20  O   UNL     1      -9.905   6.372 132.916  0.00  0.00    +0.000 OA
ATOM     21  O   UNL     1     -11.936   6.171 132.071  0.00  0.00    +0.000 OA
ATOM     22  C   UNL     1     -12.595   7.330 131.620  0.00  0.00    +0.000 C 
ATOM     23  C   UNL     1     -12.176   7.650 130.220  0.00  0.00    +0.000 A 
ATOM     24  C   UNL     1     -12.958   8.520 129.463  0.00  0.00    +0.000 A 
ATOM     25  C   UNL     1     -12.571   8.845 128.172  0.00  0.00    +0.000 A 
ATOM     26  C   UNL     1     -11.399   8.313 127.640  0.00  0.00    +0.000 A 
ATOM     27  C   UNL     1     -10.609   7.446 128.395  0.00  0.00    +0.000 A 
ATOM     28  C   UNL     1     -10.994   7.102 129.695  0.00  0.00    +0.000 A 
ENDBRANCH  15  18
ENDBRANCH   5  10
BRANCH   1  29
ATOM     29  C   UNL     1      -7.181  -2.805 126.983  0.00  0.00    +0.000 C 
BRANCH  29  32
ATOM     30  C   UNL     1      -6.565  -2.052 124.765  0.00  0.00    +0.000 C 
ATOM     31  O   UNL     1      -5.538  -2.702 124.942  0.00  0.00    +0.000 OA
ATOM     32  N   UNL     1      -7.532  -2.104 125.750  0.00  0.00    +0.000 N 
ATOM     33  H   UNL     1      -8.462  -1.729 125.631  0.00  0.00    +0.000 HD
BRANCH  30  34
ATOM     34  C   UNL     1      -6.854  -1.237 123.474  0.00  0.00    +0.000 C 
BRANCH  34  41
ATOM     35  C   UNL     1      -8.087   3.014 122.814  0.00  0.00    +0.000 C 
ATOM     36  N   UNL     1      -8.727   1.778 123.218  0.00  0.00    +0.000 N 
ATOM     37  C   UNL     1     -10.053   1.424 122.786  0.00  0.00    +0.000 C 
ATOM     38  C   UNL     1     -10.019   0.049 122.164  0.00  0.00    +0.000 C 
ATOM     39  C   UNL     1      -9.286  -0.898 123.090  0.00  0.00    +0.000 C 
ATOM     40  O   UNL     1      -9.726  -2.007 123.378  0.00  0.00    +0.000 OA
ATOM     41  N   UNL     1      -8.062  -0.394 123.479  0.00  0.00    +0.000 N 
ATOM     42  C   UNL     1      -8.090   0.867 124.052  0.00  0.00    +0.000 C 
ATOM     43  O   UNL     1      -7.706   1.159 125.177  0.00  0.00    +0.000 OA
ENDBRANCH  34  41
ENDBRANCH  30  34
ENDBRANCH  29  32
ENDBRANCH   1  29
TORSDOF 6
ENDMDL
MODEL 2
REMARK VINA RESULT:     -10.8      0.998      1.013
REMARK  Name = CHEMBL279782
REMARK  7 active torsions:
REMARK  status: ('A' for Active; 'I' for Inactive)
REMARK    1  A    between atoms: C_1  and  N_2
REMARK    2  A    between atoms: N_7  and  C_8
REMARK    3  A    between atoms: C_8  and  C_9
REMARK    4  A    between atoms: N_11  and  C_12
REMARK    5  A    between atoms: C_12  and  C_13
REMARK    6  A    between atoms: C_17  and  C_18
REMARK    7  A    between atoms: C_23  and  N_24
REMARK                            x       y       z     vdW  Elec       q    Type
REMARK                         _______ _______ _______ _____ _____    ______ ____
ROOT
ATOM      1  C   UNL     1      -5.840  -1.516 128.410  0.00  0.00    +0.000 A 
ATOM      2  C   UNL     1      -5.718  -0.188 128.758  0.00  0.00    +0.000 A 
ATOM      3  C   UNL     1      -6.563   0.033 129.869  0.00  0.00    +0.000 A 
ATOM      4  C   UNL     1      -6.888   1.149 130.666  0.00  0.00    +0.000 A 
ATOM      5  C   UNL     1      -7.827   1.000 131.696  0.00  0.00    +0.000 A 
ATOM      6  C   UNL     1      -8.444  -0.250 131.872  0.00  0.00    +0.000 A 
ATOM      7  C   UNL     1      -8.107  -1.387 131.128  0.00  0.00    +0.000 A 
ATOM      8  C   UNL     1      -7.168  -1.194 130.126  0.00  0.00    +0.000 A 
ATOM      9  O   UNL     1      -6.722  -2.140 129.247  0.00  0.00    +0.000 OA
ENDROOT
BRANCH   5  10
ATOM     10  C   UNL     1      -8.222   2.207 132.513  0.00  0.00    +0.000 C 
ATOM     11  O   UNL     1      -8.142   2.179 133.736  0.00  0.00    +0.000 OA
ATOM     12  N   UNL     1      -8.528   3.352 131.788  0.00  0.00    +0.000 N 
ATOM     13  C   UNL     1      -8.028   4.660 132.243  0.00  0.00    +0.000 C 
ATOM     14  C   UNL     1      -7.758   5.547 131.038  0.00  0.00    +0.000 C 
ATOM     15  C   UNL     1      -8.978   5.617 130.108  0.00  0.00    +0.000 C 
ATOM     16  C   UNL     1      -9.371   4.201 129.661  0.00  0.00    +0.000 C 
ATOM     17  C   UNL     1      -9.675   3.338 130.871  0.00  0.00    +0.000 C 
BRANCH  15  18
ATOM     18  N   UNL     1     -10.149   6.400 130.613  0.00  0.00    +0.000 N 
ATOM     19  C   UNL     1     -10.616   6.386 131.932  0.00  0.00    +0.000 C 
ATOM     20  O   UNL     1      -9.978   6.460 132.977  0.00  0.00    +0.000 OA
ATOM     21  O   UNL     1     -11.948   6.161 132.022  0.00  0.00    +0.000 OA
ATOM     22  C   UNL     1     -12.645   7.289 131.550  0.00  0.00    +0.000 C 
ATOM     23  C   UNL     1     -12.171   7.652 130.178  0.00  0.00    +0.000 A 
ATOM     24  C   UNL     1     -12.958   8.488 129.390  0.00  0.00    +0.000 A 
ATOM     25  C   UNL     1     -12.521   8.852 128.125  0.00  0.00    +0.000 A 
ATOM     26  C   UNL     1     -11.296   8.392 127.651  0.00  0.00    +0.000 A 
ATOM     27  C   UNL     1     -10.500   7.559 128.438  0.00  0.00    +0.000 A 
ATOM     28  C   UNL     1     -10.933   7.176 129.711  0.00  0.00    +0.000 A 
ENDBRANCH  15  18
ENDBRANCH   5  10
BRANCH   1  29
ATOM     29  C   UNL     1      -5.264  -2.284 127.285  0.00  0.00    +0.000 C 
BRANCH  29  32
ATOM     30  C   UNL     1      -6.084  -1.458 125.160  0.00  0.00    +0.000 C 
ATOM     31  O   UNL     1      -5.116  -0.702 125.199  0.00  0.00    +0.000 OA
ATOM     32  N   UNL     1      -6.209  -2.387 126.174  0.00  0.00    +0.000 N 
ATOM     33  H   UNL     1      -6.879  -3.143 126.152  0.00  0.00    +0.000 HD
BRANCH  30  34
ATOM     34  C   UNL     1      -7.123  -1.465 124.004  0.00  0.00    +0.000 C 
BRANCH  34  41
ATOM     35  C   UNL     1      -8.223   2.602 125.512  0.00  0.00    +0.000 C 
ATOM     36  N   UNL     1      -8.920   1.442 124.992  0.00  0.00    +0.000 N 
ATOM     37  C   UNL     1     -10.059   1.560 124.120  0.00  0.00    +0.000 C 
ATOM     38  C   UNL     1      -9.815   0.740 122.877  0.00  0.00    +0.000 C 
ATOM     39  C   UNL     1      -9.352  -0.644 123.275  0.00  0.00    +0.000 C 
ATOM     40  O   UNL     1      -9.829  -1.663 122.784  0.00  0.00    +0.000 OA
ATOM     41  N   UNL     1      -8.303  -0.600 124.170  0.00  0.00    +0.000 N 
ATOM     42  C   UNL     1      -8.525   0.149 125.314  0.00  0.00    +0.000 C 
ATOM     43  O   UNL     1      -8.484  -0.260 126.466  0.00  0.00    +0.000 OA
ENDBRANCH  34  41
ENDBRANCH  30  34
ENDBRANCH  29  32
ENDBRANCH   1  29
TORSDOF 6
ENDMDL
MODEL 3
REMARK VINA RESULT:     -10.2      1.675      2.290
REMARK  Name = CHEMBL279782
REMARK  7 active torsions:
REMARK  status: ('A' for Active; 'I' for Inactive)
REMARK    1  A    between atoms: C_1  and  N_2
REMARK    2  A    between atoms: N_7  and  C_8
REMARK    3  A    between atoms: C_8  and  C_9
REMARK    4  A    between atoms: N_11  and  C_12
REMARK    5  A    between atoms: C_12  and  C_13
REMARK    6  A    between atoms: C_17  and  C_18
REMARK    7  A    between atoms: C_23  and  N_24
REMARK                            x       y       z     vdW  Elec       q    Type
REMARK                         _______ _______ _______ _____ _____    ______ ____
ROOT
ATOM      1  C   UNL     1      -7.078  -2.058 130.246  0.00  0.00    +0.000 A 
ATOM      2  C   UNL     1      -7.729  -0.854 130.091  0.00  0.00    +0.000 A 
ATOM      3  C   UNL     1      -7.404  -0.055 131.211  0.00  0.00    +0.000 A 
ATOM      4  C   UNL     1      -7.748   1.243 131.641  0.00  0.00    +0.000 A 
ATOM      5  C   UNL     1      -7.249   1.708 132.865  0.00  0.00    +0.000 A 
ATOM      6  C   UNL     1      -6.455   0.847 133.643  0.00  0.00    +0.000 A 
ATOM      7  C   UNL     1      -6.058  -0.427 133.219  0.00  0.00    +0.000 A 
ATOM      8  C   UNL     1      -6.569  -0.842 131.999  0.00  0.00    +0.000 A 
ATOM      9  O   UNL     1      -6.360  -2.056 131.409  0.00  0.00    +0.000 OA
ENDROOT
BRANCH   5  10
ATOM     10  C   UNL     1      -7.662   3.074 133.358  0.00  0.00    +0.000 C 
ATOM     11  O   UNL     1      -7.426   3.413 134.512  0.00  0.00    +0.000 OA
ATOM     12  N   UNL     1      -8.176   3.933 132.394  0.00  0.00    +0.000 N 
ATOM     13  C   UNL     1      -7.763   5.345 132.380  0.00  0.00    +0.000 C 
ATOM     14  C   UNL     1      -7.744   5.854 130.947  0.00  0.00    +0.000 C 
ATOM     15  C   UNL     1      -9.072   5.569 130.232  0.00  0.00    +0.000 C 
ATOM     16  C   UNL     1      -9.366   4.061 130.268  0.00  0.00    +0.000 C 
ATOM     17  C   UNL     1      -9.422   3.575 131.704  0.00  0.00    +0.000 C 
BRANCH  15  18
ATOM     18  N   UNL     1     -10.246   6.389 130.666  0.00  0.00    +0.000 N 
ATOM     19  C   UNL     1     -10.770   6.415 131.964  0.00  0.00    +0.000 C 
ATOM     20  O   UNL     1     -10.177   6.500 133.034  0.00  0.00    +0.000 OA
ATOM     21  O   UNL     1     -12.109   6.222 131.999  0.00  0.00    +0.000 OA
ATOM     22  C   UNL     1     -12.759   7.354 131.471  0.00  0.00    +0.000 C 
ATOM     23  C   UNL     1     -12.217   7.674 130.114  0.00  0.00    +0.000 A 
ATOM     24  C   UNL     1     -12.949   8.508 129.273  0.00  0.00    +0.000 A 
ATOM     25  C   UNL     1     -12.449   8.834 128.021  0.00  0.00    +0.000 A 
ATOM     26  C   UNL     1     -11.215   8.336 127.612  0.00  0.00    +0.000 A 
ATOM     27  C   UNL     1     -10.474   7.504 128.452  0.00  0.00    +0.000 A 
ATOM     28  C   UNL     1     -10.971   7.161 129.713  0.00  0.00    +0.000 A 
ENDBRANCH  15  18
ENDBRANCH   5  10
BRANCH   1  29
ATOM     29  C   UNL     1      -7.115  -3.296 129.437  0.00  0.00    +0.000 C 
BRANCH  29  32
ATOM     30  C   UNL     1      -8.576  -3.501 127.515  0.00  0.00    +0.000 C 
ATOM     31  O   UNL     1      -9.359  -4.036 128.297  0.00  0.00    +0.000 OA
ATOM     32  N   UNL     1      -7.396  -3.003 128.032  0.00  0.00    +0.000 N 
ATOM     33  H   UNL     1      -6.763  -2.420 127.503  0.00  0.00    +0.000 HD
BRANCH  30  34
ATOM     34  C   UNL     1      -8.876  -3.299 126.004  0.00  0.00    +0.000 C 
BRANCH  34  41
ATOM     35  C   UNL     1      -7.841   0.967 126.874  0.00  0.00    +0.000 C 
ATOM     36  N   UNL     1      -7.774   0.073 125.734  0.00  0.00    +0.000 N 
ATOM     37  C   UNL     1      -6.671   0.093 124.809  0.00  0.00    +0.000 C 
ATOM     38  C   UNL     1      -6.108  -1.302 124.684  0.00  0.00    +0.000 C 
ATOM     39  C   UNL     1      -7.241  -2.276 124.437  0.00  0.00    +0.000 C 
ATOM     40  O   UNL     1      -7.191  -3.131 123.557  0.00  0.00    +0.000 OA
ATOM     41  N   UNL     1      -8.258  -2.129 125.357  0.00  0.00    +0.000 N 
ATOM     42  C   UNL     1      -8.779  -0.850 125.472  0.00  0.00    +0.000 C 
ATOM     43  O   UNL     1      -9.942  -0.522 125.280  0.00  0.00    +0.000 OA
ENDBRANCH  34  41
ENDBRANCH  30  34
ENDBRANCH  29  32
ENDBRANCH   1  29
TORSDOF 6
ENDMDL
MODEL 4
REMARK VINA RESULT:     -10.1      7.715     10.622
REMARK  Name = CHEMBL279782
REMARK  7 active torsions:
REMARK  status: ('A' for Active; 'I' for Inactive)
REMARK    1  A    between atoms: C_1  and  N_2
REMARK    2  A    between atoms: N_7  and  C_8
REMARK    3  A    between atoms: C_8  and  C_9
REMARK    4  A    between atoms: N_11  and  C_12
REMARK    5  A    between atoms: C_12  and  C_13
REMARK    6  A    between atoms: C_17  and  C_18
REMARK    7  A    between atoms: C_23  and  N_24
REMARK                            x       y       z     vdW  Elec       q    Type
REMARK                         _______ _______ _______ _____ _____    ______ ____
ROOT
ATOM      1  C   UNL     1      -6.379   5.205 130.725  0.00  0.00    +0.000 A 
ATOM      2  C   UNL     1      -5.934   5.222 132.030  0.00  0.00    +0.000 A 
ATOM      3  C   UNL     1      -4.875   6.155 132.098  0.00  0.00    +0.000 A 
ATOM      4  C   UNL     1      -4.017   6.614 133.118  0.00  0.00    +0.000 A 
ATOM      5  C   UNL     1      -3.024   7.552 132.802  0.00  0.00    +0.000 A 
ATOM      6  C   UNL     1      -2.891   7.971 131.466  0.00  0.00    +0.000 A 
ATOM      7  C   UNL     1      -3.757   7.569 130.443  0.00  0.00    +0.000 A 
ATOM      8  C   UNL     1      -4.729   6.648 130.804  0.00  0.00    +0.000 A 
ATOM      9  O   UNL     1      -5.649   6.079 129.970  0.00  0.00    +0.000 OA
ENDROOT
BRANCH   5  10
ATOM     10  C   UNL     1      -2.066   8.001 133.878  0.00  0.00    +0.000 C 
ATOM     11  O   UNL     1      -1.775   7.249 134.801  0.00  0.00    +0.000 OA
ATOM     12  N   UNL     1      -1.451   9.229 133.664  0.00  0.00    +0.000 N 
ATOM     13  C   UNL     1      -0.016   9.387 133.946  0.00  0.00    +0.000 C 
ATOM     14  C   UNL     1       0.586  10.389 132.972  0.00  0.00    +0.000 C 
ATOM     15  C   UNL     1      -0.210  11.701 132.953  0.00  0.00    +0.000 C 
ATOM     16  C   UNL     1      -1.676  11.413 132.597  0.00  0.00    +0.000 C 
ATOM     17  C   UNL     1      -2.275  10.444 133.599  0.00  0.00    +0.000 C 
BRANCH  15  18
ATOM     18  N   UNL     1      -0.079  12.571 134.164  0.00  0.00    +0.000 N 
ATOM     19  C   UNL     1       0.860  12.388 135.186  0.00  0.00    +0.000 C 
ATOM     20  O   UNL     1       2.059  12.145 135.097  0.00  0.00    +0.000 OA
ATOM     21  O   UNL     1       0.309  12.395 136.422  0.00  0.00    +0.000 OA
ATOM     22  C   UNL     1      -0.116  13.699 136.737  0.00  0.00    +0.000 C 
ATOM     23  C   UNL     1      -1.009  14.226 135.659  0.00  0.00    +0.000 A 
ATOM     24  C   UNL     1      -1.819  15.326 135.931  0.00  0.00    +0.000 A 
ATOM     25  C   UNL     1      -2.636  15.841 134.935  0.00  0.00    +0.000 A 
ATOM     26  C   UNL     1      -2.636  15.267 133.667  0.00  0.00    +0.000 A 
ATOM     27  C   UNL     1      -1.822  14.169 133.387  0.00  0.00    +0.000 A 
ATOM     28  C   UNL     1      -1.002  13.634 134.385  0.00  0.00    +0.000 A 
ENDBRANCH  15  18
ENDBRANCH   5  10
BRANCH   1  29
ATOM     29  C   UNL     1      -7.398   4.367 130.056  0.00  0.00    +0.000 C 
BRANCH  29  32
ATOM     30  C   UNL     1      -9.782   3.937 130.073  0.00  0.00    +0.000 C 
ATOM     31  O   UNL     1      -9.482   2.837 129.616  0.00  0.00    +0.000 OA
ATOM     32  N   UNL     1      -8.751   4.790 130.414  0.00  0.00    +0.000 N 
ATOM     33  H   UNL     1      -8.890   5.647 130.931  0.00  0.00    +0.000 HD
BRANCH  30  34
ATOM     34  C   UNL     1     -11.246   4.384 130.346  0.00  0.00    +0.000 C 
BRANCH  34  41
ATOM     35  C   UNL     1     -13.534   7.399 127.959  0.00  0.00    +0.000 C 
ATOM     36  N   UNL     1     -12.611   7.415 129.077  0.00  0.00    +0.000 N 
ATOM     37  C   UNL     1     -12.770   8.314 130.190  0.00  0.00    +0.000 C 
ATOM     38  C   UNL     1     -12.764   7.517 131.472  0.00  0.00    +0.000 C 
ATOM     39  C   UNL     1     -11.578   6.577 131.468  0.00  0.00    +0.000 C 
ATOM     40  O   UNL     1     -10.826   6.464 132.432  0.00  0.00    +0.000 OA
ATOM     41  N   UNL     1     -11.513   5.832 130.309  0.00  0.00    +0.000 N 
ATOM     42  C   UNL     1     -11.516   6.560 129.130  0.00  0.00    +0.000 C 
ATOM     43  O   UNL     1     -10.643   6.554 128.273  0.00  0.00    +0.000 OA
ENDBRANCH  34  41
ENDBRANCH  30  34
ENDBRANCH  29  32
ENDBRANCH   1  29
TORSDOF 6
ENDMDL
MODEL 5
REMARK VINA RESULT:     -10.0      4.401      6.325
REMARK  Name = CHEMBL279782
REMARK  7 active torsions:
REMARK  status: ('A' for Active; 'I' for Inactive)
REMARK    1  A    between atoms: C_1  and  N_2
REMARK    2  A    between atoms: N_7  and  C_8
REMARK    3  A    between atoms: C_8  and  C_9
REMARK    4  A    between atoms: N_11  and  C_12
REMARK    5  A    between atoms: C_12  and  C_13
REMARK    6  A    between atoms: C_17  and  C_18
REMARK    7  A    between atoms: C_23  and  N_24
REMARK                            x       y       z     vdW  Elec       q    Type
REMARK                         _______ _______ _______ _____ _____    ______ ____
ROOT
ATOM      1  C   UNL     1      -7.518  -2.012 124.768  0.00  0.00    +0.000 A 
ATOM      2  C   UNL     1      -6.494  -1.756 125.654  0.00  0.00    +0.000 A 
ATOM      3  C   UNL     1      -6.852  -2.344 126.889  0.00  0.00    +0.000 A 
ATOM      4  C   UNL     1      -6.254  -2.426 128.162  0.00  0.00    +0.000 A 
ATOM      5  C   UNL     1      -6.939  -3.081 129.195  0.00  0.00    +0.000 A 
ATOM      6  C   UNL     1      -8.220  -3.597 128.935  0.00  0.00    +0.000 A 
ATOM      7  C   UNL     1      -8.818  -3.572 127.670  0.00  0.00    +0.000 A 
ATOM      8  C   UNL     1      -8.101  -2.922 126.677  0.00  0.00    +0.000 A 
ATOM      9  O   UNL     1      -8.503  -2.731 125.386  0.00  0.00    +0.000 OA
ENDROOT
BRANCH   5  10
ATOM     10  C   UNL     1      -6.328  -3.120 130.575  0.00  0.00    +0.000 C 
ATOM     11  O   UNL     1      -6.346  -4.156 131.230  0.00  0.00    +0.000 OA
ATOM     12  N   UNL     1      -5.642  -1.975 130.964  0.00  0.00    +0.000 N 
ATOM     13  C   UNL     1      -4.351  -2.098 131.658  0.00  0.00    +0.000 C 
ATOM     14  C   UNL     1      -3.459  -0.925 131.282  0.00  0.00    +0.000 C 
ATOM     15  C   UNL     1      -4.174   0.416 131.496  0.00  0.00    +0.000 C 
ATOM     16  C   UNL     1      -5.478   0.443 130.683  0.00  0.00    +0.000 C 
ATOM     17  C   UNL     1      -6.374  -0.709 131.096  0.00  0.00    +0.000 C 
BRANCH  15  18
ATOM     18  N   UNL     1      -4.382   0.835 132.918  0.00  0.00    +0.000 N 
ATOM     19  C   UNL     1      -3.985   0.095 134.038  0.00  0.00    +0.000 C 
ATOM     20  O   UNL     1      -2.921  -0.477 134.248  0.00  0.00    +0.000 OA
ATOM     21  O   UNL     1      -4.976  -0.066 134.946  0.00  0.00    +0.000 OA
ATOM     22  C   UNL     1      -5.240   1.167 135.573  0.00  0.00    +0.000 C 
ATOM     23  C   UNL     1      -5.508   2.221 134.545  0.00  0.00    +0.000 A 
ATOM     24  C   UNL     1      -6.139   3.400 134.936  0.00  0.00    +0.000 A 
ATOM     25  C   UNL     1      -6.374   4.397 134.000  0.00  0.00    +0.000 A 
ATOM     26  C   UNL     1      -5.971   4.222 132.679  0.00  0.00    +0.000 A 
ATOM     27  C   UNL     1      -5.333   3.046 132.283  0.00  0.00    +0.000 A 
ATOM     28  C   UNL     1      -5.100   2.029 133.214  0.00  0.00    +0.000 A 
ENDBRANCH  15  18
ENDBRANCH   5  10
BRANCH   1  29
ATOM     29  C   UNL     1      -7.729  -1.573 123.371  0.00  0.00    +0.000 C 
BRANCH  29  32
ATOM     30  C   UNL     1      -9.370   0.164 122.978  0.00  0.00    +0.000 C 
ATOM     31  O   UNL     1     -10.176  -0.760 122.892  0.00  0.00    +0.000 OA
ATOM     32  N   UNL     1      -8.067  -0.153 123.307  0.00  0.00    +0.000 N 
ATOM     33  H   UNL     1      -7.373   0.541 123.545  0.00  0.00    +0.000 HD
BRANCH  30  34
ATOM     34  C   UNL     1      -9.757   1.659 122.803  0.00  0.00    +0.000 C 
BRANCH  34  41
ATOM     35  C   UNL     1      -6.074   2.483 125.207  0.00  0.00    +0.000 C 
ATOM     36  N   UNL     1      -6.812   3.138 124.145  0.00  0.00    +0.000 N 
ATOM     37  C   UNL     1      -6.155   3.837 123.072  0.00  0.00    +0.000 C 
ATOM     38  C   UNL     1      -6.663   3.306 121.754  0.00  0.00    +0.000 C 
ATOM     39  C   UNL     1      -8.176   3.279 121.777  0.00  0.00    +0.000 C 
ATOM     40  O   UNL     1      -8.854   3.718 120.852  0.00  0.00    +0.000 OA
ATOM     41  N   UNL     1      -8.663   2.641 122.899  0.00  0.00    +0.000 N 
ATOM     42  C   UNL     1      -8.202   3.128 124.111  0.00  0.00    +0.000 C 
ATOM     43  O   UNL     1      -8.887   3.588 125.015  0.00  0.00    +0.000 OA
ENDBRANCH  34  41
ENDBRANCH  30  34
ENDBRANCH  29  32
ENDBRANCH   1  29
TORSDOF 6
ENDMDL
MODEL 6
REMARK VINA RESULT:     -10.0      7.769     10.525
REMARK  Name = CHEMBL279782
REMARK  7 active torsions:
REMARK  status: ('A' for Active; 'I' for Inactive)
REMARK    1  A    between atoms: C_1  and  N_2
REMARK    2  A    between atoms: N_7  and  C_8
REMARK    3  A    between atoms: C_8  and  C_9
REMARK    4  A    between atoms: N_11  and  C_12
REMARK    5  A    between atoms: C_12  and  C_13
REMARK    6  A    between atoms: C_17  and  C_18
REMARK    7  A    between atoms: C_23  and  N_24
REMARK                            x       y       z     vdW  Elec       q    Type
REMARK                         _______ _______ _______ _____ _____    ______ ____
ROOT
ATOM      1  C   UNL     1      -5.756   5.774 131.333  0.00  0.00    +0.000 A 
ATOM      2  C   UNL     1      -4.662   6.610 131.272  0.00  0.00    +0.000 A 
ATOM      3  C   UNL     1      -4.160   6.739 132.587  0.00  0.00    +0.000 A 
ATOM      4  C   UNL     1      -3.093   7.444 133.180  0.00  0.00    +0.000 A 
ATOM      5  C   UNL     1      -2.911   7.362 134.567  0.00  0.00    +0.000 A 
ATOM      6  C   UNL     1      -3.827   6.613 135.326  0.00  0.00    +0.000 A 
ATOM      7  C   UNL     1      -4.866   5.865 134.760  0.00  0.00    +0.000 A 
ATOM      8  C   UNL     1      -5.002   5.969 133.384  0.00  0.00    +0.000 A 
ATOM      9  O   UNL     1      -5.967   5.373 132.622  0.00  0.00    +0.000 OA
ENDROOT
BRANCH   5  10
ATOM     10  C   UNL     1      -1.806   8.162 135.214  0.00  0.00    +0.000 C 
ATOM     11  O   UNL     1      -1.148   7.681 136.129  0.00  0.00    +0.000 OA
ATOM     12  N   UNL     1      -1.511   9.380 134.612  0.00  0.00    +0.000 N 
ATOM     13  C   UNL     1      -0.108   9.781 134.426  0.00  0.00    +0.000 C 
ATOM     14  C   UNL     1       0.019  10.608 133.155  0.00  0.00    +0.000 C 
ATOM     15  C   UNL     1      -0.986  11.769 133.138  0.00  0.00    +0.000 C 
ATOM     16  C   UNL     1      -2.414  11.220 133.288  0.00  0.00    +0.000 C 
ATOM     17  C   UNL     1      -2.536  10.431 134.578  0.00  0.00    +0.000 C 
BRANCH  15  18
ATOM     18  N   UNL     1      -0.709  12.898 134.081  0.00  0.00    +0.000 N 
ATOM     19  C   UNL     1       0.310  12.909 135.041  0.00  0.00    +0.000 C 
ATOM     20  O   UNL     1       1.483  12.574 134.925  0.00  0.00    +0.000 OA
ATOM     21  O   UNL     1      -0.128  13.253 136.275  0.00  0.00    +0.000 OA
ATOM     22  C   UNL     1      -0.464  14.620 136.287  0.00  0.00    +0.000 C 
ATOM     23  C   UNL     1      -1.426  14.925 135.183  0.00  0.00    +0.000 A 
ATOM     24  C   UNL     1      -2.159  16.108 135.233  0.00  0.00    +0.000 A 
ATOM     25  C   UNL     1      -3.038  16.417 134.205  0.00  0.00    +0.000 A 
ATOM     26  C   UNL     1      -3.178  15.551 133.124  0.00  0.00    +0.000 A 
ATOM     27  C   UNL     1      -2.442  14.368 133.065  0.00  0.00    +0.000 A 
ATOM     28  C   UNL     1      -1.560  14.040 134.099  0.00  0.00    +0.000 A 
ENDBRANCH  15  18
ENDBRANCH   5  10
BRANCH   1  29
ATOM     29  C   UNL     1      -6.718   5.353 130.292  0.00  0.00    +0.000 C 
BRANCH  29  32
ATOM     30  C   UNL     1      -9.093   5.107 129.880  0.00  0.00    +0.000 C 
ATOM     31  O   UNL     1      -8.750   4.570 128.829  0.00  0.00    +0.000 OA
ATOM     32  N   UNL     1      -8.097   5.485 130.759  0.00  0.00    +0.000 N 
ATOM     33  H   UNL     1      -8.281   5.794 131.703  0.00  0.00    +0.000 HD
BRANCH  30  34
ATOM     34  C   UNL     1     -10.576   5.317 130.292  0.00  0.00    +0.000 C 
BRANCH  34  41
ATOM     35  C   UNL     1     -10.853   7.803 126.581  0.00  0.00    +0.000 C 
ATOM     36  N   UNL     1     -11.353   7.871 127.940  0.00  0.00    +0.000 N 
ATOM     37  C   UNL     1     -12.676   8.350 128.247  0.00  0.00    +0.000 C 
ATOM     38  C   UNL     1     -13.391   7.319 129.085  0.00  0.00    +0.000 C 
ATOM     39  C   UNL     1     -12.494   6.897 130.229  0.00  0.00    +0.000 C 
ATOM     40  O   UNL     1     -12.895   6.828 131.387  0.00  0.00    +0.000 OA
ATOM     41  N   UNL     1     -11.237   6.535 129.791  0.00  0.00    +0.000 N 
ATOM     42  C   UNL     1     -10.576   7.480 129.023  0.00  0.00    +0.000 C 
ATOM     43  O   UNL     1      -9.498   7.998 129.281  0.00  0.00    +0.000 OA
ENDBRANCH  34  41
ENDBRANCH  30  34
ENDBRANCH  29  32
ENDBRANCH   1  29
TORSDOF 6
ENDMDL
MODEL 7
REMARK VINA RESULT:      -9.7      5.077      7.946
REMARK  Name = CHEMBL279782
REMARK  7 active torsions:
REMARK  status: ('A' for Active; 'I' for Inactive)
REMARK    1  A    between atoms: C_1  and  N_2
REMARK    2  A    between atoms: N_7  and  C_8
REMARK    3  A    between atoms: C_8  and  C_9
REMARK    4  A    between atoms: N_11  and  C_12
REMARK    5  A    between atoms: C_12  and  C_13
REMARK    6  A    between atoms: C_17  and  C_18
REMARK    7  A    between atoms: C_23  and  N_24
REMARK                            x       y       z     vdW  Elec       q    Type
REMARK                         _______ _______ _______ _____ _____    ______ ____
ROOT
ATOM      1  C   UNL     1      -8.117  -1.914 125.737  0.00  0.00    +0.000 A 
ATOM      2  C   UNL     1      -8.548  -2.756 126.740  0.00  0.00    +0.000 A 
ATOM      3  C   UNL     1      -7.529  -2.794 127.719  0.00  0.00    +0.000 A 
ATOM      4  C   UNL     1      -7.357  -3.459 128.951  0.00  0.00    +0.000 A 
ATOM      5  C   UNL     1      -6.161  -3.281 129.658  0.00  0.00    +0.000 A 
ATOM      6  C   UNL     1      -5.154  -2.479 129.093  0.00  0.00    +0.000 A 
ATOM      7  C   UNL     1      -5.315  -1.770 127.897  0.00  0.00    +0.000 A 
ATOM      8  C   UNL     1      -6.517  -1.969 127.236  0.00  0.00    +0.000 A 
ATOM      9  O   UNL     1      -6.877  -1.424 126.036  0.00  0.00    +0.000 OA
ENDROOT
BRANCH   5  10
ATOM     10  C   UNL     1      -5.948  -4.037 130.947  0.00  0.00    +0.000 C 
ATOM     11  O   UNL     1      -5.701  -5.238 130.927  0.00  0.00    +0.000 OA
ATOM     12  N   UNL     1      -5.909  -3.263 132.101  0.00  0.00    +0.000 N 
ATOM     13  C   UNL     1      -4.894  -3.538 133.131  0.00  0.00    +0.000 C 
ATOM     14  C   UNL     1      -4.498  -2.237 133.812  0.00  0.00    +0.000 C 
ATOM     15  C   UNL     1      -5.729  -1.469 134.315  0.00  0.00    +0.000 C 
ATOM     16  C   UNL     1      -6.685  -1.198 133.144  0.00  0.00    +0.000 C 
ATOM     17  C   UNL     1      -7.103  -2.505 132.499  0.00  0.00    +0.000 C 
BRANCH  15  18
ATOM     18  N   UNL     1      -6.432  -2.051 135.501  0.00  0.00    +0.000 N 
ATOM     19  C   UNL     1      -7.299  -3.149 135.460  0.00  0.00    +0.000 C 
ATOM     20  O   UNL     1      -7.162  -4.220 134.879  0.00  0.00    +0.000 OA
ATOM     21  O   UNL     1      -8.480  -2.916 136.080  0.00  0.00    +0.000 OA
ATOM     22  C   UNL     1      -8.272  -2.846 137.470  0.00  0.00    +0.000 C 
ATOM     23  C   UNL     1      -7.203  -1.847 137.782  0.00  0.00    +0.000 A 
ATOM     24  C   UNL     1      -7.093  -1.359 139.082  0.00  0.00    +0.000 A 
ATOM     25  C   UNL     1      -6.092  -0.450 139.393  0.00  0.00    +0.000 A 
ATOM     26  C   UNL     1      -5.195  -0.038 138.411  0.00  0.00    +0.000 A 
ATOM     27  C   UNL     1      -5.296  -0.528 137.109  0.00  0.00    +0.000 A 
ATOM     28  C   UNL     1      -6.307  -1.436 136.780  0.00  0.00    +0.000 A 
ENDBRANCH  15  18
ENDBRANCH   5  10
BRANCH   1  29
ATOM     29  C   UNL     1      -8.723  -1.564 124.433  0.00  0.00    +0.000 C 
BRANCH  29  32
ATOM     30  C   UNL     1      -9.665   0.308 123.218  0.00  0.00    +0.000 C 
ATOM     31  O   UNL     1     -10.112  -0.546 122.456  0.00  0.00    +0.000 OA
ATOM     32  N   UNL     1      -8.984  -0.129 124.337  0.00  0.00    +0.000 N 
ATOM     33  H   UNL     1      -8.712   0.483 125.093  0.00  0.00    +0.000 HD
BRANCH  30  34
ATOM     34  C   UNL     1      -9.884   1.834 123.022  0.00  0.00    +0.000 C 
BRANCH  34  41
ATOM     35  C   UNL     1      -6.206   2.386 125.512  0.00  0.00    +0.000 C 
ATOM     36  N   UNL     1      -6.831   3.052 124.385  0.00  0.00    +0.000 N 
ATOM     37  C   UNL     1      -6.064   3.602 123.298  0.00  0.00    +0.000 C 
ATOM     38  C   UNL     1      -6.589   3.049 121.996  0.00  0.00    +0.000 C 
ATOM     39  C   UNL     1      -8.095   3.195 121.963  0.00  0.00    +0.000 C 
ATOM     40  O   UNL     1      -8.689   3.648 120.989  0.00  0.00    +0.000 OA
ATOM     41  N   UNL     1      -8.687   2.690 123.101  0.00  0.00    +0.000 N 
ATOM     42  C   UNL     1      -8.210   3.197 124.299  0.00  0.00    +0.000 C 
ATOM     43  O   UNL     1      -8.865   3.788 125.147  0.00  0.00    +0.000 OA
ENDBRANCH  34  41
ENDBRANCH  30  34
ENDBRANCH  29  32
ENDBRANCH   1  29
TORSDOF 6
ENDMDL
MODEL 8
REMARK VINA RESULT:      -9.5      8.601     11.650
REMARK  Name = CHEMBL279782
REMARK  7 active torsions:
REMARK  status: ('A' for Active; 'I' for Inactive)
REMARK    1  A    between atoms: C_1  and  N_2
REMARK    2  A    between atoms: N_7  and  C_8
REMARK    3  A    between atoms: C_8  and  C_9
REMARK    4  A    between atoms: N_11  and  C_12
REMARK    5  A    between atoms: C_12  and  C_13
REMARK    6  A    between atoms: C_17  and  C_18
REMARK    7  A    between atoms: C_23  and  N_24
REMARK                            x       y       z     vdW  Elec       q    Type
REMARK                         _______ _______ _______ _____ _____    ______ ____
ROOT
ATOM      1  C   UNL     1      -5.892   5.797 133.476  0.00  0.00    +0.000 A 
ATOM      2  C   UNL     1      -4.972   6.096 134.457  0.00  0.00    +0.000 A 
ATOM      3  C   UNL     1      -3.900   6.773 133.833  0.00  0.00    +0.000 A 
ATOM      4  C   UNL     1      -2.678   7.321 134.273  0.00  0.00    +0.000 A 
ATOM      5  C   UNL     1      -1.817   7.906 133.334  0.00  0.00    +0.000 A 
ATOM      6  C   UNL     1      -2.185   7.889 131.977  0.00  0.00    +0.000 A 
ATOM      7  C   UNL     1      -3.412   7.396 131.518  0.00  0.00    +0.000 A 
ATOM      8  C   UNL     1      -4.234   6.835 132.483  0.00  0.00    +0.000 A 
ATOM      9  O   UNL     1      -5.450   6.251 132.265  0.00  0.00    +0.000 OA
ENDROOT
BRANCH   5  10
ATOM     10  C   UNL     1      -0.481   8.440 133.791  0.00  0.00    +0.000 C 
ATOM     11  O   UNL     1       0.430   7.669 134.071  0.00  0.00    +0.000 OA
ATOM     12  N   UNL     1      -0.329   9.820 133.727  0.00  0.00    +0.000 N 
ATOM     13  C   UNL     1       0.927  10.393 133.218  0.00  0.00    +0.000 C 
ATOM     14  C   UNL     1       0.633  11.703 132.502  0.00  0.00    +0.000 C 
ATOM     15  C   UNL     1      -0.192  12.651 133.382  0.00  0.00    +0.000 C 
ATOM     16  C   UNL     1      -1.498  11.961 133.806  0.00  0.00    +0.000 C 
ATOM     17  C   UNL     1      -1.189  10.677 134.553  0.00  0.00    +0.000 C 
BRANCH  15  18
ATOM     18  N   UNL     1       0.526  13.271 134.540  0.00  0.00    +0.000 N 
ATOM     19  C   UNL     1       1.858  13.016 134.887  0.00  0.00    +0.000 C 
ATOM     20  O   UNL     1       2.846  12.960 134.164  0.00  0.00    +0.000 OA
ATOM     21  O   UNL     1       2.015  12.700 136.194  0.00  0.00    +0.000 OA
ATOM     22  C   UNL     1       1.792  13.845 136.982  0.00  0.00    +0.000 C 
ATOM     23  C   UNL     1       0.465  14.451 136.648  0.00  0.00    +0.000 A 
ATOM     24  C   UNL     1      -0.109  15.354 137.540  0.00  0.00    +0.000 A 
ATOM     25  C   UNL     1      -1.327  15.942 137.234  0.00  0.00    +0.000 A 
ATOM     26  C   UNL     1      -1.966  15.639 136.035  0.00  0.00    +0.000 A 
ATOM     27  C   UNL     1      -1.393  14.740 135.135  0.00  0.00    +0.000 A 
ATOM     28  C   UNL     1      -0.171  14.133 135.436  0.00  0.00    +0.000 A 
ENDBRANCH  15  18
ENDBRANCH   5  10
BRANCH   1  29
ATOM     29  C   UNL     1      -7.155   5.028 133.528  0.00  0.00    +0.000 C 
BRANCH  29  32
ATOM     30  C   UNL     1      -9.380   5.226 132.590  0.00  0.00    +0.000 C 
ATOM     31  O   UNL     1      -9.356   3.999 132.540  0.00  0.00    +0.000 OA
ATOM     32  N   UNL     1      -8.300   5.863 133.168  0.00  0.00    +0.000 N 
ATOM     33  H   UNL     1      -8.293   6.849 133.390  0.00  0.00    +0.000 HD
BRANCH  30  34
ATOM     34  C   UNL     1     -10.582   6.082 132.103  0.00  0.00    +0.000 C 
BRANCH  34  41
ATOM     35  C   UNL     1     -13.567   6.794 128.845  0.00  0.00    +0.000 C 
ATOM     36  N   UNL     1     -12.125   6.691 128.955  0.00  0.00    +0.000 N 
ATOM     37  C   UNL     1     -11.236   7.532 128.197  0.00  0.00    +0.000 C 
ATOM     38  C   UNL     1     -10.271   8.206 129.140  0.00  0.00    +0.000 C 
ATOM     39  C   UNL     1      -9.669   7.168 130.063  0.00  0.00    +0.000 C 
ATOM     40  O   UNL     1      -8.463   7.106 130.283  0.00  0.00    +0.000 OA
ATOM     41  N   UNL     1     -10.636   6.389 130.663  0.00  0.00    +0.000 N 
ATOM     42  C   UNL     1     -11.523   5.767 129.800  0.00  0.00    +0.000 C 
ATOM     43  O   UNL     1     -11.707   4.561 129.697  0.00  0.00    +0.000 OA
ENDBRANCH  34  41
ENDBRANCH  30  34
ENDBRANCH  29  32
ENDBRANCH   1  29
TORSDOF 6
ENDMDL
MODEL 9
REMARK VINA RESULT:      -9.5      6.440     12.250
REMARK  Name = CHEMBL279782
REMARK  7 active torsions:
REMARK  status: ('A' for Active; 'I' for Inactive)
REMARK    1  A    between atoms: C_1  and  N_2
REMARK    2  A    between atoms: N_7  and  C_8
REMARK    3  A    between atoms: C_8  and  C_9
REMARK    4  A    between atoms: N_11  and  C_12
REMARK    5  A    between atoms: C_12  and  C_13
REMARK    6  A    between atoms: C_17  and  C_18
REMARK    7  A    between atoms: C_23  and  N_24
REMARK                            x       y       z     vdW  Elec       q    Type
REMARK                         _______ _______ _______ _____ _____    ______ ____
ROOT
ATOM      1  C   UNL     1      -3.204   6.182 131.083  0.00  0.00    +0.000 A 
ATOM      2  C   UNL     1      -4.458   5.646 131.286  0.00  0.00    +0.000 A 
ATOM      3  C   UNL     1      -4.914   5.166 130.036  0.00  0.00    +0.000 A 
ATOM      4  C   UNL     1      -6.090   4.535 129.582  0.00  0.00    +0.000 A 
ATOM      5  C   UNL     1      -6.212   4.224 128.221  0.00  0.00    +0.000 A 
ATOM      6  C   UNL     1      -5.174   4.591 127.347  0.00  0.00    +0.000 A 
ATOM      7  C   UNL     1      -3.976   5.174 127.777  0.00  0.00    +0.000 A 
ATOM      8  C   UNL     1      -3.896   5.456 129.132  0.00  0.00    +0.000 A 
ATOM      9  O   UNL     1      -2.851   6.065 129.768  0.00  0.00    +0.000 OA
ENDROOT
BRANCH   5  10
ATOM     10  C   UNL     1      -7.493   3.603 127.720  0.00  0.00    +0.000 C 
ATOM     11  O   UNL     1      -8.575   3.971 128.164  0.00  0.00    +0.000 OA
ATOM     12  N   UNL     1      -7.360   2.724 126.651  0.00  0.00    +0.000 N 
ATOM     13  C   UNL     1      -8.317   2.780 125.535  0.00  0.00    +0.000 C 
ATOM     14  C   UNL     1      -7.612   2.402 124.242  0.00  0.00    +0.000 C 
ATOM     15  C   UNL     1      -6.867   1.067 124.379  0.00  0.00    +0.000 C 
ATOM     16  C   UNL     1      -5.864   1.149 125.539  0.00  0.00    +0.000 C 
ATOM     17  C   UNL     1      -6.586   1.489 126.829  0.00  0.00    +0.000 C 
BRANCH  15  18
ATOM     18  N   UNL     1      -7.719  -0.161 124.450  0.00  0.00    +0.000 N 
ATOM     19  C   UNL     1      -9.104  -0.166 124.649  0.00  0.00    +0.000 C 
ATOM     20  O   UNL     1      -9.963   0.531 124.119  0.00  0.00    +0.000 OA
ATOM     21  O   UNL     1      -9.495  -1.002 125.640  0.00  0.00    +0.000 OA
ATOM     22  C   UNL     1      -9.324  -2.335 125.222  0.00  0.00    +0.000 C 
ATOM     23  C   UNL     1      -7.921  -2.551 124.749  0.00  0.00    +0.000 A 
ATOM     24  C   UNL     1      -7.438  -3.853 124.638  0.00  0.00    +0.000 A 
ATOM     25  C   UNL     1      -6.148  -4.071 124.179  0.00  0.00    +0.000 A 
ATOM     26  C   UNL     1      -5.344  -2.993 123.819  0.00  0.00    +0.000 A 
ATOM     27  C   UNL     1      -5.824  -1.687 123.922  0.00  0.00    +0.000 A 
ATOM     28  C   UNL     1      -7.119  -1.453 124.393  0.00  0.00    +0.000 A 
ENDBRANCH  15  18
ENDBRANCH   5  10
BRANCH   1  29
ATOM     29  C   UNL     1      -2.293   6.898 132.002  0.00  0.00    +0.000 C 
BRANCH  29  32
ATOM     30  C   UNL     1      -1.766   9.126 132.794  0.00  0.00    +0.000 C 
ATOM     31  O   UNL     1      -0.704   8.631 133.165  0.00  0.00    +0.000 OA
ATOM     32  N   UNL     1      -2.641   8.314 132.099  0.00  0.00    +0.000 N 
ATOM     33  H   UNL     1      -3.463   8.664 131.628  0.00  0.00    +0.000 HD
BRANCH  30  34
ATOM     34  C   UNL     1      -2.138  10.620 133.007  0.00  0.00    +0.000 C 
BRANCH  34  41
ATOM     35  C   UNL     1       1.464  11.089 135.622  0.00  0.00    +0.000 C 
ATOM     36  N   UNL     1       0.788  11.867 134.602  0.00  0.00    +0.000 N 
ATOM     37  C   UNL     1       1.509  12.645 133.629  0.00  0.00    +0.000 C 
ATOM     38  C   UNL     1       1.043  12.260 132.246  0.00  0.00    +0.000 C 
ATOM     39  C   UNL     1      -0.470  12.280 132.207  0.00  0.00    +0.000 C 
ATOM     40  O   UNL     1      -1.097  12.827 131.304  0.00  0.00    +0.000 OA
ATOM     41  N   UNL     1      -1.022  11.552 133.241  0.00  0.00    +0.000 N 
ATOM     42  C   UNL     1      -0.598  11.905 134.512  0.00  0.00    +0.000 C 
ATOM     43  O   UNL     1      -1.307  12.297 135.430  0.00  0.00    +0.000 OA
ENDBRANCH  34  41
ENDBRANCH  30  34
ENDBRANCH  29  32
ENDBRANCH   1  29
TORSDOF 6
ENDMDL
