MODEL 1
REMARK VINA RESULT:      -7.9      0.000      0.000
REMARK  Name = CHEMBL539665
REMARK  7 active torsions:
REMARK  status: ('A' for Active; 'I' for Inactive)
REMARK    1  A    between atoms: C_1  and  O_2
REMARK    2  A    between atoms: O_2  and  C_3
REMARK    3  A    between atoms: C_6  and  N_7
REMARK    4  A    between atoms: C_8  and  C_9
REMARK    5  A    between atoms: C_12  and  C_13
REMARK    6  A    between atoms: C_16  and  O_17
REMARK    7  A    between atoms: O_17  and  C_18
REMARK                            x       y       z     vdW  Elec       q    Type
REMARK                         _______ _______ _______ _____ _____    ______ ____
ROOT
ATOM      1  N   UNL     1      -6.731   3.548 132.433  0.00  0.00    +0.000 N 
ATOM      2  C   UNL     1      -6.163   2.430 133.032  0.00  0.00    +0.000 A 
ATOM      3  C   UNL     1      -4.730   2.037 133.083  0.00  0.00    +0.000 C 
ATOM      4  N   UNL     1      -7.101   1.778 133.693  0.00  0.00    +0.000 NA
ATOM      5  N   UNL     1      -8.284   2.442 133.542  0.00  0.00    +0.000 NA
ATOM      6  C   UNL     1      -8.082   3.501 132.774  0.00  0.00    +0.000 A 
ENDROOT
BRANCH   1  10
ATOM      7  C   UNL     1      -4.933   6.576 130.186  0.00  0.00    +0.000 A 
ATOM      8  C   UNL     1      -5.038   6.735 131.561  0.00  0.00    +0.000 A 
ATOM      9  C   UNL     1      -5.641   5.726 132.318  0.00  0.00    +0.000 A 
ATOM     10  C   UNL     1      -6.098   4.571 131.683  0.00  0.00    +0.000 A 
ATOM     11  C   UNL     1      -5.991   4.504 130.303  0.00  0.00    +0.000 A 
ATOM     12  N   UNL     1      -5.429   5.489 129.550  0.00  0.00    +0.000 NA
BRANCH   7  14
ATOM     13  C   UNL     1      -3.295   7.134 128.568  0.00  0.00    +0.000 C 
ATOM     14  O   UNL     1      -4.413   7.538 129.358  0.00  0.00    +0.000 OA
ENDBRANCH   7  14
ENDBRANCH   1  10
BRANCH   6  15
ATOM     15  C   UNL     1      -9.129   4.370 132.251  0.00  0.00    +0.000 A 
ATOM     16  C   UNL     1      -9.472   5.566 132.880  0.00  0.00    +0.000 A 
ATOM     17  N   UNL     1     -10.467   6.380 132.444  0.00  0.00    +0.000 NA
ATOM     18  C   UNL     1     -11.101   5.979 131.320  0.00  0.00    +0.000 A 
ATOM     19  C   UNL     1     -10.739   4.803 130.666  0.00  0.00    +0.000 A 
ATOM     20  N   UNL     1      -9.759   3.970 131.118  0.00  0.00    +0.000 NA
BRANCH  18  21
ATOM     21  O   UNL     1     -12.179   6.689 130.807  0.00  0.00    +0.000 OA
BRANCH  21  22
ATOM     22  C   UNL     1     -12.094   7.172 129.520  0.00  0.00    +0.000 A 
ATOM     23  C   UNL     1     -13.072   6.761 128.610  0.00  0.00    +0.000 A 
ATOM     24  C   UNL     1     -12.975   7.123 127.264  0.00  0.00    +0.000 A 
ATOM     25  C   UNL     1     -11.918   7.925 126.832  0.00  0.00    +0.000 A 
ATOM     26  C   UNL     1     -10.935   8.326 127.737  0.00  0.00    +0.000 A 
ATOM     27  C   UNL     1     -11.010   7.931 129.076  0.00  0.00    +0.000 A 
ENDBRANCH  21  22
ENDBRANCH  18  21
ENDBRANCH   6  15
TORSDOF 5
ENDMDL
MODEL 2
REMARK VINA RESULT:      -7.7      6.342      8.485
REMARK  Name = CHEMBL539665
REMARK  7 active torsions:
REMARK  status: ('A' for Active; 'I' for Inactive)
REMARK    1  A    between atoms: C_1  and  O_2
REMARK    2  A    between atoms: O_2  and  C_3
REMARK    3  A    between atoms: C_6  and  N_7
REMARK    4  A    between atoms: C_8  and  C_9
REMARK    5  A    between atoms: C_12  and  C_13
REMARK    6  A    between atoms: C_16  and  O_17
REMARK    7  A    between atoms: O_17  and  C_18
REMARK                            x       y       z     vdW  Elec       q    Type
REMARK                         _______ _______ _______ _____ _____    ______ ____
ROOT
ATOM      1  N   UNL     1      -6.558   3.212 123.127  0.00  0.00    +0.000 N 
ATOM      2  C   UNL     1      -5.754   3.693 122.100  0.00  0.00    +0.000 A 
ATOM      3  C   UNL     1      -5.636   3.189 120.706  0.00  0.00    +0.000 C 
ATOM      4  N   UNL     1      -5.155   4.796 122.509  0.00  0.00    +0.000 NA
ATOM      5  N   UNL     1      -5.545   5.056 123.791  0.00  0.00    +0.000 NA
ATOM      6  C   UNL     1      -6.377   4.105 124.183  0.00  0.00    +0.000 A 
ENDROOT
BRANCH   1  10
ATOM      7  C   UNL     1      -9.124  -0.083 123.185  0.00  0.00    +0.000 A 
ATOM      8  C   UNL     1      -9.654   1.174 122.934  0.00  0.00    +0.000 A 
ATOM      9  C   UNL     1      -8.801   2.281 122.915  0.00  0.00    +0.000 A 
ATOM     10  C   UNL     1      -7.434   2.098 123.121  0.00  0.00    +0.000 A 
ATOM     11  C   UNL     1      -6.987   0.817 123.403  0.00  0.00    +0.000 A 
ATOM     12  N   UNL     1      -7.809  -0.267 123.448  0.00  0.00    +0.000 NA
BRANCH   7  14
ATOM     13  C   UNL     1      -9.175  -2.449 123.292  0.00  0.00    +0.000 C 
ATOM     14  O   UNL     1      -9.892  -1.216 123.282  0.00  0.00    +0.000 OA
ENDBRANCH   7  14
ENDBRANCH   1  10
BRANCH   6  15
ATOM     15  C   UNL     1      -6.886   3.942 125.540  0.00  0.00    +0.000 A 
ATOM     16  C   UNL     1      -7.944   4.709 126.024  0.00  0.00    +0.000 A 
ATOM     17  N   UNL     1      -8.417   4.612 127.292  0.00  0.00    +0.000 NA
ATOM     18  C   UNL     1      -7.817   3.685 128.071  0.00  0.00    +0.000 A 
ATOM     19  C   UNL     1      -6.783   2.890 127.582  0.00  0.00    +0.000 A 
ATOM     20  N   UNL     1      -6.288   3.005 126.318  0.00  0.00    +0.000 NA
BRANCH  18  21
ATOM     21  O   UNL     1      -8.165   3.531 129.407  0.00  0.00    +0.000 OA
BRANCH  21  22
ATOM     22  C   UNL     1      -8.913   4.519 130.009  0.00  0.00    +0.000 A 
ATOM     23  C   UNL     1      -8.231   5.640 130.494  0.00  0.00    +0.000 A 
ATOM     24  C   UNL     1      -8.918   6.620 131.215  0.00  0.00    +0.000 A 
ATOM     25  C   UNL     1     -10.292   6.498 131.425  0.00  0.00    +0.000 A 
ATOM     26  C   UNL     1     -10.970   5.375 130.951  0.00  0.00    +0.000 A 
ATOM     27  C   UNL     1     -10.277   4.374 130.264  0.00  0.00    +0.000 A 
ENDBRANCH  21  22
ENDBRANCH  18  21
ENDBRANCH   6  15
TORSDOF 5
ENDMDL
MODEL 3
REMARK VINA RESULT:      -7.7      7.536      8.859
REMARK  Name = CHEMBL539665
REMARK  7 active torsions:
REMARK  status: ('A' for Active; 'I' for Inactive)
REMARK    1  A    between atoms: C_1  and  O_2
REMARK    2  A    between atoms: O_2  and  C_3
REMARK    3  A    between atoms: C_6  and  N_7
REMARK    4  A    between atoms: C_8  and  C_9
REMARK    5  A    between atoms: C_12  and  C_13
REMARK    6  A    between atoms: C_16  and  O_17
REMARK    7  A    between atoms: O_17  and  C_18
REMARK                            x       y       z     vdW  Elec       q    Type
REMARK                         _______ _______ _______ _____ _____    ______ ____
ROOT
ATOM      1  N   UNL     1      -8.223  -2.051 126.755  0.00  0.00    +0.000 N 
ATOM      2  C   UNL     1      -9.018  -3.190 126.832  0.00  0.00    +0.000 A 
ATOM      3  C   UNL     1      -9.012  -4.250 127.874  0.00  0.00    +0.000 C 
ATOM      4  N   UNL     1      -9.915  -3.150 125.864  0.00  0.00    +0.000 NA
ATOM      5  N   UNL     1      -9.730  -2.005 125.143  0.00  0.00    +0.000 NA
ATOM      6  C   UNL     1      -8.707  -1.341 125.656  0.00  0.00    +0.000 A 
ENDROOT
BRANCH   1  10
ATOM      7  C   UNL     1      -5.192  -0.857 129.367  0.00  0.00    +0.000 A 
ATOM      8  C   UNL     1      -4.888  -1.758 128.356  0.00  0.00    +0.000 A 
ATOM      9  C   UNL     1      -5.899  -2.163 127.480  0.00  0.00    +0.000 A 
ATOM     10  C   UNL     1      -7.182  -1.635 127.621  0.00  0.00    +0.000 A 
ATOM     11  C   UNL     1      -7.415  -0.770 128.678  0.00  0.00    +0.000 A 
ATOM     12  N   UNL     1      -6.446  -0.385 129.554  0.00  0.00    +0.000 NA
BRANCH   7  14
ATOM     13  C   UNL     1      -3.546  -1.494 130.948  0.00  0.00    +0.000 C 
ATOM     14  O   UNL     1      -4.280  -0.451 130.308  0.00  0.00    +0.000 OA
ENDBRANCH   7  14
ENDBRANCH   1  10
BRANCH   6  15
ATOM     15  C   UNL     1      -8.099  -0.153 125.068  0.00  0.00    +0.000 A 
ATOM     16  C   UNL     1      -8.318   1.120 125.594  0.00  0.00    +0.000 A 
ATOM     17  N   UNL     1      -7.802   2.251 125.050  0.00  0.00    +0.000 NA
ATOM     18  C   UNL     1      -7.014   2.072 123.967  0.00  0.00    +0.000 A 
ATOM     19  C   UNL     1      -6.761   0.799 123.458  0.00  0.00    +0.000 A 
ATOM     20  N   UNL     1      -7.302  -0.335 123.985  0.00  0.00    +0.000 NA
BRANCH  18  21
ATOM     21  O   UNL     1      -6.476   3.152 123.279  0.00  0.00    +0.000 OA
BRANCH  21  22
ATOM     22  C   UNL     1      -6.954   3.430 122.017  0.00  0.00    +0.000 A 
ATOM     23  C   UNL     1      -6.025   3.823 121.048  0.00  0.00    +0.000 A 
ATOM     24  C   UNL     1      -6.460   4.230 119.783  0.00  0.00    +0.000 A 
ATOM     25  C   UNL     1      -7.821   4.212 119.475  0.00  0.00    +0.000 A 
ATOM     26  C   UNL     1      -8.748   3.831 120.444  0.00  0.00    +0.000 A 
ATOM     27  C   UNL     1      -8.317   3.463 121.722  0.00  0.00    +0.000 A 
ENDBRANCH  21  22
ENDBRANCH  18  21
ENDBRANCH   6  15
TORSDOF 5
ENDMDL
MODEL 4
REMARK VINA RESULT:      -7.7      4.027      5.335
REMARK  Name = CHEMBL539665
REMARK  7 active torsions:
REMARK  status: ('A' for Active; 'I' for Inactive)
REMARK    1  A    between atoms: C_1  and  O_2
REMARK    2  A    between atoms: O_2  and  C_3
REMARK    3  A    between atoms: C_6  and  N_7
REMARK    4  A    between atoms: C_8  and  C_9
REMARK    5  A    between atoms: C_12  and  C_13
REMARK    6  A    between atoms: C_16  and  O_17
REMARK    7  A    between atoms: O_17  and  C_18
REMARK                            x       y       z     vdW  Elec       q    Type
REMARK                         _______ _______ _______ _____ _____    ______ ____
ROOT
ATOM      1  N   UNL     1      -6.719   3.069 127.750  0.00  0.00    +0.000 N 
ATOM      2  C   UNL     1      -5.369   2.749 127.841  0.00  0.00    +0.000 A 
ATOM      3  C   UNL     1      -4.534   1.986 126.876  0.00  0.00    +0.000 C 
ATOM      4  N   UNL     1      -4.860   3.345 128.904  0.00  0.00    +0.000 NA
ATOM      5  N   UNL     1      -5.848   4.054 129.523  0.00  0.00    +0.000 NA
ATOM      6  C   UNL     1      -6.976   3.887 128.850  0.00  0.00    +0.000 A 
ENDROOT
BRANCH   1  10
ATOM      7  C   UNL     1      -9.404   2.033 124.725  0.00  0.00    +0.000 A 
ATOM      8  C   UNL     1      -9.106   1.097 125.705  0.00  0.00    +0.000 A 
ATOM      9  C   UNL     1      -8.206   1.437 126.719  0.00  0.00    +0.000 A 
ATOM     10  C   UNL     1      -7.649   2.715 126.742  0.00  0.00    +0.000 A 
ATOM     11  C   UNL     1      -7.967   3.580 125.707  0.00  0.00    +0.000 A 
ATOM     12  N   UNL     1      -8.823   3.255 124.700  0.00  0.00    +0.000 NA
BRANCH   7  14
ATOM     13  C   UNL     1      -9.898   0.606 122.899  0.00  0.00    +0.000 C 
ATOM     14  O   UNL     1     -10.227   1.767 123.660  0.00  0.00    +0.000 OA
ENDBRANCH   7  14
ENDBRANCH   1  10
BRANCH   6  15
ATOM     15  C   UNL     1      -8.288   4.352 129.285  0.00  0.00    +0.000 A 
ATOM     16  C   UNL     1      -9.218   3.489 129.863  0.00  0.00    +0.000 A 
ATOM     17  N   UNL     1     -10.461   3.877 130.242  0.00  0.00    +0.000 NA
ATOM     18  C   UNL     1     -10.746   5.186 130.060  0.00  0.00    +0.000 A 
ATOM     19  C   UNL     1      -9.809   6.061 129.517  0.00  0.00    +0.000 A 
ATOM     20  N   UNL     1      -8.569   5.667 129.108  0.00  0.00    +0.000 NA
BRANCH  18  21
ATOM     21  O   UNL     1     -12.006   5.697 130.347  0.00  0.00    +0.000 OA
BRANCH  21  22
ATOM     22  C   UNL     1     -12.452   6.785 129.629  0.00  0.00    +0.000 A 
ATOM     23  C   UNL     1     -12.316   8.046 130.217  0.00  0.00    +0.000 A 
ATOM     24  C   UNL     1     -12.854   9.174 129.591  0.00  0.00    +0.000 A 
ATOM     25  C   UNL     1     -13.499   9.047 128.360  0.00  0.00    +0.000 A 
ATOM     26  C   UNL     1     -13.645   7.788 127.779  0.00  0.00    +0.000 A 
ATOM     27  C   UNL     1     -13.143   6.654 128.424  0.00  0.00    +0.000 A 
ENDBRANCH  21  22
ENDBRANCH  18  21
ENDBRANCH   6  15
TORSDOF 5
ENDMDL
MODEL 5
REMARK VINA RESULT:      -7.5      7.197      8.325
REMARK  Name = CHEMBL539665
REMARK  7 active torsions:
REMARK  status: ('A' for Active; 'I' for Inactive)
REMARK    1  A    between atoms: C_1  and  O_2
REMARK    2  A    between atoms: O_2  and  C_3
REMARK    3  A    between atoms: C_6  and  N_7
REMARK    4  A    between atoms: C_8  and  C_9
REMARK    5  A    between atoms: C_12  and  C_13
REMARK    6  A    between atoms: C_16  and  O_17
REMARK    7  A    between atoms: O_17  and  C_18
REMARK                            x       y       z     vdW  Elec       q    Type
REMARK                         _______ _______ _______ _____ _____    ______ ____
ROOT
ATOM      1  N   UNL     1      -8.247  -1.565 126.922  0.00  0.00    +0.000 N 
ATOM      2  C   UNL     1      -8.521  -2.857 127.356  0.00  0.00    +0.000 A 
ATOM      3  C   UNL     1      -8.085  -3.521 128.613  0.00  0.00    +0.000 C 
ATOM      4  N   UNL     1      -9.366  -3.420 126.512  0.00  0.00    +0.000 NA
ATOM      5  N   UNL     1      -9.659  -2.525 125.524  0.00  0.00    +0.000 NA
ATOM      6  C   UNL     1      -8.982  -1.409 125.747  0.00  0.00    +0.000 A 
ENDROOT
BRANCH   1  10
ATOM      7  C   UNL     1      -5.877   1.390 128.681  0.00  0.00    +0.000 A 
ATOM      8  C   UNL     1      -7.255   1.464 128.824  0.00  0.00    +0.000 A 
ATOM      9  C   UNL     1      -8.054   0.479 128.236  0.00  0.00    +0.000 A 
ATOM     10  C   UNL     1      -7.452  -0.570 127.543  0.00  0.00    +0.000 A 
ATOM     11  C   UNL     1      -6.072  -0.553 127.412  0.00  0.00    +0.000 A 
ATOM     12  N   UNL     1      -5.283   0.412 127.958  0.00  0.00    +0.000 NA
BRANCH   7  14
ATOM     13  C   UNL     1      -5.448   3.695 129.020  0.00  0.00    +0.000 C 
ATOM     14  O   UNL     1      -5.020   2.342 129.171  0.00  0.00    +0.000 OA
ENDBRANCH   7  14
ENDBRANCH   1  10
BRANCH   6  15
ATOM     15  C   UNL     1      -8.903  -0.279 124.830  0.00  0.00    +0.000 A 
ATOM     16  C   UNL     1      -7.841  -0.130 123.939  0.00  0.00    +0.000 A 
ATOM     17  N   UNL     1      -7.715   0.928 123.099  0.00  0.00    +0.000 NA
ATOM     18  C   UNL     1      -8.715   1.836 123.147  0.00  0.00    +0.000 A 
ATOM     19  C   UNL     1      -9.797   1.674 124.009  0.00  0.00    +0.000 A 
ATOM     20  N   UNL     1      -9.912   0.627 124.873  0.00  0.00    +0.000 NA
BRANCH  18  21
ATOM     21  O   UNL     1      -8.673   2.997 122.385  0.00  0.00    +0.000 OA
BRANCH  21  22
ATOM     22  C   UNL     1      -7.447   3.462 121.965  0.00  0.00    +0.000 A 
ATOM     23  C   UNL     1      -6.483   3.718 122.946  0.00  0.00    +0.000 A 
ATOM     24  C   UNL     1      -5.263   4.300 122.595  0.00  0.00    +0.000 A 
ATOM     25  C   UNL     1      -4.989   4.597 121.259  0.00  0.00    +0.000 A 
ATOM     26  C   UNL     1      -5.954   4.352 120.282  0.00  0.00    +0.000 A 
ATOM     27  C   UNL     1      -7.191   3.807 120.637  0.00  0.00    +0.000 A 
ENDBRANCH  21  22
ENDBRANCH  18  21
ENDBRANCH   6  15
TORSDOF 5
ENDMDL
MODEL 6
REMARK VINA RESULT:      -7.4      1.486      1.800
REMARK  Name = CHEMBL539665
REMARK  7 active torsions:
REMARK  status: ('A' for Active; 'I' for Inactive)
REMARK    1  A    between atoms: C_1  and  O_2
REMARK    2  A    between atoms: O_2  and  C_3
REMARK    3  A    between atoms: C_6  and  N_7
REMARK    4  A    between atoms: C_8  and  C_9
REMARK    5  A    between atoms: C_12  and  C_13
REMARK    6  A    between atoms: C_16  and  O_17
REMARK    7  A    between atoms: O_17  and  C_18
REMARK                            x       y       z     vdW  Elec       q    Type
REMARK                         _______ _______ _______ _____ _____    ______ ____
ROOT
ATOM      1  N   UNL     1      -7.081   2.681 131.706  0.00  0.00    +0.000 N 
ATOM      2  C   UNL     1      -6.551   1.620 132.433  0.00  0.00    +0.000 A 
ATOM      3  C   UNL     1      -5.232   0.954 132.265  0.00  0.00    +0.000 C 
ATOM      4  N   UNL     1      -7.368   1.336 133.430  0.00  0.00    +0.000 NA
ATOM      5  N   UNL     1      -8.434   2.188 133.378  0.00  0.00    +0.000 NA
ATOM      6  C   UNL     1      -8.284   2.993 132.339  0.00  0.00    +0.000 A 
ENDROOT
BRANCH   1  10
ATOM      7  C   UNL     1      -5.506   4.712 128.414  0.00  0.00    +0.000 A 
ATOM      8  C   UNL     1      -5.276   5.218 129.686  0.00  0.00    +0.000 A 
ATOM      9  C   UNL     1      -5.803   4.544 130.791  0.00  0.00    +0.000 A 
ATOM     10  C   UNL     1      -6.522   3.365 130.598  0.00  0.00    +0.000 A 
ATOM     11  C   UNL     1      -6.741   2.945 129.296  0.00  0.00    +0.000 A 
ATOM     12  N   UNL     1      -6.255   3.604 128.208  0.00  0.00    +0.000 NA
BRANCH   7  14
ATOM     13  C   UNL     1      -5.303   4.622 126.056  0.00  0.00    +0.000 C 
ATOM     14  O   UNL     1      -5.081   5.338 127.270  0.00  0.00    +0.000 OA
ENDBRANCH   7  14
ENDBRANCH   1  10
BRANCH   6  15
ATOM     15  C   UNL     1      -9.288   3.933 131.855  0.00  0.00    +0.000 A 
ATOM     16  C   UNL     1     -10.130   3.623 130.788  0.00  0.00    +0.000 A 
ATOM     17  N   UNL     1     -11.048   4.486 130.286  0.00  0.00    +0.000 NA
ATOM     18  C   UNL     1     -11.131   5.681 130.913  0.00  0.00    +0.000 A 
ATOM     19  C   UNL     1     -10.319   5.984 132.003  0.00  0.00    +0.000 A 
ATOM     20  N   UNL     1      -9.376   5.128 132.491  0.00  0.00    +0.000 NA
BRANCH  18  21
ATOM     21  O   UNL     1     -11.986   6.677 130.457  0.00  0.00    +0.000 OA
BRANCH  21  22
ATOM     22  C   UNL     1     -11.870   7.093 129.149  0.00  0.00    +0.000 A 
ATOM     23  C   UNL     1     -12.903   6.752 128.270  0.00  0.00    +0.000 A 
ATOM     24  C   UNL     1     -12.789   7.043 126.908  0.00  0.00    +0.000 A 
ATOM     25  C   UNL     1     -11.658   7.704 126.427  0.00  0.00    +0.000 A 
ATOM     26  C   UNL     1     -10.623   8.034 127.302  0.00  0.00    +0.000 A 
ATOM     27  C   UNL     1     -10.718   7.708 128.658  0.00  0.00    +0.000 A 
ENDBRANCH  21  22
ENDBRANCH  18  21
ENDBRANCH   6  15
TORSDOF 5
ENDMDL
MODEL 7
REMARK VINA RESULT:      -7.3      2.659      3.737
REMARK  Name = CHEMBL539665
REMARK  7 active torsions:
REMARK  status: ('A' for Active; 'I' for Inactive)
REMARK    1  A    between atoms: C_1  and  O_2
REMARK    2  A    between atoms: O_2  and  C_3
REMARK    3  A    between atoms: C_6  and  N_7
REMARK    4  A    between atoms: C_8  and  C_9
REMARK    5  A    between atoms: C_12  and  C_13
REMARK    6  A    between atoms: C_16  and  O_17
REMARK    7  A    between atoms: O_17  and  C_18
REMARK                            x       y       z     vdW  Elec       q    Type
REMARK                         _______ _______ _______ _____ _____    ______ ____
ROOT
ATOM      1  N   UNL     1      -3.560   5.627 131.922  0.00  0.00    +0.000 N 
ATOM      2  C   UNL     1      -2.696   5.741 133.006  0.00  0.00    +0.000 A 
ATOM      3  C   UNL     1      -1.222   5.554 133.034  0.00  0.00    +0.000 C 
ATOM      4  N   UNL     1      -3.377   6.178 134.049  0.00  0.00    +0.000 NA
ATOM      5  N   UNL     1      -4.679   6.355 133.679  0.00  0.00    +0.000 NA
ATOM      6  C   UNL     1      -4.809   6.013 132.407  0.00  0.00    +0.000 A 
ENDROOT
BRANCH   1  10
ATOM      7  C   UNL     1      -2.764   4.540 127.969  0.00  0.00    +0.000 A 
ATOM      8  C   UNL     1      -2.473   5.833 128.379  0.00  0.00    +0.000 A 
ATOM      9  C   UNL     1      -2.740   6.204 129.701  0.00  0.00    +0.000 A 
ATOM     10  C   UNL     1      -3.264   5.262 130.585  0.00  0.00    +0.000 A 
ATOM     11  C   UNL     1      -3.562   4.003 130.090  0.00  0.00    +0.000 A 
ATOM     12  N   UNL     1      -3.331   3.634 128.800  0.00  0.00    +0.000 NA
BRANCH   7  14
ATOM     13  C   UNL     1      -1.667   3.034 126.505  0.00  0.00    +0.000 C 
ATOM     14  O   UNL     1      -2.593   4.106 126.679  0.00  0.00    +0.000 OA
ENDBRANCH   7  14
ENDBRANCH   1  10
BRANCH   6  15
ATOM     15  C   UNL     1      -6.076   5.910 131.692  0.00  0.00    +0.000 A 
ATOM     16  C   UNL     1      -6.676   7.020 131.100  0.00  0.00    +0.000 A 
ATOM     17  N   UNL     1      -7.872   6.970 130.461  0.00  0.00    +0.000 NA
ATOM     18  C   UNL     1      -8.449   5.749 130.396  0.00  0.00    +0.000 A 
ATOM     19  C   UNL     1      -7.837   4.629 130.953  0.00  0.00    +0.000 A 
ATOM     20  N   UNL     1      -6.650   4.683 131.620  0.00  0.00    +0.000 NA
BRANCH  18  21
ATOM     21  O   UNL     1      -9.704   5.574 129.826  0.00  0.00    +0.000 OA
BRANCH  21  22
ATOM     22  C   UNL     1     -10.664   6.537 130.044  0.00  0.00    +0.000 A 
ATOM     23  C   UNL     1     -11.467   6.402 131.181  0.00  0.00    +0.000 A 
ATOM     24  C   UNL     1     -12.533   7.280 131.395  0.00  0.00    +0.000 A 
ATOM     25  C   UNL     1     -12.777   8.314 130.491  0.00  0.00    +0.000 A 
ATOM     26  C   UNL     1     -11.984   8.443 129.351  0.00  0.00    +0.000 A 
ATOM     27  C   UNL     1     -10.943   7.541 129.115  0.00  0.00    +0.000 A 
ENDBRANCH  21  22
ENDBRANCH  18  21
ENDBRANCH   6  15
TORSDOF 5
ENDMDL
MODEL 8
REMARK VINA RESULT:      -7.3      7.099      9.444
REMARK  Name = CHEMBL539665
REMARK  7 active torsions:
REMARK  status: ('A' for Active; 'I' for Inactive)
REMARK    1  A    between atoms: C_1  and  O_2
REMARK    2  A    between atoms: O_2  and  C_3
REMARK    3  A    between atoms: C_6  and  N_7
REMARK    4  A    between atoms: C_8  and  C_9
REMARK    5  A    between atoms: C_12  and  C_13
REMARK    6  A    between atoms: C_16  and  O_17
REMARK    7  A    between atoms: O_17  and  C_18
REMARK                            x       y       z     vdW  Elec       q    Type
REMARK                         _______ _______ _______ _____ _____    ______ ____
ROOT
ATOM      1  N   UNL     1      -8.525  -1.061 124.244  0.00  0.00    +0.000 N 
ATOM      2  C   UNL     1      -9.352  -1.845 123.447  0.00  0.00    +0.000 A 
ATOM      3  C   UNL     1      -9.550  -3.318 123.491  0.00  0.00    +0.000 C 
ATOM      4  N   UNL     1     -10.073  -1.054 122.675  0.00  0.00    +0.000 NA
ATOM      5  N   UNL     1      -9.739   0.242 122.942  0.00  0.00    +0.000 NA
ATOM      6  C   UNL     1      -8.798   0.255 123.873  0.00  0.00    +0.000 A 
ENDROOT
BRANCH   1  10
ATOM      7  C   UNL     1      -5.850  -2.196 127.245  0.00  0.00    +0.000 A 
ATOM      8  C   UNL     1      -7.171  -1.942 127.586  0.00  0.00    +0.000 A 
ATOM      9  C   UNL     1      -8.071  -1.560 126.586  0.00  0.00    +0.000 A 
ATOM     10  C   UNL     1      -7.632  -1.468 125.266  0.00  0.00    +0.000 A 
ATOM     11  C   UNL     1      -6.290  -1.700 125.011  0.00  0.00    +0.000 A 
ATOM     12  N   UNL     1      -5.396  -2.050 125.978  0.00  0.00    +0.000 NA
BRANCH   7  14
ATOM     13  C   UNL     1      -5.234  -2.287 129.530  0.00  0.00    +0.000 C 
ATOM     14  O   UNL     1      -4.886  -2.517 128.166  0.00  0.00    +0.000 OA
ENDBRANCH   7  14
ENDBRANCH   1  10
BRANCH   6  15
ATOM     15  C   UNL     1      -8.068   1.439 124.311  0.00  0.00    +0.000 A 
ATOM     16  C   UNL     1      -7.105   2.046 123.506  0.00  0.00    +0.000 A 
ATOM     17  N   UNL     1      -6.379   3.124 123.896  0.00  0.00    +0.000 NA
ATOM     18  C   UNL     1      -6.670   3.613 125.122  0.00  0.00    +0.000 A 
ATOM     19  C   UNL     1      -7.656   3.033 125.917  0.00  0.00    +0.000 A 
ATOM     20  N   UNL     1      -8.367   1.933 125.539  0.00  0.00    +0.000 NA
BRANCH  18  21
ATOM     21  O   UNL     1      -5.955   4.673 125.665  0.00  0.00    +0.000 OA
BRANCH  21  22
ATOM     22  C   UNL     1      -4.795   4.397 126.355  0.00  0.00    +0.000 A 
ATOM     23  C   UNL     1      -4.351   5.349 127.279  0.00  0.00    +0.000 A 
ATOM     24  C   UNL     1      -3.123   5.181 127.924  0.00  0.00    +0.000 A 
ATOM     25  C   UNL     1      -2.352   4.046 127.672  0.00  0.00    +0.000 A 
ATOM     26  C   UNL     1      -2.788   3.102 126.742  0.00  0.00    +0.000 A 
ATOM     27  C   UNL     1      -3.998   3.289 126.067  0.00  0.00    +0.000 A 
ENDBRANCH  21  22
ENDBRANCH  18  21
ENDBRANCH   6  15
TORSDOF 5
ENDMDL
MODEL 9
REMARK VINA RESULT:      -7.2      7.027      9.986
REMARK  Name = CHEMBL539665
REMARK  7 active torsions:
REMARK  status: ('A' for Active; 'I' for Inactive)
REMARK    1  A    between atoms: C_1  and  O_2
REMARK    2  A    between atoms: O_2  and  C_3
REMARK    3  A    between atoms: C_6  and  N_7
REMARK    4  A    between atoms: C_8  and  C_9
REMARK    5  A    between atoms: C_12  and  C_13
REMARK    6  A    between atoms: C_16  and  O_17
REMARK    7  A    between atoms: O_17  and  C_18
REMARK                            x       y       z     vdW  Elec       q    Type
REMARK                         _______ _______ _______ _____ _____    ______ ____
ROOT
ATOM      1  N   UNL     1      -6.724   2.552 123.777  0.00  0.00    +0.000 N 
ATOM      2  C   UNL     1      -6.364   3.473 122.799  0.00  0.00    +0.000 A 
ATOM      3  C   UNL     1      -6.736   3.485 121.360  0.00  0.00    +0.000 C 
ATOM      4  N   UNL     1      -5.703   4.464 123.369  0.00  0.00    +0.000 NA
ATOM      5  N   UNL     1      -5.615   4.217 124.709  0.00  0.00    +0.000 NA
ATOM      6  C   UNL     1      -6.211   3.064 124.968  0.00  0.00    +0.000 A 
ENDROOT
BRANCH   1  10
ATOM      7  C   UNL     1      -9.038  -0.894 123.319  0.00  0.00    +0.000 A 
ATOM      8  C   UNL     1      -7.660  -0.990 123.187  0.00  0.00    +0.000 A 
ATOM      9  C   UNL     1      -6.880   0.160 123.338  0.00  0.00    +0.000 A 
ATOM     10  C   UNL     1      -7.497   1.373 123.643  0.00  0.00    +0.000 A 
ATOM     11  C   UNL     1      -8.881   1.395 123.720  0.00  0.00    +0.000 A 
ATOM     12  N   UNL     1      -9.655   0.288 123.552  0.00  0.00    +0.000 NA
BRANCH   7  14
ATOM     13  C   UNL     1      -9.406  -3.219 123.586  0.00  0.00    +0.000 C 
ATOM     14  O   UNL     1      -9.886  -1.956 123.129  0.00  0.00    +0.000 OA
ENDBRANCH   7  14
ENDBRANCH   1  10
BRANCH   6  15
ATOM     15  C   UNL     1      -6.189   2.379 126.256  0.00  0.00    +0.000 A 
ATOM     16  C   UNL     1      -5.208   1.439 126.570  0.00  0.00    +0.000 A 
ATOM     17  N   UNL     1      -5.179   0.754 127.741  0.00  0.00    +0.000 NA
ATOM     18  C   UNL     1      -6.154   1.065 128.624  0.00  0.00    +0.000 A 
ATOM     19  C   UNL     1      -7.115   2.029 128.331  0.00  0.00    +0.000 A 
ATOM     20  N   UNL     1      -7.163   2.697 127.144  0.00  0.00    +0.000 NA
BRANCH  18  21
ATOM     21  O   UNL     1      -6.273   0.390 129.833  0.00  0.00    +0.000 OA
BRANCH  21  22
ATOM     22  C   UNL     1      -6.586  -0.951 129.808  0.00  0.00    +0.000 A 
ATOM     23  C   UNL     1      -5.568  -1.857 130.119  0.00  0.00    +0.000 A 
ATOM     24  C   UNL     1      -5.791  -3.231 129.998  0.00  0.00    +0.000 A 
ATOM     25  C   UNL     1      -7.041  -3.703 129.598  0.00  0.00    +0.000 A 
ATOM     26  C   UNL     1      -8.054  -2.800 129.276  0.00  0.00    +0.000 A 
ATOM     27  C   UNL     1      -7.820  -1.424 129.359  0.00  0.00    +0.000 A 
ENDBRANCH  21  22
ENDBRANCH  18  21
ENDBRANCH   6  15
TORSDOF 5
ENDMDL
