MODEL 1
REMARK VINA RESULT:      -9.8      0.000      0.000
REMARK  Name = CHEMBL474621
REMARK  7 active torsions:
REMARK  status: ('A' for Active; 'I' for Inactive)
REMARK    1  A    between atoms: C_1  and  C_2
REMARK    2  A    between atoms: C_4  and  C_5
REMARK    3  A    between atoms: N_7  and  C_8
REMARK    4  A    between atoms: N_7  and  C_15
REMARK    5  A    between atoms: C_8  and  C_9
REMARK    6  A    between atoms: C_15  and  C_16
REMARK    7  A    between atoms: C_23  and  C_24
REMARK                            x       y       z     vdW  Elec       q    Type
REMARK                         _______ _______ _______ _____ _____    ______ ____
ROOT
ATOM      1  C   UNL     1      -8.268   1.598 125.619  0.00  0.00    +0.000 C 
ATOM      2  O   UNL     1      -9.171   1.293 126.413  0.00  0.00    +0.000 OA
ATOM      3  N   UNL     1      -8.224   1.054 124.219  0.00  0.00    +0.000 N 
ENDROOT
BRANCH   1   7
ATOM      4  C   UNL     1      -2.982   2.646 126.762  0.00  0.00    +0.000 C 
ATOM      5  C   UNL     1      -4.389   2.527 127.352  0.00  0.00    +0.000 A 
ATOM      6  C   UNL     1      -5.556   2.094 126.055  0.00  0.00    +0.000 A 
ATOM      7  C   UNL     1      -7.182   2.914 125.885  0.00  0.00    +0.000 A 
ATOM      8  C   UNL     1      -7.729   4.143 127.249  0.00  0.00    +0.000 A 
ATOM      9  C   UNL     1      -6.713   4.051 129.010  0.00  0.00    +0.000 A 
ATOM     10  C   UNL     1      -4.859   3.537 128.803  0.00  0.00    +0.000 A 
BRANCH  10  11
ATOM     11  C   UNL     1      -3.840   4.730 128.816  0.00  0.00    +0.000 A 
ATOM     12  C   UNL     1      -3.258   4.566 130.028  0.00  0.00    +0.000 A 
ATOM     13  C   UNL     1      -2.385   5.485 130.478  0.00  0.00    +0.000 A 
ATOM     14  C   UNL     1      -1.925   6.469 129.616  0.00  0.00    +0.000 A 
ATOM     15  C   UNL     1      -2.556   6.752 128.404  0.00  0.00    +0.000 A 
ATOM     16  C   UNL     1      -3.593   5.915 128.008  0.00  0.00    +0.000 A 
ENDBRANCH  10  11
ENDBRANCH   1   7
BRANCH   3  17
ATOM     17  C   UNL     1      -7.551   1.670 122.929  0.00  0.00    +0.000 C 
BRANCH  17  18
ATOM     18  C   UNL     1      -7.719   3.328 122.622  0.00  0.00    +0.000 A 
ATOM     19  C   UNL     1      -8.749   3.534 121.307  0.00  0.00    +0.000 A 
ATOM     20  C   UNL     1      -8.216   4.078 119.761  0.00  0.00    +0.000 A 
ATOM     21  C   UNL     1      -6.490   4.396 119.342  0.00  0.00    +0.000 A 
ATOM     22  C   UNL     1      -5.275   4.217 120.786  0.00  0.00    +0.000 A 
ATOM     23  C   UNL     1      -6.033   3.894 122.557  0.00  0.00    +0.000 A 
ENDBRANCH  17  18
ENDBRANCH   3  17
BRANCH   3  24
ATOM     24  C   UNL     1      -8.749  -0.271 124.029  0.00  0.00    +0.000 C 
BRANCH  24  25
ATOM     25  C   UNL     1      -7.866  -1.422 124.597  0.00  0.00    +0.000 C 
ATOM     26  C   UNL     1      -7.896  -2.614 123.689  0.00  0.00    +0.000 C 
ATOM     27  C   UNL     1      -7.767  -3.788 124.637  0.00  0.00    +0.000 C 
ATOM     28  C   UNL     1      -8.483  -3.351 125.871  0.00  0.00    +0.000 C 
ATOM     29  O   UNL     1      -8.212  -1.973 125.881  0.00  0.00    +0.000 OA
ENDBRANCH  24  25
ENDBRANCH   3  24
TORSDOF 6
ENDMDL
MODEL 2
REMARK VINA RESULT:      -9.3      3.494      8.686
REMARK  Name = CHEMBL474621
REMARK  7 active torsions:
REMARK  status: ('A' for Active; 'I' for Inactive)
REMARK    1  A    between atoms: C_1  and  C_2
REMARK    2  A    between atoms: C_4  and  C_5
REMARK    3  A    between atoms: N_7  and  C_8
REMARK    4  A    between atoms: N_7  and  C_15
REMARK    5  A    between atoms: C_8  and  C_9
REMARK    6  A    between atoms: C_15  and  C_16
REMARK    7  A    between atoms: C_23  and  C_24
REMARK                            x       y       z     vdW  Elec       q    Type
REMARK                         _______ _______ _______ _____ _____    ______ ____
ROOT
ATOM      1  C   UNL     1      -8.234   2.632 130.048  0.00  0.00    +0.000 C 
ATOM      2  O   UNL     1      -8.990   2.091 130.869  0.00  0.00    +0.000 OA
ATOM      3  N   UNL     1      -7.841   4.078 130.162  0.00  0.00    +0.000 N 
ENDROOT
BRANCH   1   7
ATOM      4  C   UNL     1      -8.441   0.588 124.936  0.00  0.00    +0.000 C 
ATOM      5  C   UNL     1      -8.583   0.254 126.423  0.00  0.00    +0.000 A 
ATOM      6  C   UNL     1      -8.321   1.736 127.406  0.00  0.00    +0.000 A 
ATOM      7  C   UNL     1      -7.283   1.744 128.911  0.00  0.00    +0.000 A 
ATOM      8  C   UNL     1      -6.609   0.073 129.561  0.00  0.00    +0.000 A 
ATOM      9  C   UNL     1      -7.508  -1.605 128.843  0.00  0.00    +0.000 A 
ATOM     10  C   UNL     1      -8.153  -1.418 127.028  0.00  0.00    +0.000 A 
BRANCH  10  11
ATOM     11  C   UNL     1      -7.208  -2.019 125.929  0.00  0.00    +0.000 A 
ATOM     12  C   UNL     1      -7.982  -3.012 125.430  0.00  0.00    +0.000 A 
ATOM     13  C   UNL     1      -7.473  -3.862 124.522  0.00  0.00    +0.000 A 
ATOM     14  C   UNL     1      -6.242  -3.586 123.944  0.00  0.00    +0.000 A 
ATOM     15  C   UNL     1      -5.360  -2.649 124.482  0.00  0.00    +0.000 A 
ATOM     16  C   UNL     1      -5.808  -1.883 125.552  0.00  0.00    +0.000 A 
ENDBRANCH  10  11
ENDBRANCH   1   7
BRANCH   3  17
ATOM     17  C   UNL     1      -6.552   4.809 129.616  0.00  0.00    +0.000 C 
BRANCH  17  18
ATOM     18  C   UNL     1      -5.104   4.693 130.490  0.00  0.00    +0.000 A 
ATOM     19  C   UNL     1      -4.608   6.240 130.926  0.00  0.00    +0.000 A 
ATOM     20  C   UNL     1      -3.239   7.027 130.235  0.00  0.00    +0.000 A 
ATOM     21  C   UNL     1      -2.239   6.332 128.905  0.00  0.00    +0.000 A 
ATOM     22  C   UNL     1      -2.719   4.574 128.385  0.00  0.00    +0.000 A 
ATOM     23  C   UNL     1      -4.089   3.671 129.445  0.00  0.00    +0.000 A 
ENDBRANCH  17  18
ENDBRANCH   3  17
BRANCH   3  24
ATOM     24  C   UNL     1      -8.819   4.965 130.733  0.00  0.00    +0.000 C 
BRANCH  24  25
ATOM     25  C   UNL     1      -9.662   5.773 129.703  0.00  0.00    +0.000 C 
ATOM     26  C   UNL     1      -9.714   7.223 130.078  0.00  0.00    +0.000 C 
ATOM     27  C   UNL     1     -11.081   7.667 129.600  0.00  0.00    +0.000 C 
ATOM     28  C   UNL     1     -11.949   6.468 129.792  0.00  0.00    +0.000 C 
ATOM     29  O   UNL     1     -11.049   5.423 129.535  0.00  0.00    +0.000 OA
ENDBRANCH  24  25
ENDBRANCH   3  24
TORSDOF 6
ENDMDL
MODEL 3
REMARK VINA RESULT:      -9.2      5.488      9.449
REMARK  Name = CHEMBL474621
REMARK  7 active torsions:
REMARK  status: ('A' for Active; 'I' for Inactive)
REMARK    1  A    between atoms: C_1  and  C_2
REMARK    2  A    between atoms: C_4  and  C_5
REMARK    3  A    between atoms: N_7  and  C_8
REMARK    4  A    between atoms: N_7  and  C_15
REMARK    5  A    between atoms: C_8  and  C_9
REMARK    6  A    between atoms: C_15  and  C_16
REMARK    7  A    between atoms: C_23  and  C_24
REMARK                            x       y       z     vdW  Elec       q    Type
REMARK                         _______ _______ _______ _____ _____    ______ ____
ROOT
ATOM      1  C   UNL     1      -9.621   3.214 130.637  0.00  0.00    +0.000 C 
ATOM      2  O   UNL     1     -10.742   2.804 130.972  0.00  0.00    +0.000 OA
ATOM      3  N   UNL     1      -9.343   4.674 130.410  0.00  0.00    +0.000 N 
ENDROOT
BRANCH   1   7
ATOM      4  C   UNL     1      -6.892  -0.695 127.876  0.00  0.00    +0.000 C 
ATOM      5  C   UNL     1      -7.854  -0.423 129.036  0.00  0.00    +0.000 A 
ATOM      6  C   UNL     1      -8.193   1.339 129.141  0.00  0.00    +0.000 A 
ATOM      7  C   UNL     1      -8.193   2.245 130.729  0.00  0.00    +0.000 A 
ATOM      8  C   UNL     1      -8.010   1.241 132.350  0.00  0.00    +0.000 A 
ATOM      9  C   UNL     1      -8.345  -0.762 132.216  0.00  0.00    +0.000 A 
ATOM     10  C   UNL     1      -7.845  -1.514 130.504  0.00  0.00    +0.000 A 
BRANCH  10  11
ATOM     11  C   UNL     1      -6.444  -2.220 130.479  0.00  0.00    +0.000 A 
ATOM     12  C   UNL     1      -6.804  -3.515 130.320  0.00  0.00    +0.000 A 
ATOM     13  C   UNL     1      -5.868  -4.479 130.369  0.00  0.00    +0.000 A 
ATOM     14  C   UNL     1      -4.526  -4.128 130.364  0.00  0.00    +0.000 A 
ATOM     15  C   UNL     1      -4.096  -2.828 130.631  0.00  0.00    +0.000 A 
ATOM     16  C   UNL     1      -5.068  -1.844 130.769  0.00  0.00    +0.000 A 
ENDBRANCH  10  11
ENDBRANCH   1   7
BRANCH   3  17
ATOM     17  C   UNL     1      -7.977   5.460 130.517  0.00  0.00    +0.000 C 
BRANCH  17  18
ATOM     18  C   UNL     1      -7.578   6.229 131.974  0.00  0.00    +0.000 A 
ATOM     19  C   UNL     1      -5.978   5.874 132.354  0.00  0.00    +0.000 A 
ATOM     20  C   UNL     1      -5.519   4.842 133.656  0.00  0.00    +0.000 A 
ATOM     21  C   UNL     1      -6.690   3.950 134.698  0.00  0.00    +0.000 A 
ATOM     22  C   UNL     1      -8.513   4.328 134.350  0.00  0.00    +0.000 A 
ATOM     23  C   UNL     1      -8.902   5.740 133.058  0.00  0.00    +0.000 A 
ENDBRANCH  17  18
ENDBRANCH   3  17
BRANCH   3  24
ATOM     24  C   UNL     1     -10.433   5.462 129.901  0.00  0.00    +0.000 C 
BRANCH  24  25
ATOM     25  C   UNL     1     -10.016   6.712 129.070  0.00  0.00    +0.000 C 
ATOM     26  C   UNL     1     -10.982   7.837 129.280  0.00  0.00    +0.000 C 
ATOM     27  C   UNL     1     -10.987   8.556 127.947  0.00  0.00    +0.000 C 
ATOM     28  C   UNL     1     -10.790   7.474 126.939  0.00  0.00    +0.000 C 
ATOM     29  O   UNL     1      -9.956   6.586 127.637  0.00  0.00    +0.000 OA
ENDBRANCH  24  25
ENDBRANCH   3  24
TORSDOF 6
ENDMDL
MODEL 4
REMARK VINA RESULT:      -9.1      2.569      5.349
REMARK  Name = CHEMBL474621
REMARK  7 active torsions:
REMARK  status: ('A' for Active; 'I' for Inactive)
REMARK    1  A    between atoms: C_1  and  C_2
REMARK    2  A    between atoms: C_4  and  C_5
REMARK    3  A    between atoms: N_7  and  C_8
REMARK    4  A    between atoms: N_7  and  C_15
REMARK    5  A    between atoms: C_8  and  C_9
REMARK    6  A    between atoms: C_15  and  C_16
REMARK    7  A    between atoms: C_23  and  C_24
REMARK                            x       y       z     vdW  Elec       q    Type
REMARK                         _______ _______ _______ _____ _____    ______ ____
ROOT
ATOM      1  C   UNL     1      -6.194   2.259 125.853  0.00  0.00    +0.000 C 
ATOM      2  O   UNL     1      -5.766   2.756 124.801  0.00  0.00    +0.000 OA
ATOM      3  N   UNL     1      -7.340   1.287 125.864  0.00  0.00    +0.000 N 
ENDROOT
BRANCH   1   7
ATOM      4  C   UNL     1      -5.846   5.260 130.460  0.00  0.00    +0.000 C 
ATOM      5  C   UNL     1      -5.214   4.991 129.092  0.00  0.00    +0.000 A 
ATOM      6  C   UNL     1      -6.147   3.717 128.233  0.00  0.00    +0.000 A 
ATOM      7  C   UNL     1      -5.337   2.334 127.351  0.00  0.00    +0.000 A 
ATOM      8  C   UNL     1      -3.429   2.355 127.184  0.00  0.00    +0.000 A 
ATOM      9  C   UNL     1      -2.509   4.136 127.536  0.00  0.00    +0.000 A 
ATOM     10  C   UNL     1      -3.415   5.223 128.855  0.00  0.00    +0.000 A 
BRANCH  10  11
ATOM     11  C   UNL     1      -2.802   5.153 130.299  0.00  0.00    +0.000 A 
ATOM     12  C   UNL     1      -2.085   6.302 130.335  0.00  0.00    +0.000 A 
ATOM     13  C   UNL     1      -1.295   6.561 131.392  0.00  0.00    +0.000 A 
ATOM     14  C   UNL     1      -1.387   5.765 132.524  0.00  0.00    +0.000 A 
ATOM     15  C   UNL     1      -2.021   4.522 132.511  0.00  0.00    +0.000 A 
ATOM     16  C   UNL     1      -2.691   4.154 131.350  0.00  0.00    +0.000 A 
ENDBRANCH  10  11
ENDBRANCH   1   7
BRANCH   3  17
ATOM     17  C   UNL     1      -7.689   0.165 126.921  0.00  0.00    +0.000 C 
BRANCH  17  18
ATOM     18  C   UNL     1      -7.109  -1.408 126.676  0.00  0.00    +0.000 A 
ATOM     19  C   UNL     1      -8.377  -2.493 126.892  0.00  0.00    +0.000 A 
ATOM     20  C   UNL     1      -8.491  -3.563 128.239  0.00  0.00    +0.000 A 
ATOM     21  C   UNL     1      -7.327  -3.579 129.617  0.00  0.00    +0.000 A 
ATOM     22  C   UNL     1      -5.851  -2.405 129.425  0.00  0.00    +0.000 A 
ATOM     23  C   UNL     1      -5.669  -1.469 127.721  0.00  0.00    +0.000 A 
ENDBRANCH  17  18
ENDBRANCH   3  17
BRANCH   3  24
ATOM     24  C   UNL     1      -8.343   1.467 124.850  0.00  0.00    +0.000 C 
BRANCH  24  25
ATOM     25  C   UNL     1      -8.142   0.618 123.559  0.00  0.00    +0.000 C 
ATOM     26  C   UNL     1      -9.056  -0.570 123.556  0.00  0.00    +0.000 C 
ATOM     27  C   UNL     1      -8.259  -1.631 122.826  0.00  0.00    +0.000 C 
ATOM     28  C   UNL     1      -6.842  -1.358 123.204  0.00  0.00    +0.000 C 
ATOM     29  O   UNL     1      -6.845   0.041 123.322  0.00  0.00    +0.000 OA
ENDBRANCH  24  25
ENDBRANCH   3  24
TORSDOF 6
ENDMDL
MODEL 5
REMARK VINA RESULT:      -9.0      3.381      9.633
REMARK  Name = CHEMBL474621
REMARK  7 active torsions:
REMARK  status: ('A' for Active; 'I' for Inactive)
REMARK    1  A    between atoms: C_1  and  C_2
REMARK    2  A    between atoms: C_4  and  C_5
REMARK    3  A    between atoms: N_7  and  C_8
REMARK    4  A    between atoms: N_7  and  C_15
REMARK    5  A    between atoms: C_8  and  C_9
REMARK    6  A    between atoms: C_15  and  C_16
REMARK    7  A    between atoms: C_23  and  C_24
REMARK                            x       y       z     vdW  Elec       q    Type
REMARK                         _______ _______ _______ _____ _____    ______ ____
ROOT
ATOM      1  C   UNL     1      -5.596   4.031 127.621  0.00  0.00    +0.000 C 
ATOM      2  O   UNL     1      -5.393   4.707 126.601  0.00  0.00    +0.000 OA
ATOM      3  N   UNL     1      -5.393   4.593 129.000  0.00  0.00    +0.000 N 
ENDROOT
BRANCH   1   7
ATOM      4  C   UNL     1      -5.295  -1.063 125.546  0.00  0.00    +0.000 C 
ATOM      5  C   UNL     1      -5.933   0.319 125.381  0.00  0.00    +0.000 A 
ATOM      6  C   UNL     1      -5.337   1.420 126.671  0.00  0.00    +0.000 A 
ATOM      7  C   UNL     1      -6.450   2.529 127.605  0.00  0.00    +0.000 A 
ATOM      8  C   UNL     1      -8.281   2.653 127.058  0.00  0.00    +0.000 A 
ATOM      9  C   UNL     1      -8.718   1.955 125.196  0.00  0.00    +0.000 A 
ATOM     10  C   UNL     1      -7.602   0.472 124.648  0.00  0.00    +0.000 A 
BRANCH  10  11
ATOM     11  C   UNL     1      -8.256  -0.944 124.823  0.00  0.00    +0.000 A 
ATOM     12  C   UNL     1      -8.363  -1.345 123.535  0.00  0.00    +0.000 A 
ATOM     13  C   UNL     1      -9.001  -2.493 123.244  0.00  0.00    +0.000 A 
ATOM     14  C   UNL     1      -9.349  -3.358 124.271  0.00  0.00    +0.000 A 
ATOM     15  C   UNL     1      -9.359  -2.961 125.608  0.00  0.00    +0.000 A 
ATOM     16  C   UNL     1      -8.872  -1.694 125.908  0.00  0.00    +0.000 A 
ENDBRANCH  10  11
ENDBRANCH   1   7
BRANCH   3  17
ATOM     17  C   UNL     1      -6.064   4.162 130.364  0.00  0.00    +0.000 C 
BRANCH  17  18
ATOM     18  C   UNL     1      -7.652   4.654 130.695  0.00  0.00    +0.000 A 
ATOM     19  C   UNL     1      -7.612   5.863 131.863  0.00  0.00    +0.000 A 
ATOM     20  C   UNL     1      -8.156   5.636 133.483  0.00  0.00    +0.000 A 
ATOM     21  C   UNL     1      -8.737   4.060 134.141  0.00  0.00    +0.000 A 
ATOM     22  C   UNL     1      -8.841   2.658 132.871  0.00  0.00    +0.000 A 
ATOM     23  C   UNL     1      -8.489   3.114 131.004  0.00  0.00    +0.000 A 
ENDBRANCH  17  18
ENDBRANCH   3  17
BRANCH   3  24
ATOM     24  C   UNL     1      -4.353   5.576 129.145  0.00  0.00    +0.000 C 
BRANCH  24  25
ATOM     25  C   UNL     1      -4.070   6.031 130.607  0.00  0.00    +0.000 C 
ATOM     26  C   UNL     1      -4.211   7.517 130.739  0.00  0.00    +0.000 C 
ATOM     27  C   UNL     1      -3.191   7.879 131.799  0.00  0.00    +0.000 C 
ATOM     28  C   UNL     1      -2.074   6.914 131.586  0.00  0.00    +0.000 C 
ATOM     29  O   UNL     1      -2.766   5.770 131.160  0.00  0.00    +0.000 OA
ENDBRANCH  24  25
ENDBRANCH   3  24
TORSDOF 6
ENDMDL
MODEL 6
REMARK VINA RESULT:      -8.9      4.520      6.166
REMARK  Name = CHEMBL474621
REMARK  7 active torsions:
REMARK  status: ('A' for Active; 'I' for Inactive)
REMARK    1  A    between atoms: C_1  and  C_2
REMARK    2  A    between atoms: C_4  and  C_5
REMARK    3  A    between atoms: N_7  and  C_8
REMARK    4  A    between atoms: N_7  and  C_15
REMARK    5  A    between atoms: C_8  and  C_9
REMARK    6  A    between atoms: C_15  and  C_16
REMARK    7  A    between atoms: C_23  and  C_24
REMARK                            x       y       z     vdW  Elec       q    Type
REMARK                         _______ _______ _______ _____ _____    ______ ____
ROOT
ATOM      1  C   UNL     1      -8.241  -2.704 127.400  0.00  0.00    +0.000 C 
ATOM      2  O   UNL     1      -8.985  -3.648 127.707  0.00  0.00    +0.000 OA
ATOM      3  N   UNL     1      -8.429  -1.925 126.129  0.00  0.00    +0.000 N 
ENDROOT
BRANCH   1   7
ATOM      4  C   UNL     1      -3.114  -3.155 129.364  0.00  0.00    +0.000 C 
ATOM      5  C   UNL     1      -4.589  -3.462 129.637  0.00  0.00    +0.000 A 
ATOM      6  C   UNL     1      -5.593  -2.876 128.266  0.00  0.00    +0.000 A 
ATOM      7  C   UNL     1      -7.155  -1.957 128.516  0.00  0.00    +0.000 A 
ATOM      8  C   UNL     1      -7.831  -1.781 130.299  0.00  0.00    +0.000 A 
ATOM      9  C   UNL     1      -7.055  -3.047 131.691  0.00  0.00    +0.000 A 
ATOM     10  C   UNL     1      -5.208  -3.518 131.357  0.00  0.00    +0.000 A 
BRANCH  10  11
ATOM     11  C   UNL     1      -4.159  -2.704 132.194  0.00  0.00    +0.000 A 
ATOM     12  C   UNL     1      -3.700  -3.657 133.039  0.00  0.00    +0.000 A 
ATOM     13  C   UNL     1      -2.847  -3.321 134.023  0.00  0.00    +0.000 A 
ATOM     14  C   UNL     1      -2.278  -2.056 134.030  0.00  0.00    +0.000 A 
ATOM     15  C   UNL     1      -2.782  -1.009 133.259  0.00  0.00    +0.000 A 
ATOM     16  C   UNL     1      -3.802  -1.303 132.361  0.00  0.00    +0.000 A 
ENDBRANCH  10  11
ENDBRANCH   1   7
BRANCH   3  17
ATOM     17  C   UNL     1      -8.005  -0.440 125.796  0.00  0.00    +0.000 C 
BRANCH  17  18
ATOM     18  C   UNL     1      -9.098   0.819 126.103  0.00  0.00    +0.000 A 
ATOM     19  C   UNL     1      -9.151   1.830 124.759  0.00  0.00    +0.000 A 
ATOM     20  C   UNL     1      -8.495   3.425 124.746  0.00  0.00    +0.000 A 
ATOM     21  C   UNL     1      -7.596   4.158 126.127  0.00  0.00    +0.000 A 
ATOM     22  C   UNL     1      -7.526   3.088 127.689  0.00  0.00    +0.000 A 
ATOM     23  C   UNL     1      -8.564   1.433 127.686  0.00  0.00    +0.000 A 
ENDBRANCH  17  18
ENDBRANCH   3  17
BRANCH   3  24
ATOM     24  C   UNL     1      -8.950  -2.651 125.003  0.00  0.00    +0.000 C 
BRANCH  24  25
ATOM     25  C   UNL     1      -7.897  -3.054 123.929  0.00  0.00    +0.000 C 
ATOM     26  C   UNL     1      -6.534  -3.174 124.539  0.00  0.00    +0.000 C 
ATOM     27  C   UNL     1      -5.604  -2.743 123.424  0.00  0.00    +0.000 C 
ATOM     28  C   UNL     1      -6.369  -1.697 122.685  0.00  0.00    +0.000 C 
ATOM     29  O   UNL     1      -7.686  -2.165 122.816  0.00  0.00    +0.000 OA
ENDBRANCH  24  25
ENDBRANCH   3  24
TORSDOF 6
ENDMDL
MODEL 7
REMARK VINA RESULT:      -8.9      3.228      8.964
REMARK  Name = CHEMBL474621
REMARK  7 active torsions:
REMARK  status: ('A' for Active; 'I' for Inactive)
REMARK    1  A    between atoms: C_1  and  C_2
REMARK    2  A    between atoms: C_4  and  C_5
REMARK    3  A    between atoms: N_7  and  C_8
REMARK    4  A    between atoms: N_7  and  C_15
REMARK    5  A    between atoms: C_8  and  C_9
REMARK    6  A    between atoms: C_15  and  C_16
REMARK    7  A    between atoms: C_23  and  C_24
REMARK                            x       y       z     vdW  Elec       q    Type
REMARK                         _______ _______ _______ _____ _____    ______ ____
ROOT
ATOM      1  C   UNL     1      -5.755   4.320 126.768  0.00  0.00    +0.000 C 
ATOM      2  O   UNL     1      -5.701   5.491 126.362  0.00  0.00    +0.000 OA
ATOM      3  N   UNL     1      -5.884   3.990 128.229  0.00  0.00    +0.000 N 
ENDROOT
BRANCH   1   7
ATOM      4  C   UNL     1      -9.861   1.333 124.629  0.00  0.00    +0.000 C 
ATOM      5  C   UNL     1      -8.798   1.391 125.730  0.00  0.00    +0.000 A 
ATOM      6  C   UNL     1      -7.863   2.920 125.590  0.00  0.00    +0.000 A 
ATOM      7  C   UNL     1      -6.041   2.971 125.727  0.00  0.00    +0.000 A 
ATOM      8  C   UNL     1      -5.120   1.367 126.222  0.00  0.00    +0.000 A 
ATOM      9  C   UNL     1      -6.252  -0.108 127.049  0.00  0.00    +0.000 A 
ATOM     10  C   UNL     1      -8.066  -0.156 126.376  0.00  0.00    +0.000 A 
BRANCH  10  11
ATOM     11  C   UNL     1      -8.325  -1.227 125.258  0.00  0.00    +0.000 A 
ATOM     12  C   UNL     1      -9.128  -2.100 125.911  0.00  0.00    +0.000 A 
ATOM     13  C   UNL     1      -9.485  -3.251 125.315  0.00  0.00    +0.000 A 
ATOM     14  C   UNL     1      -9.213  -3.435 123.968  0.00  0.00    +0.000 A 
ATOM     15  C   UNL     1      -8.309  -2.629 123.274  0.00  0.00    +0.000 A 
ATOM     16  C   UNL     1      -7.782  -1.531 123.942  0.00  0.00    +0.000 A 
ENDBRANCH  10  11
ENDBRANCH   1   7
BRANCH   3  17
ATOM     17  C   UNL     1      -6.491   2.702 128.913  0.00  0.00    +0.000 C 
BRANCH  17  18
ATOM     18  C   UNL     1      -8.170   2.584 129.109  0.00  0.00    +0.000 A 
ATOM     19  C   UNL     1      -8.722   3.966 129.895  0.00  0.00    +0.000 A 
ATOM     20  C   UNL     1      -9.298   3.966 131.519  0.00  0.00    +0.000 A 
ATOM     21  C   UNL     1      -9.289   2.518 132.594  0.00  0.00    +0.000 A 
ATOM     22  C   UNL     1      -8.712   0.915 131.765  0.00  0.00    +0.000 A 
ATOM     23  C   UNL     1      -8.374   0.975 129.842  0.00  0.00    +0.000 A 
ENDBRANCH  17  18
ENDBRANCH   3  17
BRANCH   3  24
ATOM     24  C   UNL     1      -5.260   4.902 129.149  0.00  0.00    +0.000 C 
BRANCH  24  25
ATOM     25  C   UNL     1      -3.702   4.891 129.140  0.00  0.00    +0.000 C 
ATOM     26  C   UNL     1      -3.158   5.461 130.414  0.00  0.00    +0.000 C 
ATOM     27  C   UNL     1      -1.869   6.130 129.983  0.00  0.00    +0.000 C 
ATOM     28  C   UNL     1      -2.152   6.633 128.608  0.00  0.00    +0.000 C 
ATOM     29  O   UNL     1      -3.023   5.646 128.119  0.00  0.00    +0.000 OA
ENDBRANCH  24  25
ENDBRANCH   3  24
TORSDOF 6
ENDMDL
MODEL 8
REMARK VINA RESULT:      -8.9      3.742      7.192
REMARK  Name = CHEMBL474621
REMARK  7 active torsions:
REMARK  status: ('A' for Active; 'I' for Inactive)
REMARK    1  A    between atoms: C_1  and  C_2
REMARK    2  A    between atoms: C_4  and  C_5
REMARK    3  A    between atoms: N_7  and  C_8
REMARK    4  A    between atoms: N_7  and  C_15
REMARK    5  A    between atoms: C_8  and  C_9
REMARK    6  A    between atoms: C_15  and  C_16
REMARK    7  A    between atoms: C_23  and  C_24
REMARK                            x       y       z     vdW  Elec       q    Type
REMARK                         _______ _______ _______ _____ _____    ______ ____
ROOT
ATOM      1  C   UNL     1      -7.348   1.244 126.590  0.00  0.00    +0.000 C 
ATOM      2  O   UNL     1      -7.687   2.270 127.198  0.00  0.00    +0.000 OA
ATOM      3  N   UNL     1      -7.308   1.185 125.089  0.00  0.00    +0.000 N 
ENDROOT
BRANCH   1   7
ATOM      4  C   UNL     1      -8.420  -3.696 128.781  0.00  0.00    +0.000 C 
ATOM      5  C   UNL     1      -8.160  -2.219 129.092  0.00  0.00    +0.000 A 
ATOM      6  C   UNL     1      -7.907  -1.313 127.561  0.00  0.00    +0.000 A 
ATOM      7  C   UNL     1      -6.562  -0.091 127.355  0.00  0.00    +0.000 A 
ATOM      8  C   UNL     1      -5.509   0.370 128.888  0.00  0.00    +0.000 A 
ATOM      9  C   UNL     1      -6.283  -0.133 130.702  0.00  0.00    +0.000 A 
ATOM     10  C   UNL     1      -7.352  -1.745 130.663  0.00  0.00    +0.000 A 
BRANCH  10  11
ATOM     11  C   UNL     1      -6.607  -3.040 131.145  0.00  0.00    +0.000 A 
ATOM     12  C   UNL     1      -7.020  -3.117 132.432  0.00  0.00    +0.000 A 
ATOM     13  C   UNL     1      -6.496  -4.051 133.246  0.00  0.00    +0.000 A 
ATOM     14  C   UNL     1      -5.709  -5.059 132.709  0.00  0.00    +0.000 A 
ATOM     15  C   UNL     1      -5.169  -4.978 131.425  0.00  0.00    +0.000 A 
ATOM     16  C   UNL     1      -5.558  -3.907 130.629  0.00  0.00    +0.000 A 
ENDBRANCH  10  11
ENDBRANCH   1   7
BRANCH   3  17
ATOM     17  C   UNL     1      -6.444   0.256 124.148  0.00  0.00    +0.000 C 
BRANCH  17  18
ATOM     18  C   UNL     1      -7.225  -0.901 123.187  0.00  0.00    +0.000 A 
ATOM     19  C   UNL     1      -8.729  -1.239 123.860  0.00  0.00    +0.000 A 
ATOM     20  C   UNL     1      -9.109  -2.734 124.630  0.00  0.00    +0.000 A 
ATOM     21  C   UNL     1      -7.922  -4.067 124.889  0.00  0.00    +0.000 A 
ATOM     22  C   UNL     1      -6.214  -3.770 124.125  0.00  0.00    +0.000 A 
ATOM     23  C   UNL     1      -5.995  -2.176 123.018  0.00  0.00    +0.000 A 
ENDBRANCH  17  18
ENDBRANCH   3  17
BRANCH   3  24
ATOM     24  C   UNL     1      -8.276   1.988 124.390  0.00  0.00    +0.000 C 
BRANCH  24  25
ATOM     25  C   UNL     1      -7.714   3.287 123.741  0.00  0.00    +0.000 C 
ATOM     26  C   UNL     1      -7.027   2.981 122.445  0.00  0.00    +0.000 C 
ATOM     27  C   UNL     1      -5.918   4.010 122.377  0.00  0.00    +0.000 C 
ATOM     28  C   UNL     1      -5.507   4.208 123.798  0.00  0.00    +0.000 C 
ATOM     29  O   UNL     1      -6.727   4.040 124.471  0.00  0.00    +0.000 OA
ENDBRANCH  24  25
ENDBRANCH   3  24
TORSDOF 6
ENDMDL
MODEL 9
REMARK VINA RESULT:      -8.9      4.890      9.840
REMARK  Name = CHEMBL474621
REMARK  7 active torsions:
REMARK  status: ('A' for Active; 'I' for Inactive)
REMARK    1  A    between atoms: C_1  and  C_2
REMARK    2  A    between atoms: C_4  and  C_5
REMARK    3  A    between atoms: N_7  and  C_8
REMARK    4  A    between atoms: N_7  and  C_15
REMARK    5  A    between atoms: C_8  and  C_9
REMARK    6  A    between atoms: C_15  and  C_16
REMARK    7  A    between atoms: C_23  and  C_24
REMARK                            x       y       z     vdW  Elec       q    Type
REMARK                         _______ _______ _______ _____ _____    ______ ____
ROOT
ATOM      1  C   UNL     1      -7.391   0.934 131.819  0.00  0.00    +0.000 C 
ATOM      2  O   UNL     1      -8.010   1.180 132.865  0.00  0.00    +0.000 OA
ATOM      3  N   UNL     1      -5.897   0.771 131.798  0.00  0.00    +0.000 N 
ENDROOT
BRANCH   1   7
ATOM      4  C   UNL     1      -8.416  -3.619 128.891  0.00  0.00    +0.000 C 
ATOM      5  C   UNL     1      -7.509  -2.392 129.020  0.00  0.00    +0.000 A 
ATOM      6  C   UNL     1      -8.015  -1.409 130.437  0.00  0.00    +0.000 A 
ATOM      7  C   UNL     1      -8.164   0.412 130.365  0.00  0.00    +0.000 A 
ATOM      8  C   UNL     1      -7.580   1.311 128.778  0.00  0.00    +0.000 A 
ATOM      9  C   UNL     1      -6.381   0.246 127.525  0.00  0.00    +0.000 A 
ATOM     10  C   UNL     1      -6.758  -1.652 127.525  0.00  0.00    +0.000 A 
BRANCH  10  11
ATOM     11  C   UNL     1      -7.651  -2.145 126.333  0.00  0.00    +0.000 A 
ATOM     12  C   UNL     1      -6.744  -2.817 125.585  0.00  0.00    +0.000 A 
ATOM     13  C   UNL     1      -7.100  -3.305 124.383  0.00  0.00    +0.000 A 
ATOM     14  C   UNL     1      -8.439  -3.308 124.018  0.00  0.00    +0.000 A 
ATOM     15  C   UNL     1      -9.396  -2.547 124.689  0.00  0.00    +0.000 A 
ATOM     16  C   UNL     1      -8.995  -1.879 125.841  0.00  0.00    +0.000 A 
ENDBRANCH  10  11
ENDBRANCH   1   7
BRANCH   3  17
ATOM     17  C   UNL     1      -4.994  -0.036 130.783  0.00  0.00    +0.000 C 
BRANCH  17  18
ATOM     18  C   UNL     1      -4.014  -1.290 131.367  0.00  0.00    +0.000 A 
ATOM     19  C   UNL     1      -3.440  -2.181 130.061  0.00  0.00    +0.000 A 
ATOM     20  C   UNL     1      -3.964  -3.784 129.703  0.00  0.00    +0.000 A 
ATOM     21  C   UNL     1      -5.250  -4.654 130.620  0.00  0.00    +0.000 A 
ATOM     22  C   UNL     1      -5.920  -3.723 132.129  0.00  0.00    +0.000 A 
ATOM     23  C   UNL     1      -5.036  -2.049 132.610  0.00  0.00    +0.000 A 
ENDBRANCH  17  18
ENDBRANCH   3  17
BRANCH   3  24
ATOM     24  C   UNL     1      -5.154   1.552 132.750  0.00  0.00    +0.000 C 
BRANCH  24  25
ATOM     25  C   UNL     1      -3.893   2.268 132.179  0.00  0.00    +0.000 C 
ATOM     26  C   UNL     1      -2.899   2.540 133.265  0.00  0.00    +0.000 C 
ATOM     27  C   UNL     1      -2.240   3.832 132.829  0.00  0.00    +0.000 C 
ATOM     28  C   UNL     1      -3.326   4.591 132.142  0.00  0.00    +0.000 C 
ATOM     29  O   UNL     1      -4.066   3.553 131.555  0.00  0.00    +0.000 OA
ENDBRANCH  24  25
ENDBRANCH   3  24
TORSDOF 6
ENDMDL
