MODEL 1
REMARK VINA RESULT:      -9.1      0.000      0.000
REMARK  Name = CHEMBL1779406
REMARK  13 active torsions:
REMARK  status: ('A' for Active; 'I' for Inactive)
REMARK    1  A    between atoms: C_1  and  O_2
REMARK    2  A    between atoms: O_2  and  C_3
REMARK    3  A    between atoms: C_6  and  S_7
REMARK    4  A    between atoms: S_7  and  N_10
REMARK    5  A    between atoms: C_13  and  C_14
REMARK    6  A    between atoms: C_13  and  N_28
REMARK    7  A    between atoms: C_17  and  C_18
REMARK    8  A    between atoms: C_18  and  N_19
REMARK    9  A    between atoms: C_25  and  O_26
REMARK   10  A    between atoms: O_26  and  C_27
REMARK   11  A    between atoms: C_32  and  C_33
REMARK   12  A    between atoms: N_35  and  C_36
REMARK   13  A    between atoms: N_35  and  C_37
REMARK                            x       y       z     vdW  Elec       q    Type
REMARK                         _______ _______ _______ _____ _____    ______ ____
ROOT
ATOM      1  N   UNL     1      -8.268   3.213 130.785  0.00  0.00    +0.000 N 
ATOM      2  C   UNL     1      -7.005   3.035 131.474  0.00  0.00    +0.000 C 
ATOM      3  O   UNL     1      -6.899   3.226 132.634  0.00  0.00    +0.000 OA
ATOM      4  C   UNL     1      -6.361   1.888 130.678  0.00  0.00    +0.000 C 
ATOM      5  C   UNL     1      -7.009   0.976 131.607  0.00  0.00    +0.000 A 
ATOM      6  C   UNL     1      -6.407  -0.154 132.230  0.00  0.00    +0.000 A 
ATOM      7  C   UNL     1      -7.156  -1.167 132.712  0.00  0.00    +0.000 A 
ATOM      8 CL   UNL     1      -6.348  -2.513 133.430  0.00  0.00    +0.000 Cl
ATOM      9  C   UNL     1      -8.498  -1.017 132.410  0.00  0.00    +0.000 A 
ATOM     10  C   UNL     1      -9.084   0.290 131.765  0.00  0.00    +0.000 A 
ATOM     11  C   UNL     1      -8.332   1.516 131.587  0.00  0.00    +0.000 A 
ENDROOT
BRANCH   4  12
ATOM     12  C   UNL     1      -7.005   1.531 129.165  0.00  0.00    +0.000 A 
ATOM     13  C   UNL     1      -8.268   1.858 128.534  0.00  0.00    +0.000 A 
ATOM     14  C   UNL     1      -8.626   1.398 127.251  0.00  0.00    +0.000 A 
ATOM     15  C   UNL     1      -7.613   0.916 126.447  0.00  0.00    +0.000 A 
ATOM     16  C   UNL     1      -6.353   0.803 127.059  0.00  0.00    +0.000 A 
ATOM     17  C   UNL     1      -6.216   0.706 128.445  0.00  0.00    +0.000 A 
BRANCH  17  18
ATOM     18  O   UNL     1      -5.619  -0.212 129.225  0.00  0.00    +0.000 OA
ATOM     19  C   UNL     1      -4.798  -1.349 129.467  0.00  0.00    +0.000 C 
ENDBRANCH  17  18
BRANCH  15  20
ATOM     20  C   UNL     1      -7.879   0.454 125.015  0.00  0.00    +0.000 C 
BRANCH  20  21
ATOM     21  N   UNL     1      -7.578  -0.958 124.688  0.00  0.00    +0.000 NA
ATOM     22  C   UNL     1      -7.490  -1.154 123.228  0.00  0.00    +0.000 C 
ATOM     23  C   UNL     1      -8.729  -1.901 122.788  0.00  0.00    +0.000 C 
ATOM     24  C   UNL     1      -8.992  -2.761 124.002  0.00  0.00    +0.000 C 
ATOM     25  C   UNL     1      -8.422  -2.030 125.223  0.00  0.00    +0.000 C 
ENDBRANCH  20  21
ENDBRANCH  15  20
ENDBRANCH   4  12
BRANCH   4  26
ATOM     26  N   UNL     1      -4.939   2.140 130.748  0.00  0.00    +0.000 NA
ATOM     27  C   UNL     1      -3.976   1.623 131.739  0.00  0.00    +0.000 C 
ATOM     28  C   UNL     1      -3.339   2.898 132.143  0.00  0.00    +0.000 C 
ATOM     29  C   UNL     1      -3.376   3.784 130.888  0.00  0.00    +0.000 C 
ATOM     30  C   UNL     1      -4.459   3.306 129.939  0.00  0.00    +0.000 C 
BRANCH  30  31
ATOM     31  C   UNL     1      -3.855   3.139 128.308  0.00  0.00    +0.000 C 
ATOM     32  O   UNL     1      -3.057   2.346 127.816  0.00  0.00    +0.000 OA
ATOM     33  N   UNL     1      -4.218   4.004 127.327  0.00  0.00    +0.000 N 
ATOM     34  C   UNL     1      -4.644   5.273 127.657  0.00  0.00    +0.000 C 
ATOM     35  C   UNL     1      -3.782   3.825 125.948  0.00  0.00    +0.000 C 
ENDBRANCH  30  31
ENDBRANCH   4  26
BRANCH   1  36
ATOM     36  S   UNL     1      -7.634   5.299 130.973  0.00  0.00    +0.000 S 
ATOM     37  O   UNL     1      -8.435   5.998 131.919  0.00  0.00    +0.000 OA
ATOM     38  O   UNL     1      -7.599   5.669 129.542  0.00  0.00    +0.000 OA
BRANCH  36  42
ATOM     39  C   UNL     1      -3.203   7.735 132.305  0.00  0.00    +0.000 A 
ATOM     40  C   UNL     1      -3.902   6.877 133.147  0.00  0.00    +0.000 A 
ATOM     41  C   UNL     1      -5.129   6.139 132.720  0.00  0.00    +0.000 A 
ATOM     42  C   UNL     1      -5.817   6.344 131.464  0.00  0.00    +0.000 A 
ATOM     43  C   UNL     1      -5.063   7.174 130.662  0.00  0.00    +0.000 A 
ATOM     44  C   UNL     1      -3.761   7.819 131.049  0.00  0.00    +0.000 A 
BRANCH  39  46
ATOM     45  C   UNL     1      -2.046   9.772 132.976  0.00  0.00    +0.000 C 
ATOM     46  O   UNL     1      -2.044   8.349 132.724  0.00  0.00    +0.000 OA
ENDBRANCH  39  46
ENDBRANCH  36  42
ENDBRANCH   1  36
TORSDOF 9
ENDMDL
MODEL 2
REMARK VINA RESULT:      -9.0      3.451      7.875
REMARK  Name = CHEMBL1779406
REMARK  13 active torsions:
REMARK  status: ('A' for Active; 'I' for Inactive)
REMARK    1  A    between atoms: C_1  and  O_2
REMARK    2  A    between atoms: O_2  and  C_3
REMARK    3  A    between atoms: C_6  and  S_7
REMARK    4  A    between atoms: S_7  and  N_10
REMARK    5  A    between atoms: C_13  and  C_14
REMARK    6  A    between atoms: C_13  and  N_28
REMARK    7  A    between atoms: C_17  and  C_18
REMARK    8  A    between atoms: C_18  and  N_19
REMARK    9  A    between atoms: C_25  and  O_26
REMARK   10  A    between atoms: O_26  and  C_27
REMARK   11  A    between atoms: C_32  and  C_33
REMARK   12  A    between atoms: N_35  and  C_36
REMARK   13  A    between atoms: N_35  and  C_37
REMARK                            x       y       z     vdW  Elec       q    Type
REMARK                         _______ _______ _______ _____ _____    ______ ____
ROOT
ATOM      1  N   UNL     1      -5.510   2.582 127.853  0.00  0.00    +0.000 N 
ATOM      2  C   UNL     1      -4.687   2.145 128.963  0.00  0.00    +0.000 C 
ATOM      3  O   UNL     1      -3.616   1.674 128.796  0.00  0.00    +0.000 OA
ATOM      4  C   UNL     1      -5.081   3.138 130.069  0.00  0.00    +0.000 C 
ATOM      5  C   UNL     1      -4.003   3.988 129.589  0.00  0.00    +0.000 A 
ATOM      6  C   UNL     1      -3.044   4.664 130.397  0.00  0.00    +0.000 A 
ATOM      7  C   UNL     1      -2.377   5.740 129.936  0.00  0.00    +0.000 A 
ATOM      8 CL   UNL     1      -1.251   6.519 130.988  0.00  0.00    +0.000 Cl
ATOM      9  C   UNL     1      -2.828   6.144 128.692  0.00  0.00    +0.000 A 
ATOM     10  C   UNL     1      -3.853   5.306 127.846  0.00  0.00    +0.000 A 
ATOM     11  C   UNL     1      -4.288   3.967 128.189  0.00  0.00    +0.000 A 
ENDROOT
BRANCH   4  12
ATOM     12  C   UNL     1      -6.492   4.027 129.851  0.00  0.00    +0.000 A 
ATOM     13  C   UNL     1      -7.359   4.228 128.707  0.00  0.00    +0.000 A 
ATOM     14  C   UNL     1      -8.484   5.077 128.738  0.00  0.00    +0.000 A 
ATOM     15  C   UNL     1      -8.962   5.450 129.977  0.00  0.00    +0.000 A 
ATOM     16  C   UNL     1      -8.177   5.055 131.074  0.00  0.00    +0.000 A 
ATOM     17  C   UNL     1      -6.819   4.759 130.937  0.00  0.00    +0.000 A 
BRANCH  17  18
ATOM     18  O   UNL     1      -5.727   5.250 131.548  0.00  0.00    +0.000 OA
ATOM     19  C   UNL     1      -5.044   5.952 132.581  0.00  0.00    +0.000 C 
ENDBRANCH  17  18
BRANCH  15  20
ATOM     20  C   UNL     1     -10.214   6.313 130.127  0.00  0.00    +0.000 C 
BRANCH  20  21
ATOM     21  N   UNL     1     -11.074   6.477 128.933  0.00  0.00    +0.000 NA
ATOM     22  C   UNL     1     -10.832   7.781 128.286  0.00  0.00    +0.000 C 
ATOM     23  C   UNL     1     -12.024   8.666 128.573  0.00  0.00    +0.000 C 
ATOM     24  C   UNL     1     -13.137   7.645 128.615  0.00  0.00    +0.000 C 
ATOM     25  C   UNL     1     -12.524   6.307 129.045  0.00  0.00    +0.000 C 
ENDBRANCH  20  21
ENDBRANCH  15  20
ENDBRANCH   4  12
BRANCH   4  26
ATOM     26  N   UNL     1      -4.953   2.393 131.301  0.00  0.00    +0.000 NA
ATOM     27  C   UNL     1      -3.777   2.306 132.188  0.00  0.00    +0.000 C 
ATOM     28  C   UNL     1      -3.672   0.832 132.305  0.00  0.00    +0.000 C 
ATOM     29  C   UNL     1      -5.116   0.316 132.209  0.00  0.00    +0.000 C 
ATOM     30  C   UNL     1      -5.996   1.341 131.519  0.00  0.00    +0.000 C 
BRANCH  30  31
ATOM     31  C   UNL     1      -7.463   1.639 132.423  0.00  0.00    +0.000 C 
ATOM     32  O   UNL     1      -7.670   1.714 133.630  0.00  0.00    +0.000 OA
ATOM     33  N   UNL     1      -8.660   1.784 131.800  0.00  0.00    +0.000 N 
ATOM     34  C   UNL     1      -8.854   1.229 130.552  0.00  0.00    +0.000 C 
ATOM     35  C   UNL     1      -9.872   2.111 132.538  0.00  0.00    +0.000 C 
ENDBRANCH  30  31
ENDBRANCH   4  26
BRANCH   1  36
ATOM     36  S   UNL     1      -5.837   0.421 127.748  0.00  0.00    +0.000 S 
ATOM     37  O   UNL     1      -5.192  -0.144 126.612  0.00  0.00    +0.000 OA
ATOM     38  O   UNL     1      -7.304   0.391 127.919  0.00  0.00    +0.000 OA
BRANCH  36  42
ATOM     39  C   UNL     1      -5.137  -3.761 130.809  0.00  0.00    +0.000 A 
ATOM     40  C   UNL     1      -6.377  -3.341 130.338  0.00  0.00    +0.000 A 
ATOM     41  C   UNL     1      -6.544  -2.183 129.408  0.00  0.00    +0.000 A 
ATOM     42  C   UNL     1      -5.482  -1.279 129.022  0.00  0.00    +0.000 A 
ATOM     43  C   UNL     1      -4.279  -1.763 129.488  0.00  0.00    +0.000 A 
ATOM     44  C   UNL     1      -4.097  -3.001 130.321  0.00  0.00    +0.000 A 
BRANCH  39  46
ATOM     45  C   UNL     1      -5.587  -4.836 132.950  0.00  0.00    +0.000 C 
ATOM     46  O   UNL     1      -5.026  -4.869 131.618  0.00  0.00    +0.000 OA
ENDBRANCH  39  46
ENDBRANCH  36  42
ENDBRANCH   1  36
TORSDOF 9
ENDMDL
MODEL 3
REMARK VINA RESULT:      -8.7      3.577      7.846
REMARK  Name = CHEMBL1779406
REMARK  13 active torsions:
REMARK  status: ('A' for Active; 'I' for Inactive)
REMARK    1  A    between atoms: C_1  and  O_2
REMARK    2  A    between atoms: O_2  and  C_3
REMARK    3  A    between atoms: C_6  and  S_7
REMARK    4  A    between atoms: S_7  and  N_10
REMARK    5  A    between atoms: C_13  and  C_14
REMARK    6  A    between atoms: C_13  and  N_28
REMARK    7  A    between atoms: C_17  and  C_18
REMARK    8  A    between atoms: C_18  and  N_19
REMARK    9  A    between atoms: C_25  and  O_26
REMARK   10  A    between atoms: O_26  and  C_27
REMARK   11  A    between atoms: C_32  and  C_33
REMARK   12  A    between atoms: N_35  and  C_36
REMARK   13  A    between atoms: N_35  and  C_37
REMARK                            x       y       z     vdW  Elec       q    Type
REMARK                         _______ _______ _______ _____ _____    ______ ____
ROOT
ATOM      1  N   UNL     1      -5.887   3.867 128.024  0.00  0.00    +0.000 N 
ATOM      2  C   UNL     1      -5.032   3.067 128.878  0.00  0.00    +0.000 C 
ATOM      3  O   UNL     1      -4.051   2.552 128.469  0.00  0.00    +0.000 OA
ATOM      4  C   UNL     1      -5.195   3.761 130.241  0.00  0.00    +0.000 C 
ATOM      5  C   UNL     1      -4.063   4.594 129.870  0.00  0.00    +0.000 A 
ATOM      6  C   UNL     1      -2.957   4.927 130.704  0.00  0.00    +0.000 A 
ATOM      7  C   UNL     1      -2.199   6.015 130.457  0.00  0.00    +0.000 A 
ATOM      8 CL   UNL     1      -0.893   6.364 131.531  0.00  0.00    +0.000 Cl
ATOM      9  C   UNL     1      -2.703   6.782 129.422  0.00  0.00    +0.000 A 
ATOM     10  C   UNL     1      -3.898   6.311 128.518  0.00  0.00    +0.000 A 
ATOM     11  C   UNL     1      -4.471   4.980 128.556  0.00  0.00    +0.000 A 
ENDROOT
BRANCH   4  12
ATOM     12  C   UNL     1      -6.493   4.814 130.429  0.00  0.00    +0.000 A 
ATOM     13  C   UNL     1      -6.604   6.145 130.994  0.00  0.00    +0.000 A 
ATOM     14  C   UNL     1      -7.830   6.833 131.099  0.00  0.00    +0.000 A 
ATOM     15  C   UNL     1      -8.883   6.370 130.336  0.00  0.00    +0.000 A 
ATOM     16  C   UNL     1      -8.650   5.168 129.647  0.00  0.00    +0.000 A 
ATOM     17  C   UNL     1      -7.668   4.264 130.057  0.00  0.00    +0.000 A 
BRANCH  17  18
ATOM     18  O   UNL     1      -7.726   2.960 130.378  0.00  0.00    +0.000 OA
ATOM     19  C   UNL     1      -8.400   1.751 130.709  0.00  0.00    +0.000 C 
ENDBRANCH  17  18
BRANCH  15  20
ATOM     20  C   UNL     1     -10.235   7.080 130.323  0.00  0.00    +0.000 C 
BRANCH  20  21
ATOM     21  N   UNL     1     -11.029   7.011 129.076  0.00  0.00    +0.000 NA
ATOM     22  C   UNL     1     -11.105   8.333 128.425  0.00  0.00    +0.000 C 
ATOM     23  C   UNL     1     -12.507   8.864 128.624  0.00  0.00    +0.000 C 
ATOM     24  C   UNL     1     -13.305   7.581 128.611  0.00  0.00    +0.000 C 
ATOM     25  C   UNL     1     -12.385   6.456 129.099  0.00  0.00    +0.000 C 
ENDBRANCH  20  21
ENDBRANCH  15  20
ENDBRANCH   4  12
BRANCH   4  26
ATOM     26  N   UNL     1      -5.056   2.703 131.217  0.00  0.00    +0.000 NA
ATOM     27  C   UNL     1      -4.868   1.262 130.967  0.00  0.00    +0.000 C 
ATOM     28  C   UNL     1      -5.949   0.725 131.826  0.00  0.00    +0.000 C 
ATOM     29  C   UNL     1      -6.061   1.713 132.998  0.00  0.00    +0.000 C 
ATOM     30  C   UNL     1      -5.483   3.060 132.607  0.00  0.00    +0.000 C 
BRANCH  30  31
ATOM     31  C   UNL     1      -4.367   3.654 133.814  0.00  0.00    +0.000 C 
ATOM     32  O   UNL     1      -3.337   3.170 134.275  0.00  0.00    +0.000 OA
ATOM     33  N   UNL     1      -4.588   4.824 134.466  0.00  0.00    +0.000 N 
ATOM     34  C   UNL     1      -5.873   5.313 134.578  0.00  0.00    +0.000 C 
ATOM     35  C   UNL     1      -3.624   5.365 135.415  0.00  0.00    +0.000 C 
ENDBRANCH  30  31
ENDBRANCH   4  26
BRANCH   1  36
ATOM     36  S   UNL     1      -6.499   1.858 127.408  0.00  0.00    +0.000 S 
ATOM     37  O   UNL     1      -5.898   1.493 126.171  0.00  0.00    +0.000 OA
ATOM     38  O   UNL     1      -7.962   1.994 127.567  0.00  0.00    +0.000 OA
BRANCH  36  42
ATOM     39  C   UNL     1      -6.482  -2.967 129.423  0.00  0.00    +0.000 A 
ATOM     40  C   UNL     1      -7.624  -2.185 129.288  0.00  0.00    +0.000 A 
ATOM     41  C   UNL     1      -7.615  -0.836 128.646  0.00  0.00    +0.000 A 
ATOM     42  C   UNL     1      -6.420  -0.126 128.242  0.00  0.00    +0.000 A 
ATOM     43  C   UNL     1      -5.330  -0.959 128.368  0.00  0.00    +0.000 A 
ATOM     44  C   UNL     1      -5.359  -2.365 128.898  0.00  0.00    +0.000 A 
BRANCH  39  46
ATOM     45  C   UNL     1      -5.522  -4.659 130.892  0.00  0.00    +0.000 C 
ATOM     46  O   UNL     1      -6.548  -4.229 129.969  0.00  0.00    +0.000 OA
ENDBRANCH  39  46
ENDBRANCH  36  42
ENDBRANCH   1  36
TORSDOF 9
ENDMDL
MODEL 4
REMARK VINA RESULT:      -8.6      2.353      2.980
REMARK  Name = CHEMBL1779406
REMARK  13 active torsions:
REMARK  status: ('A' for Active; 'I' for Inactive)
REMARK    1  A    between atoms: C_1  and  O_2
REMARK    2  A    between atoms: O_2  and  C_3
REMARK    3  A    between atoms: C_6  and  S_7
REMARK    4  A    between atoms: S_7  and  N_10
REMARK    5  A    between atoms: C_13  and  C_14
REMARK    6  A    between atoms: C_13  and  N_28
REMARK    7  A    between atoms: C_17  and  C_18
REMARK    8  A    between atoms: C_18  and  N_19
REMARK    9  A    between atoms: C_25  and  O_26
REMARK   10  A    between atoms: O_26  and  C_27
REMARK   11  A    between atoms: C_32  and  C_33
REMARK   12  A    between atoms: N_35  and  C_36
REMARK   13  A    between atoms: N_35  and  C_37
REMARK                            x       y       z     vdW  Elec       q    Type
REMARK                         _______ _______ _______ _____ _____    ______ ____
ROOT
ATOM      1  N   UNL     1      -8.114  -0.160 132.063  0.00  0.00    +0.000 N 
ATOM      2  C   UNL     1      -6.845   0.196 132.668  0.00  0.00    +0.000 C 
ATOM      3  O   UNL     1      -6.732   0.344 133.834  0.00  0.00    +0.000 OA
ATOM      4  C   UNL     1      -5.837  -0.499 131.737  0.00  0.00    +0.000 C 
ATOM      5  C   UNL     1      -5.940  -1.657 132.610  0.00  0.00    +0.000 A 
ATOM      6  C   UNL     1      -4.855  -2.441 133.095  0.00  0.00    +0.000 A 
ATOM      7  C   UNL     1      -5.043  -3.708 133.519  0.00  0.00    +0.000 A 
ATOM      8 CL   UNL     1      -3.670  -4.600 134.068  0.00  0.00    +0.000 Cl
ATOM      9  C   UNL     1      -6.336  -4.147 133.301  0.00  0.00    +0.000 A 
ATOM     10  C   UNL     1      -7.487  -3.196 132.811  0.00  0.00    +0.000 A 
ATOM     11  C   UNL     1      -7.363  -1.756 132.708  0.00  0.00    +0.000 A 
ENDROOT
BRANCH   4  12
ATOM     12  C   UNL     1      -6.389  -1.011 130.233  0.00  0.00    +0.000 A 
ATOM     13  C   UNL     1      -7.712  -1.319 129.726  0.00  0.00    +0.000 A 
ATOM     14  C   UNL     1      -7.940  -1.793 128.418  0.00  0.00    +0.000 A 
ATOM     15  C   UNL     1      -6.922  -1.632 127.500  0.00  0.00    +0.000 A 
ATOM     16  C   UNL     1      -5.711  -1.141 128.016  0.00  0.00    +0.000 A 
ATOM     17  C   UNL     1      -5.385  -1.266 129.369  0.00  0.00    +0.000 A 
BRANCH  17  18
ATOM     18  O   UNL     1      -4.327  -1.814 129.989  0.00  0.00    +0.000 OA
ATOM     19  C   UNL     1      -3.099  -2.534 130.035  0.00  0.00    +0.000 C 
ENDBRANCH  17  18
BRANCH  15  20
ATOM     20  C   UNL     1      -7.087  -2.050 126.040  0.00  0.00    +0.000 C 
BRANCH  20  21
ATOM     21  N   UNL     1      -8.352  -1.682 125.365  0.00  0.00    +0.000 NA
ATOM     22  C   UNL     1      -9.241  -2.854 125.237  0.00  0.00    +0.000 C 
ATOM     23  C   UNL     1      -9.243  -3.274 123.785  0.00  0.00    +0.000 C 
ATOM     24  C   UNL     1      -9.073  -1.939 123.099  0.00  0.00    +0.000 C 
ATOM     25  C   UNL     1      -8.321  -1.013 124.062  0.00  0.00    +0.000 C 
ENDBRANCH  20  21
ENDBRANCH  15  20
ENDBRANCH   4  12
BRANCH   4  26
ATOM     26  N   UNL     1      -4.666   0.350 131.757  0.00  0.00    +0.000 NA
ATOM     27  C   UNL     1      -3.433   0.171 132.546  0.00  0.00    +0.000 C 
ATOM     28  C   UNL     1      -3.346   1.516 133.163  0.00  0.00    +0.000 C 
ATOM     29  C   UNL     1      -3.953   2.475 132.129  0.00  0.00    +0.000 C 
ATOM     30  C   UNL     1      -4.863   1.718 131.180  0.00  0.00    +0.000 C 
BRANCH  30  31
ATOM     31  C   UNL     1      -4.510   2.098 129.511  0.00  0.00    +0.000 C 
ATOM     32  O   UNL     1      -3.636   1.687 128.753  0.00  0.00    +0.000 OA
ATOM     33  N   UNL     1      -5.224   3.031 128.832  0.00  0.00    +0.000 N 
ATOM     34  C   UNL     1      -5.882   4.027 129.524  0.00  0.00    +0.000 C 
ATOM     35  C   UNL     1      -4.988   3.298 127.419  0.00  0.00    +0.000 C 
ENDBRANCH  30  31
ENDBRANCH   4  26
BRANCH   1  36
ATOM     36  S   UNL     1      -8.438   1.976 132.410  0.00  0.00    +0.000 S 
ATOM     37  O   UNL     1      -9.617   2.201 133.175  0.00  0.00    +0.000 OA
ATOM     38  O   UNL     1      -8.289   2.469 131.025  0.00  0.00    +0.000 OA
BRANCH  36  42
ATOM     39  C   UNL     1      -5.697   5.817 134.664  0.00  0.00    +0.000 A 
ATOM     40  C   UNL     1      -5.892   4.562 135.233  0.00  0.00    +0.000 A 
ATOM     41  C   UNL     1      -6.621   3.458 134.539  0.00  0.00    +0.000 A 
ATOM     42  C   UNL     1      -7.336   3.603 133.290  0.00  0.00    +0.000 A 
ATOM     43  C   UNL     1      -7.081   4.849 132.760  0.00  0.00    +0.000 A 
ATOM     44  C   UNL     1      -6.242   5.919 133.403  0.00  0.00    +0.000 A 
BRANCH  39  46
ATOM     45  C   UNL     1      -3.566   6.947 135.012  0.00  0.00    +0.000 C 
ATOM     46  O   UNL     1      -4.969   6.786 135.317  0.00  0.00    +0.000 OA
ENDBRANCH  39  46
ENDBRANCH  36  42
ENDBRANCH   1  36
TORSDOF 9
ENDMDL
MODEL 5
REMARK VINA RESULT:      -8.5      2.738      8.243
REMARK  Name = CHEMBL1779406
REMARK  13 active torsions:
REMARK  status: ('A' for Active; 'I' for Inactive)
REMARK    1  A    between atoms: C_1  and  O_2
REMARK    2  A    between atoms: O_2  and  C_3
REMARK    3  A    between atoms: C_6  and  S_7
REMARK    4  A    between atoms: S_7  and  N_10
REMARK    5  A    between atoms: C_13  and  C_14
REMARK    6  A    between atoms: C_13  and  N_28
REMARK    7  A    between atoms: C_17  and  C_18
REMARK    8  A    between atoms: C_18  and  N_19
REMARK    9  A    between atoms: C_25  and  O_26
REMARK   10  A    between atoms: O_26  and  C_27
REMARK   11  A    between atoms: C_32  and  C_33
REMARK   12  A    between atoms: N_35  and  C_36
REMARK   13  A    between atoms: N_35  and  C_37
REMARK                            x       y       z     vdW  Elec       q    Type
REMARK                         _______ _______ _______ _____ _____    ______ ____
ROOT
ATOM      1  N   UNL     1      -6.216   1.039 131.391  0.00  0.00    +0.000 N 
ATOM      2  C   UNL     1      -7.073   1.689 130.420  0.00  0.00    +0.000 C 
ATOM      3  O   UNL     1      -8.171   1.309 130.207  0.00  0.00    +0.000 OA
ATOM      4  C   UNL     1      -6.620   3.155 130.518  0.00  0.00    +0.000 C 
ATOM      5  C   UNL     1      -7.637   3.324 131.544  0.00  0.00    +0.000 A 
ATOM      6  C   UNL     1      -8.553   4.410 131.646  0.00  0.00    +0.000 A 
ATOM      7  C   UNL     1      -9.145   4.715 132.819  0.00  0.00    +0.000 A 
ATOM      8 CL   UNL     1     -10.223   6.063 132.865  0.00  0.00    +0.000 Cl
ATOM      9  C   UNL     1      -8.660   3.952 133.866  0.00  0.00    +0.000 A 
ATOM     10  C   UNL     1      -7.688   2.737 133.654  0.00  0.00    +0.000 A 
ATOM     11  C   UNL     1      -7.345   2.186 132.358  0.00  0.00    +0.000 A 
ENDROOT
BRANCH   4  12
ATOM     12  C   UNL     1      -5.152   3.468 131.276  0.00  0.00    +0.000 A 
ATOM     13  C   UNL     1      -4.341   2.701 132.201  0.00  0.00    +0.000 A 
ATOM     14  C   UNL     1      -3.145   3.193 132.763  0.00  0.00    +0.000 A 
ATOM     15  C   UNL     1      -2.563   4.286 132.155  0.00  0.00    +0.000 A 
ATOM     16  C   UNL     1      -3.313   4.878 131.124  0.00  0.00    +0.000 A 
ATOM     17  C   UNL     1      -4.697   4.716 131.036  0.00  0.00    +0.000 A 
BRANCH  17  18
ATOM     18  O   UNL     1      -5.703   5.606 130.985  0.00  0.00    +0.000 OA
ATOM     19  C   UNL     1      -6.262   6.914 131.057  0.00  0.00    +0.000 C 
ENDBRANCH  17  18
BRANCH  15  20
ATOM     20  C   UNL     1      -1.234   4.860 132.642  0.00  0.00    +0.000 C 
BRANCH  20  21
ATOM     21  N   UNL     1      -1.259   6.199 133.272  0.00  0.00    +0.000 NA
ATOM     22  C   UNL     1      -2.284   6.263 134.332  0.00  0.00    +0.000 C 
ATOM     23  C   UNL     1      -3.430   7.102 133.815  0.00  0.00    +0.000 C 
ATOM     24  C   UNL     1      -2.694   8.083 132.933  0.00  0.00    +0.000 C 
ATOM     25  C   UNL     1      -1.413   7.397 132.443  0.00  0.00    +0.000 C 
ENDBRANCH  20  21
ENDBRANCH  15  20
ENDBRANCH   4  12
BRANCH   4  26
ATOM     26  N   UNL     1      -6.804   3.692 129.188  0.00  0.00    +0.000 NA
ATOM     27  C   UNL     1      -7.951   4.464 128.675  0.00  0.00    +0.000 C 
ATOM     28  C   UNL     1      -8.245   3.677 127.455  0.00  0.00    +0.000 C 
ATOM     29  C   UNL     1      -6.886   3.136 126.986  0.00  0.00    +0.000 C 
ATOM     30  C   UNL     1      -5.902   3.117 128.140  0.00  0.00    +0.000 C 
BRANCH  30  31
ATOM     31  C   UNL     1      -4.380   3.854 127.698  0.00  0.00    +0.000 C 
ATOM     32  O   UNL     1      -3.999   5.020 127.746  0.00  0.00    +0.000 OA
ATOM     33  N   UNL     1      -3.374   3.126 127.149  0.00  0.00    +0.000 N 
ATOM     34  C   UNL     1      -3.663   1.954 126.482  0.00  0.00    +0.000 C 
ATOM     35  C   UNL     1      -2.076   3.716 126.851  0.00  0.00    +0.000 C 
ENDBRANCH  30  31
ENDBRANCH   4  26
BRANCH   1  36
ATOM     36  S   UNL     1      -6.032  -0.360 129.719  0.00  0.00    +0.000 S 
ATOM     37  O   UNL     1      -6.507  -1.654 130.075  0.00  0.00    +0.000 OA
ATOM     38  O   UNL     1      -4.623  -0.110 129.350  0.00  0.00    +0.000 OA
BRANCH  36  42
ATOM     39  C   UNL     1      -7.570  -0.698 124.733  0.00  0.00    +0.000 A 
ATOM     40  C   UNL     1      -6.276  -0.966 125.167  0.00  0.00    +0.000 A 
ATOM     41  C   UNL     1      -5.878  -0.930 126.607  0.00  0.00    +0.000 A 
ATOM     42  C   UNL     1      -6.726  -0.465 127.683  0.00  0.00    +0.000 A 
ATOM     43  C   UNL     1      -7.998  -0.247 127.200  0.00  0.00    +0.000 A 
ATOM     44  C   UNL     1      -8.430  -0.406 125.768  0.00  0.00    +0.000 A 
BRANCH  39  46
ATOM     45  C   UNL     1      -8.859  -1.803 122.983  0.00  0.00    +0.000 C 
ATOM     46  O   UNL     1      -7.905  -0.801 123.401  0.00  0.00    +0.000 OA
ENDBRANCH  39  46
ENDBRANCH  36  42
ENDBRANCH   1  36
TORSDOF 9
ENDMDL
MODEL 6
REMARK VINA RESULT:      -8.5      3.777      7.592
REMARK  Name = CHEMBL1779406
REMARK  13 active torsions:
REMARK  status: ('A' for Active; 'I' for Inactive)
REMARK    1  A    between atoms: C_1  and  O_2
REMARK    2  A    between atoms: O_2  and  C_3
REMARK    3  A    between atoms: C_6  and  S_7
REMARK    4  A    between atoms: S_7  and  N_10
REMARK    5  A    between atoms: C_13  and  C_14
REMARK    6  A    between atoms: C_13  and  N_28
REMARK    7  A    between atoms: C_17  and  C_18
REMARK    8  A    between atoms: C_18  and  N_19
REMARK    9  A    between atoms: C_25  and  O_26
REMARK   10  A    between atoms: O_26  and  C_27
REMARK   11  A    between atoms: C_32  and  C_33
REMARK   12  A    between atoms: N_35  and  C_36
REMARK   13  A    between atoms: N_35  and  C_37
REMARK                            x       y       z     vdW  Elec       q    Type
REMARK                         _______ _______ _______ _____ _____    ______ ____
ROOT
ATOM      1  N   UNL     1      -6.338   1.926 128.940  0.00  0.00    +0.000 N 
ATOM      2  C   UNL     1      -5.159   2.145 129.755  0.00  0.00    +0.000 C 
ATOM      3  O   UNL     1      -4.116   1.665 129.480  0.00  0.00    +0.000 OA
ATOM      4  C   UNL     1      -5.393   3.568 130.288  0.00  0.00    +0.000 C 
ATOM      5  C   UNL     1      -4.684   4.047 129.113  0.00  0.00    +0.000 A 
ATOM      6  C   UNL     1      -3.677   5.054 129.094  0.00  0.00    +0.000 A 
ATOM      7  C   UNL     1      -3.390   5.733 127.965  0.00  0.00    +0.000 A 
ATOM      8 CL   UNL     1      -2.174   6.957 128.032  0.00  0.00    +0.000 Cl
ATOM      9  C   UNL     1      -4.253   5.419 126.930  0.00  0.00    +0.000 A 
ATOM     10  C   UNL     1      -5.302   4.253 127.022  0.00  0.00    +0.000 A 
ATOM     11  C   UNL     1      -5.356   3.291 128.104  0.00  0.00    +0.000 A 
ENDROOT
BRANCH   4  12
ATOM     12  C   UNL     1      -6.948   4.199 130.170  0.00  0.00    +0.000 A 
ATOM     13  C   UNL     1      -8.148   3.733 129.502  0.00  0.00    +0.000 A 
ATOM     14  C   UNL     1      -9.352   4.466 129.491  0.00  0.00    +0.000 A 
ATOM     15  C   UNL     1      -9.487   5.477 130.420  0.00  0.00    +0.000 A 
ATOM     16  C   UNL     1      -8.340   5.757 131.182  0.00  0.00    +0.000 A 
ATOM     17  C   UNL     1      -7.061   5.418 130.736  0.00  0.00    +0.000 A 
BRANCH  17  18
ATOM     18  O   UNL     1      -5.952   6.154 130.547  0.00  0.00    +0.000 OA
ATOM     19  C   UNL     1      -5.125   7.298 130.737  0.00  0.00    +0.000 C 
ENDBRANCH  17  18
BRANCH  15  20
ATOM     20  C   UNL     1     -10.775   6.290 130.538  0.00  0.00    +0.000 C 
BRANCH  20  21
ATOM     21  N   UNL     1     -10.793   7.631 129.913  0.00  0.00    +0.000 NA
ATOM     22  C   UNL     1     -12.172   8.151 129.821  0.00  0.00    +0.000 C 
ATOM     23  C   UNL     1     -12.594   8.085 128.371  0.00  0.00    +0.000 C 
ATOM     24  C   UNL     1     -11.275   8.331 127.676  0.00  0.00    +0.000 C 
ATOM     25  C   UNL     1     -10.160   7.842 128.609  0.00  0.00    +0.000 C 
ENDBRANCH  20  21
ENDBRANCH  15  20
ENDBRANCH   4  12
BRANCH   4  26
ATOM     26  N   UNL     1      -4.772   3.583 131.594  0.00  0.00    +0.000 NA
ATOM     27  C   UNL     1      -3.382   3.940 131.930  0.00  0.00    +0.000 C 
ATOM     28  C   UNL     1      -3.014   2.748 132.731  0.00  0.00    +0.000 C 
ATOM     29  C   UNL     1      -4.315   2.306 133.417  0.00  0.00    +0.000 C 
ATOM     30  C   UNL     1      -5.516   2.839 132.661  0.00  0.00    +0.000 C 
BRANCH  30  31
ATOM     31  C   UNL     1      -6.657   3.616 133.733  0.00  0.00    +0.000 C 
ATOM     32  O   UNL     1      -6.488   4.343 134.707  0.00  0.00    +0.000 OA
ATOM     33  N   UNL     1      -7.995   3.427 133.600  0.00  0.00    +0.000 N 
ATOM     34  C   UNL     1      -8.466   2.286 132.985  0.00  0.00    +0.000 C 
ATOM     35  C   UNL     1      -8.955   4.132 134.439  0.00  0.00    +0.000 C 
ENDBRANCH  30  31
ENDBRANCH   4  26
BRANCH   1  36
ATOM     36  S   UNL     1      -6.266   0.030 130.030  0.00  0.00    +0.000 S 
ATOM     37  O   UNL     1      -5.976  -1.056 129.158  0.00  0.00    +0.000 OA
ATOM     38  O   UNL     1      -7.541   0.130 130.770  0.00  0.00    +0.000 OA
BRANCH  36  42
ATOM     39  C   UNL     1      -3.446  -1.884 133.996  0.00  0.00    +0.000 A 
ATOM     40  C   UNL     1      -2.915  -1.547 132.756  0.00  0.00    +0.000 A 
ATOM     41  C   UNL     1      -3.728  -0.936 131.661  0.00  0.00    +0.000 A 
ATOM     42  C   UNL     1      -5.166  -0.776 131.697  0.00  0.00    +0.000 A 
ATOM     43  C   UNL     1      -5.629  -1.094 132.955  0.00  0.00    +0.000 A 
ATOM     44  C   UNL     1      -4.788  -1.590 134.098  0.00  0.00    +0.000 A 
BRANCH  39  46
ATOM     45  C   UNL     1      -1.377  -1.760 135.279  0.00  0.00    +0.000 C 
ATOM     46  O   UNL     1      -2.646  -2.391 134.995  0.00  0.00    +0.000 OA
ENDBRANCH  39  46
ENDBRANCH  36  42
ENDBRANCH   1  36
TORSDOF 9
ENDMDL
MODEL 7
REMARK VINA RESULT:      -8.5      3.793      8.911
REMARK  Name = CHEMBL1779406
REMARK  13 active torsions:
REMARK  status: ('A' for Active; 'I' for Inactive)
REMARK    1  A    between atoms: C_1  and  O_2
REMARK    2  A    between atoms: O_2  and  C_3
REMARK    3  A    between atoms: C_6  and  S_7
REMARK    4  A    between atoms: S_7  and  N_10
REMARK    5  A    between atoms: C_13  and  C_14
REMARK    6  A    between atoms: C_13  and  N_28
REMARK    7  A    between atoms: C_17  and  C_18
REMARK    8  A    between atoms: C_18  and  N_19
REMARK    9  A    between atoms: C_25  and  O_26
REMARK   10  A    between atoms: O_26  and  C_27
REMARK   11  A    between atoms: C_32  and  C_33
REMARK   12  A    between atoms: N_35  and  C_36
REMARK   13  A    between atoms: N_35  and  C_37
REMARK                            x       y       z     vdW  Elec       q    Type
REMARK                         _______ _______ _______ _____ _____    ______ ____
ROOT
ATOM      1  N   UNL     1      -9.208   2.759 132.405  0.00  0.00    +0.000 N 
ATOM      2  C   UNL     1      -8.706   2.921 131.056  0.00  0.00    +0.000 C 
ATOM      3  O   UNL     1      -9.346   2.612 130.113  0.00  0.00    +0.000 OA
ATOM      4  C   UNL     1      -7.827   4.177 131.187  0.00  0.00    +0.000 C 
ATOM      5  C   UNL     1      -9.011   4.951 130.851  0.00  0.00    +0.000 A 
ATOM      6  C   UNL     1      -9.070   6.035 129.929  0.00  0.00    +0.000 A 
ATOM      7  C   UNL     1     -10.055   6.954 129.993  0.00  0.00    +0.000 A 
ATOM      8 CL   UNL     1     -10.040   8.252 128.855  0.00  0.00    +0.000 Cl
ATOM      9  C   UNL     1     -10.868   6.774 131.098  0.00  0.00    +0.000 A 
ATOM     10  C   UNL     1     -10.765   5.517 132.035  0.00  0.00    +0.000 A 
ATOM     11  C   UNL     1      -9.949   4.355 131.748  0.00  0.00    +0.000 A 
ENDROOT
BRANCH   4  12
ATOM     12  C   UNL     1      -7.389   4.663 132.736  0.00  0.00    +0.000 A 
ATOM     13  C   UNL     1      -7.949   4.392 134.045  0.00  0.00    +0.000 A 
ATOM     14  C   UNL     1      -7.439   4.962 135.230  0.00  0.00    +0.000 A 
ATOM     15  C   UNL     1      -6.175   5.511 135.175  0.00  0.00    +0.000 A 
ATOM     16  C   UNL     1      -5.594   5.570 133.897  0.00  0.00    +0.000 A 
ATOM     17  C   UNL     1      -6.369   5.547 132.735  0.00  0.00    +0.000 A 
BRANCH  17  18
ATOM     18  O   UNL     1      -6.450   6.393 131.694  0.00  0.00    +0.000 OA
ATOM     19  C   UNL     1      -5.942   7.379 130.801  0.00  0.00    +0.000 C 
ENDBRANCH  17  18
BRANCH  15  20
ATOM     20  C   UNL     1      -5.500   6.095 136.415  0.00  0.00    +0.000 C 
BRANCH  20  21
ATOM     21  N   UNL     1      -6.265   7.089 137.202  0.00  0.00    +0.000 NA
ATOM     22  C   UNL     1      -6.111   6.846 138.649  0.00  0.00    +0.000 C 
ATOM     23  C   UNL     1      -7.413   6.272 139.161  0.00  0.00    +0.000 C 
ATOM     24  C   UNL     1      -8.407   6.965 138.259  0.00  0.00    +0.000 C 
ATOM     25  C   UNL     1      -7.693   7.289 136.941  0.00  0.00    +0.000 C 
ENDBRANCH  20  21
ENDBRANCH  15  20
ENDBRANCH   4  12
BRANCH   4  26
ATOM     26  N   UNL     1      -6.761   3.987 130.227  0.00  0.00    +0.000 NA
ATOM     27  C   UNL     1      -6.718   4.435 128.824  0.00  0.00    +0.000 C 
ATOM     28  C   UNL     1      -6.353   3.155 128.172  0.00  0.00    +0.000 C 
ATOM     29  C   UNL     1      -5.484   2.413 129.199  0.00  0.00    +0.000 C 
ATOM     30  C   UNL     1      -5.754   2.941 130.596  0.00  0.00    +0.000 C 
BRANCH  30  31
ATOM     31  C   UNL     1      -4.269   3.317 131.438  0.00  0.00    +0.000 C 
ATOM     32  O   UNL     1      -3.452   4.219 131.279  0.00  0.00    +0.000 OA
ATOM     33  N   UNL     1      -3.800   2.522 132.433  0.00  0.00    +0.000 N 
ATOM     34  C   UNL     1      -4.170   1.194 132.481  0.00  0.00    +0.000 C 
ATOM     35  C   UNL     1      -2.607   2.869 133.192  0.00  0.00    +0.000 C 
ENDBRANCH  30  31
ENDBRANCH   4  26
BRANCH   1  36
ATOM     36  S   UNL     1      -8.625   0.697 131.960  0.00  0.00    +0.000 S 
ATOM     37  O   UNL     1      -9.763  -0.155 131.883  0.00  0.00    +0.000 OA
ATOM     38  O   UNL     1      -7.574   0.519 132.983  0.00  0.00    +0.000 OA
BRANCH  36  42
ATOM     39  C   UNL     1      -6.046  -1.672 128.078  0.00  0.00    +0.000 A 
ATOM     40  C   UNL     1      -7.153  -0.852 127.889  0.00  0.00    +0.000 A 
ATOM     41  C   UNL     1      -7.832  -0.130 129.008  0.00  0.00    +0.000 A 
ATOM     42  C   UNL     1      -7.530  -0.319 130.410  0.00  0.00    +0.000 A 
ATOM     43  C   UNL     1      -6.409  -1.112 130.533  0.00  0.00    +0.000 A 
ATOM     44  C   UNL     1      -5.650  -1.737 129.395  0.00  0.00    +0.000 A 
BRANCH  39  46
ATOM     45  C   UNL     1      -6.135  -2.437 125.765  0.00  0.00    +0.000 C 
ATOM     46  O   UNL     1      -5.418  -2.271 127.009  0.00  0.00    +0.000 OA
ENDBRANCH  39  46
ENDBRANCH  36  42
ENDBRANCH   1  36
TORSDOF 9
ENDMDL
MODEL 8
REMARK VINA RESULT:      -8.4      1.922      2.288
REMARK  Name = CHEMBL1779406
REMARK  13 active torsions:
REMARK  status: ('A' for Active; 'I' for Inactive)
REMARK    1  A    between atoms: C_1  and  O_2
REMARK    2  A    between atoms: O_2  and  C_3
REMARK    3  A    between atoms: C_6  and  S_7
REMARK    4  A    between atoms: S_7  and  N_10
REMARK    5  A    between atoms: C_13  and  C_14
REMARK    6  A    between atoms: C_13  and  N_28
REMARK    7  A    between atoms: C_17  and  C_18
REMARK    8  A    between atoms: C_18  and  N_19
REMARK    9  A    between atoms: C_25  and  O_26
REMARK   10  A    between atoms: O_26  and  C_27
REMARK   11  A    between atoms: C_32  and  C_33
REMARK   12  A    between atoms: N_35  and  C_36
REMARK   13  A    between atoms: N_35  and  C_37
REMARK                            x       y       z     vdW  Elec       q    Type
REMARK                         _______ _______ _______ _____ _____    ______ ____
ROOT
ATOM      1  N   UNL     1      -8.488   0.821 130.138  0.00  0.00    +0.000 N 
ATOM      2  C   UNL     1      -7.283   0.840 130.944  0.00  0.00    +0.000 C 
ATOM      3  O   UNL     1      -7.319   0.735 132.119  0.00  0.00    +0.000 OA
ATOM      4  C   UNL     1      -6.255   0.188 130.003  0.00  0.00    +0.000 C 
ATOM      5  C   UNL     1      -6.638  -1.087 130.587  0.00  0.00    +0.000 A 
ATOM      6  C   UNL     1      -5.750  -2.117 131.009  0.00  0.00    +0.000 A 
ATOM      7  C   UNL     1      -6.167  -3.395 131.125  0.00  0.00    +0.000 A 
ATOM      8 CL   UNL     1      -5.021  -4.589 131.616  0.00  0.00    +0.000 Cl
ATOM      9  C   UNL     1      -7.463  -3.566 130.673  0.00  0.00    +0.000 A 
ATOM     10  C   UNL     1      -8.392  -2.363 130.275  0.00  0.00    +0.000 A 
ATOM     11  C   UNL     1      -8.060  -0.971 130.501  0.00  0.00    +0.000 A 
ENDROOT
BRANCH   4  12
ATOM     12  C   UNL     1      -6.650   0.080 128.372  0.00  0.00    +0.000 A 
ATOM     13  C   UNL     1      -7.870   0.349 127.637  0.00  0.00    +0.000 A 
ATOM     14  C   UNL     1      -7.993   0.133 126.250  0.00  0.00    +0.000 A 
ATOM     15  C   UNL     1      -6.828  -0.010 125.526  0.00  0.00    +0.000 A 
ATOM     16  C   UNL     1      -5.646  -0.069 126.284  0.00  0.00    +0.000 A 
ATOM     17  C   UNL     1      -5.654  -0.446 127.629  0.00  0.00    +0.000 A 
BRANCH  17  18
ATOM     18  O   UNL     1      -5.000  -1.414 128.293  0.00  0.00    +0.000 OA
ATOM     19  C   UNL     1      -4.268  -2.631 128.391  0.00  0.00    +0.000 C 
ENDBRANCH  17  18
BRANCH  15  20
ATOM     20  C   UNL     1      -6.843  -0.183 124.008  0.00  0.00    +0.000 C 
BRANCH  20  21
ATOM     21  N   UNL     1      -6.981  -1.559 123.481  0.00  0.00    +0.000 NA
ATOM     22  C   UNL     1      -8.343  -1.790 122.962  0.00  0.00    +0.000 C 
ATOM     23  C   UNL     1      -9.061  -2.694 123.938  0.00  0.00    +0.000 C 
ATOM     24  C   UNL     1      -7.915  -3.539 124.443  0.00  0.00    +0.000 C 
ATOM     25  C   UNL     1      -6.634  -2.706 124.323  0.00  0.00    +0.000 C 
ENDBRANCH  20  21
ENDBRANCH  15  20
ENDBRANCH   4  12
BRANCH   4  26
ATOM     26  N   UNL     1      -4.995   0.814 130.338  0.00  0.00    +0.000 NA
ATOM     27  C   UNL     1      -3.994   0.364 131.323  0.00  0.00    +0.000 C 
ATOM     28  C   UNL     1      -3.826   1.621 132.088  0.00  0.00    +0.000 C 
ATOM     29  C   UNL     1      -4.049   2.747 131.068  0.00  0.00    +0.000 C 
ATOM     30  C   UNL     1      -4.852   2.235 129.886  0.00  0.00    +0.000 C 
BRANCH  30  31
ATOM     31  C   UNL     1      -4.107   2.672 128.367  0.00  0.00    +0.000 C 
ATOM     32  O   UNL     1      -2.934   2.661 128.006  0.00  0.00    +0.000 OA
ATOM     33  N   UNL     1      -4.839   3.169 127.337  0.00  0.00    +0.000 N 
ATOM     34  C   UNL     1      -6.041   3.796 127.592  0.00  0.00    +0.000 C 
ATOM     35  C   UNL     1      -4.240   3.461 126.042  0.00  0.00    +0.000 C 
ENDBRANCH  30  31
ENDBRANCH   4  26
BRANCH   1  36
ATOM     36  S   UNL     1      -8.566   2.871 130.902  0.00  0.00    +0.000 S 
ATOM     37  O   UNL     1      -9.700   3.066 131.739  0.00  0.00    +0.000 OA
ATOM     38  O   UNL     1      -8.385   3.606 129.633  0.00  0.00    +0.000 OA
BRANCH  36  42
ATOM     39  C   UNL     1      -5.407   5.892 133.772  0.00  0.00    +0.000 A 
ATOM     40  C   UNL     1      -5.934   4.681 134.209  0.00  0.00    +0.000 A 
ATOM     41  C   UNL     1      -6.779   3.802 133.345  0.00  0.00    +0.000 A 
ATOM     42  C   UNL     1      -7.275   4.168 132.037  0.00  0.00    +0.000 A 
ATOM     43  C   UNL     1      -6.696   5.355 131.645  0.00  0.00    +0.000 A 
ATOM     44  C   UNL     1      -5.745   6.179 132.468  0.00  0.00    +0.000 A 
BRANCH  39  46
ATOM     45  C   UNL     1      -4.943   6.836 135.971  0.00  0.00    +0.000 C 
ATOM     46  O   UNL     1      -4.586   6.642 134.584  0.00  0.00    +0.000 OA
ENDBRANCH  39  46
ENDBRANCH  36  42
ENDBRANCH   1  36
TORSDOF 9
ENDMDL
MODEL 9
REMARK VINA RESULT:      -8.4      3.486      7.276
REMARK  Name = CHEMBL1779406
REMARK  13 active torsions:
REMARK  status: ('A' for Active; 'I' for Inactive)
REMARK    1  A    between atoms: C_1  and  O_2
REMARK    2  A    between atoms: O_2  and  C_3
REMARK    3  A    between atoms: C_6  and  S_7
REMARK    4  A    between atoms: S_7  and  N_10
REMARK    5  A    between atoms: C_13  and  C_14
REMARK    6  A    between atoms: C_13  and  N_28
REMARK    7  A    between atoms: C_17  and  C_18
REMARK    8  A    between atoms: C_18  and  N_19
REMARK    9  A    between atoms: C_25  and  O_26
REMARK   10  A    between atoms: O_26  and  C_27
REMARK   11  A    between atoms: C_32  and  C_33
REMARK   12  A    between atoms: N_35  and  C_36
REMARK   13  A    between atoms: N_35  and  C_37
REMARK                            x       y       z     vdW  Elec       q    Type
REMARK                         _______ _______ _______ _____ _____    ______ ____
ROOT
ATOM      1  N   UNL     1      -5.032  -0.591 129.459  0.00  0.00    +0.000 N 
ATOM      2  C   UNL     1      -5.474  -0.141 130.764  0.00  0.00    +0.000 C 
ATOM      3  O   UNL     1      -4.753  -0.140 131.699  0.00  0.00    +0.000 OA
ATOM      4  C   UNL     1      -6.494   0.951 130.401  0.00  0.00    +0.000 C 
ATOM      5  C   UNL     1      -5.389   1.894 130.439  0.00  0.00    +0.000 A 
ATOM      6  C   UNL     1      -5.401   3.176 131.058  0.00  0.00    +0.000 A 
ATOM      7  C   UNL     1      -4.530   4.138 130.690  0.00  0.00    +0.000 A 
ATOM      8 CL   UNL     1      -4.628   5.674 131.472  0.00  0.00    +0.000 Cl
ATOM      9  C   UNL     1      -3.764   3.763 129.602  0.00  0.00    +0.000 A 
ATOM     10  C   UNL     1      -3.777   2.306 129.013  0.00  0.00    +0.000 A 
ATOM     11  C   UNL     1      -4.440   1.182 129.642  0.00  0.00    +0.000 A 
ENDROOT
BRANCH   4  12
ATOM     12  C   UNL     1      -7.069   0.986 128.821  0.00  0.00    +0.000 A 
ATOM     13  C   UNL     1      -6.639   0.324 127.605  0.00  0.00    +0.000 A 
ATOM     14  C   UNL     1      -7.250   0.547 126.354  0.00  0.00    +0.000 A 
ATOM     15  C   UNL     1      -8.495   1.142 126.354  0.00  0.00    +0.000 A 
ATOM     16  C   UNL     1      -8.951   1.592 127.604  0.00  0.00    +0.000 A 
ATOM     17  C   UNL     1      -8.070   1.875 128.650  0.00  0.00    +0.000 A 
BRANCH  17  18
ATOM     18  O   UNL     1      -7.878   2.982 129.387  0.00  0.00    +0.000 OA
ATOM     19  C   UNL     1      -8.183   4.305 129.817  0.00  0.00    +0.000 C 
ENDBRANCH  17  18
BRANCH  15  20
ATOM     20  C   UNL     1      -9.274   1.369 125.060  0.00  0.00    +0.000 C 
BRANCH  20  21
ATOM     21  N   UNL     1      -8.904   2.545 124.240  0.00  0.00    +0.000 NA
ATOM     22  C   UNL     1      -8.216   2.129 123.002  0.00  0.00    +0.000 C 
ATOM     23  C   UNL     1      -6.752   2.475 123.150  0.00  0.00    +0.000 C 
ATOM     24  C   UNL     1      -6.835   3.721 123.999  0.00  0.00    +0.000 C 
ATOM     25  C   UNL     1      -8.121   3.634 124.830  0.00  0.00    +0.000 C 
ENDBRANCH  20  21
ENDBRANCH  15  20
ENDBRANCH   4  12
BRANCH   4  26
ATOM     26  N   UNL     1      -7.477   0.909 131.461  0.00  0.00    +0.000 NA
ATOM     27  C   UNL     1      -8.825   0.311 131.422  0.00  0.00    +0.000 C 
ATOM     28  C   UNL     1      -9.614   1.461 131.921  0.00  0.00    +0.000 C 
ATOM     29  C   UNL     1      -8.680   2.199 132.894  0.00  0.00    +0.000 C 
ATOM     30  C   UNL     1      -7.233   1.858 132.593  0.00  0.00    +0.000 C 
BRANCH  30  31
ATOM     31  C   UNL     1      -6.368   1.399 134.041  0.00  0.00    +0.000 C 
ATOM     32  O   UNL     1      -6.329   0.341 134.661  0.00  0.00    +0.000 OA
ATOM     33  N   UNL     1      -5.603   2.291 134.721  0.00  0.00    +0.000 N 
ATOM     34  C   UNL     1      -5.864   3.641 134.608  0.00  0.00    +0.000 C 
ATOM     35  C   UNL     1      -4.817   1.897 135.882  0.00  0.00    +0.000 C 
ENDBRANCH  30  31
ENDBRANCH   4  26
BRANCH   1  36
ATOM     36  S   UNL     1      -5.354  -2.519 130.443  0.00  0.00    +0.000 S 
ATOM     37  O   UNL     1      -4.120  -3.184 130.690  0.00  0.00    +0.000 OA
ATOM     38  O   UNL     1      -6.385  -3.077 129.545  0.00  0.00    +0.000 OA
BRANCH  36  42
ATOM     39  C   UNL     1      -7.791  -4.110 134.787  0.00  0.00    +0.000 A 
ATOM     40  C   UNL     1      -8.185  -3.010 134.033  0.00  0.00    +0.000 A 
ATOM     41  C   UNL     1      -7.514  -2.615 132.757  0.00  0.00    +0.000 A 
ATOM     42  C   UNL     1      -6.302  -3.217 132.246  0.00  0.00    +0.000 A 
ATOM     43  C   UNL     1      -5.981  -4.317 133.012  0.00  0.00    +0.000 A 
ATOM     44  C   UNL     1      -6.732  -4.788 134.226  0.00  0.00    +0.000 A 
BRANCH  39  46
ATOM     45  C   UNL     1      -8.707  -3.484 136.957  0.00  0.00    +0.000 C 
ATOM     46  O   UNL     1      -8.476  -4.470 135.926  0.00  0.00    +0.000 OA
ENDBRANCH  39  46
ENDBRANCH  36  42
ENDBRANCH   1  36
TORSDOF 9
ENDMDL
