MODEL 1
REMARK VINA RESULT:      -7.6      0.000      0.000
REMARK  Name = CHEMBL1089026
REMARK  9 active torsions:
REMARK  status: ('A' for Active; 'I' for Inactive)
REMARK    1  A    between atoms: C_1  and  O_2
REMARK    2  A    between atoms: O_2  and  C_3
REMARK    3  A    between atoms: C_6  and  N_7
REMARK    4  A    between atoms: N_7  and  C_23
REMARK    5  A    between atoms: C_8  and  C_10
REMARK    6  A    between atoms: C_13  and  C_14
REMARK    7  A    between atoms: C_19  and  C_20
REMARK    8  A    between atoms: C_23  and  C_24
REMARK    9  A    between atoms: C_23  and  C_25
REMARK                            x       y       z     vdW  Elec       q    Type
REMARK                         _______ _______ _______ _____ _____    ______ ____
ROOT
ATOM      1  N   UNL     1      -6.802   1.158 126.854  0.00  0.00    +0.000 N 
ATOM      2  C   UNL     1      -7.496   0.751 125.659  0.00  0.00    +0.000 C 
ATOM      3  O   UNL     1      -8.206  -0.262 125.566  0.00  0.00    +0.000 OA
ENDROOT
BRANCH   1   7
ATOM      4  C   UNL     1      -4.751   4.904 127.180  0.00  0.00    +0.000 A 
ATOM      5  C   UNL     1      -4.063   3.825 126.657  0.00  0.00    +0.000 A 
ATOM      6  C   UNL     1      -4.731   2.591 126.503  0.00  0.00    +0.000 A 
ATOM      7  C   UNL     1      -6.034   2.405 126.983  0.00  0.00    +0.000 A 
ATOM      8  C   UNL     1      -6.511   3.527 127.654  0.00  0.00    +0.000 A 
ATOM      9  N   UNL     1      -5.975   4.764 127.677  0.00  0.00    +0.000 NA
BRANCH   4  11
ATOM     10  C   UNL     1      -2.974   6.150 128.055  0.00  0.00    +0.000 C 
ATOM     11  O   UNL     1      -4.239   6.135 127.425  0.00  0.00    +0.000 OA
ENDBRANCH   4  11
ENDBRANCH   1   7
BRANCH   2  12
ATOM     12  C   UNL     1      -7.448   1.482 124.380  0.00  0.00    +0.000 A 
ATOM     13  C   UNL     1      -6.779   0.982 123.277  0.00  0.00    +0.000 A 
ATOM     14  N   UNL     1      -6.503   1.762 122.206  0.00  0.00    +0.000 NA
ATOM     15  C   UNL     1      -7.008   3.026 122.218  0.00  0.00    +0.000 A 
ATOM     16  C   UNL     1      -7.783   3.471 123.283  0.00  0.00    +0.000 A 
ATOM     17  N   UNL     1      -7.995   2.731 124.393  0.00  0.00    +0.000 NA
BRANCH  15  18
ATOM     18  C   UNL     1      -6.770   3.847 121.028  0.00  0.00    +0.000 A 
ATOM     19  C   UNL     1      -7.723   3.897 119.988  0.00  0.00    +0.000 A 
ATOM     20  C   UNL     1      -7.478   4.624 118.822  0.00  0.00    +0.000 A 
ATOM     21  C   UNL     1      -6.284   5.323 118.680  0.00  0.00    +0.000 A 
ATOM     22  C   UNL     1      -5.335   5.298 119.702  0.00  0.00    +0.000 A 
ATOM     23  C   UNL     1      -5.564   4.568 120.876  0.00  0.00    +0.000 A 
ATOM     24  C   UNL     1      -4.499   4.535 121.941  0.00  0.00    +0.000 C 
ENDBRANCH  15  18
ENDBRANCH   2  12
BRANCH   1  25
ATOM     25  C   UNL     1      -6.850   0.252 128.062  0.00  0.00    +0.000 C 
ATOM     26  C   UNL     1      -5.510   0.201 128.822  0.00  0.00    +0.000 C 
ATOM     27  C   UNL     1      -7.910   0.594 129.129  0.00  0.00    +0.000 C 
ENDBRANCH   1  25
TORSDOF 5
ENDMDL
MODEL 2
REMARK VINA RESULT:      -7.3      4.631      7.652
REMARK  Name = CHEMBL1089026
REMARK  9 active torsions:
REMARK  status: ('A' for Active; 'I' for Inactive)
REMARK    1  A    between atoms: C_1  and  O_2
REMARK    2  A    between atoms: O_2  and  C_3
REMARK    3  A    between atoms: C_6  and  N_7
REMARK    4  A    between atoms: N_7  and  C_23
REMARK    5  A    between atoms: C_8  and  C_10
REMARK    6  A    between atoms: C_13  and  C_14
REMARK    7  A    between atoms: C_19  and  C_20
REMARK    8  A    between atoms: C_23  and  C_24
REMARK    9  A    between atoms: C_23  and  C_25
REMARK                            x       y       z     vdW  Elec       q    Type
REMARK                         _______ _______ _______ _____ _____    ______ ____
ROOT
ATOM      1  N   UNL     1      -7.461   1.478 129.613  0.00  0.00    +0.000 N 
ATOM      2  C   UNL     1      -7.955   2.272 130.708  0.00  0.00    +0.000 C 
ATOM      3  O   UNL     1      -7.705   2.058 131.905  0.00  0.00    +0.000 OA
ENDROOT
BRANCH   1   7
ATOM      4  C   UNL     1      -8.120   2.598 125.532  0.00  0.00    +0.000 A 
ATOM      5  C   UNL     1      -8.746   1.461 126.008  0.00  0.00    +0.000 A 
ATOM      6  C   UNL     1      -8.575   1.095 127.361  0.00  0.00    +0.000 A 
ATOM      7  C   UNL     1      -7.688   1.789 128.194  0.00  0.00    +0.000 A 
ATOM      8  C   UNL     1      -6.994   2.781 127.511  0.00  0.00    +0.000 A 
ATOM      9  N   UNL     1      -7.247   3.265 126.277  0.00  0.00    +0.000 NA
BRANCH   4  11
ATOM     10  C   UNL     1      -9.004   2.338 123.381  0.00  0.00    +0.000 C 
ATOM     11  O   UNL     1      -8.155   3.054 124.256  0.00  0.00    +0.000 OA
ENDBRANCH   4  11
ENDBRANCH   1   7
BRANCH   2  12
ATOM     12  C   UNL     1      -8.836   3.445 130.553  0.00  0.00    +0.000 A 
ATOM     13  C   UNL     1     -10.204   3.315 130.390  0.00  0.00    +0.000 A 
ATOM     14  N   UNL     1     -10.966   4.354 129.979  0.00  0.00    +0.000 NA
ATOM     15  C   UNL     1     -10.344   5.557 129.839  0.00  0.00    +0.000 A 
ATOM     16  C   UNL     1      -8.991   5.695 130.127  0.00  0.00    +0.000 A 
ATOM     17  N   UNL     1      -8.204   4.649 130.458  0.00  0.00    +0.000 NA
BRANCH  15  18
ATOM     18  C   UNL     1     -11.183   6.698 129.462  0.00  0.00    +0.000 A 
ATOM     19  C   UNL     1     -11.139   7.218 128.150  0.00  0.00    +0.000 A 
ATOM     20  C   UNL     1     -11.885   8.343 127.797  0.00  0.00    +0.000 A 
ATOM     21  C   UNL     1     -12.694   8.962 128.743  0.00  0.00    +0.000 A 
ATOM     22  C   UNL     1     -12.762   8.457 130.041  0.00  0.00    +0.000 A 
ATOM     23  C   UNL     1     -12.016   7.331 130.412  0.00  0.00    +0.000 A 
ATOM     24  C   UNL     1     -12.086   6.836 131.834  0.00  0.00    +0.000 C 
ENDBRANCH  15  18
ENDBRANCH   2  12
BRANCH   1  25
ATOM     25  C   UNL     1      -6.658   0.237 129.925  0.00  0.00    +0.000 C 
ATOM     26  C   UNL     1      -7.543  -1.007 130.136  0.00  0.00    +0.000 C 
ATOM     27  C   UNL     1      -5.611  -0.182 128.873  0.00  0.00    +0.000 C 
ENDBRANCH   1  25
TORSDOF 5
ENDMDL
MODEL 3
REMARK VINA RESULT:      -7.3      2.315      7.714
REMARK  Name = CHEMBL1089026
REMARK  9 active torsions:
REMARK  status: ('A' for Active; 'I' for Inactive)
REMARK    1  A    between atoms: C_1  and  O_2
REMARK    2  A    between atoms: O_2  and  C_3
REMARK    3  A    between atoms: C_6  and  N_7
REMARK    4  A    between atoms: N_7  and  C_23
REMARK    5  A    between atoms: C_8  and  C_10
REMARK    6  A    between atoms: C_13  and  C_14
REMARK    7  A    between atoms: C_19  and  C_20
REMARK    8  A    between atoms: C_23  and  C_24
REMARK    9  A    between atoms: C_23  and  C_25
REMARK                            x       y       z     vdW  Elec       q    Type
REMARK                         _______ _______ _______ _____ _____    ______ ____
ROOT
ATOM      1  N   UNL     1      -6.674   3.474 123.150  0.00  0.00    +0.000 N 
ATOM      2  C   UNL     1      -5.706   4.279 123.851  0.00  0.00    +0.000 C 
ATOM      3  O   UNL     1      -5.072   5.219 123.346  0.00  0.00    +0.000 OA
ENDROOT
BRANCH   1   7
ATOM      4  C   UNL     1      -9.006   0.281 124.795  0.00  0.00    +0.000 A 
ATOM      5  C   UNL     1      -9.407   1.580 125.045  0.00  0.00    +0.000 A 
ATOM      6  C   UNL     1      -8.676   2.648 124.480  0.00  0.00    +0.000 A 
ATOM      7  C   UNL     1      -7.486   2.421 123.777  0.00  0.00    +0.000 A 
ATOM      8  C   UNL     1      -7.121   1.079 123.781  0.00  0.00    +0.000 A 
ATOM      9  N   UNL     1      -7.869   0.022 124.161  0.00  0.00    +0.000 NA
BRANCH   4  11
ATOM     10  C   UNL     1      -8.708  -1.697 126.010  0.00  0.00    +0.000 C 
ATOM     11  O   UNL     1      -9.578  -0.842 125.296  0.00  0.00    +0.000 OA
ENDBRANCH   4  11
ENDBRANCH   1   7
BRANCH   2  12
ATOM     12  C   UNL     1      -5.332   4.087 125.264  0.00  0.00    +0.000 A 
ATOM     13  C   UNL     1      -6.050   4.668 126.295  0.00  0.00    +0.000 A 
ATOM     14  N   UNL     1      -5.557   4.720 127.554  0.00  0.00    +0.000 NA
ATOM     15  C   UNL     1      -4.377   4.081 127.781  0.00  0.00    +0.000 A 
ATOM     16  C   UNL     1      -3.731   3.397 126.758  0.00  0.00    +0.000 A 
ATOM     17  N   UNL     1      -4.170   3.408 125.480  0.00  0.00    +0.000 NA
BRANCH  15  18
ATOM     18  C   UNL     1      -3.879   4.077 129.159  0.00  0.00    +0.000 A 
ATOM     19  C   UNL     1      -4.351   3.127 130.090  0.00  0.00    +0.000 A 
ATOM     20  C   UNL     1      -3.932   3.155 131.421  0.00  0.00    +0.000 A 
ATOM     21  C   UNL     1      -3.027   4.123 131.842  0.00  0.00    +0.000 A 
ATOM     22  C   UNL     1      -2.538   5.062 130.935  0.00  0.00    +0.000 A 
ATOM     23  C   UNL     1      -2.952   5.051 129.597  0.00  0.00    +0.000 A 
ATOM     24  C   UNL     1      -2.431   6.105 128.655  0.00  0.00    +0.000 C 
ENDBRANCH  15  18
ENDBRANCH   2  12
BRANCH   1  25
ATOM     25  C   UNL     1      -6.877   3.712 121.672  0.00  0.00    +0.000 C 
ATOM     26  C   UNL     1      -5.918   2.880 120.798  0.00  0.00    +0.000 C 
ATOM     27  C   UNL     1      -8.288   3.418 121.121  0.00  0.00    +0.000 C 
ENDBRANCH   1  25
TORSDOF 5
ENDMDL
MODEL 4
REMARK VINA RESULT:      -7.2      5.877      7.749
REMARK  Name = CHEMBL1089026
REMARK  9 active torsions:
REMARK  status: ('A' for Active; 'I' for Inactive)
REMARK    1  A    between atoms: C_1  and  O_2
REMARK    2  A    between atoms: O_2  and  C_3
REMARK    3  A    between atoms: C_6  and  N_7
REMARK    4  A    between atoms: N_7  and  C_23
REMARK    5  A    between atoms: C_8  and  C_10
REMARK    6  A    between atoms: C_13  and  C_14
REMARK    7  A    between atoms: C_19  and  C_20
REMARK    8  A    between atoms: C_23  and  C_24
REMARK    9  A    between atoms: C_23  and  C_25
REMARK                            x       y       z     vdW  Elec       q    Type
REMARK                         _______ _______ _______ _____ _____    ______ ____
ROOT
ATOM      1  N   UNL     1      -6.282   3.053 131.832  0.00  0.00    +0.000 N 
ATOM      2  C   UNL     1      -7.599   3.286 132.366  0.00  0.00    +0.000 C 
ATOM      3  O   UNL     1      -8.058   2.733 133.377  0.00  0.00    +0.000 OA
ENDROOT
BRANCH   1   7
ATOM      4  C   UNL     1      -4.712   5.347 128.574  0.00  0.00    +0.000 A 
ATOM      5  C   UNL     1      -5.125   4.051 128.323  0.00  0.00    +0.000 A 
ATOM      6  C   UNL     1      -5.682   3.291 129.373  0.00  0.00    +0.000 A 
ATOM      7  C   UNL     1      -5.711   3.777 130.687  0.00  0.00    +0.000 A 
ATOM      8  C   UNL     1      -5.083   5.012 130.802  0.00  0.00    +0.000 A 
ATOM      9  N   UNL     1      -4.692   5.835 129.808  0.00  0.00    +0.000 NA
BRANCH   4  11
ATOM     10  C   UNL     1      -2.948   6.821 128.139  0.00  0.00    +0.000 C 
ATOM     11  O   UNL     1      -4.125   6.184 127.684  0.00  0.00    +0.000 OA
ENDBRANCH   4  11
ENDBRANCH   1   7
BRANCH   2  12
ATOM     12  C   UNL     1      -8.584   4.210 131.775  0.00  0.00    +0.000 A 
ATOM     13  C   UNL     1      -9.501   3.793 130.827  0.00  0.00    +0.000 A 
ATOM     14  N   UNL     1     -10.210   4.682 130.093  0.00  0.00    +0.000 NA
ATOM     15  C   UNL     1     -10.061   5.998 130.407  0.00  0.00    +0.000 A 
ATOM     16  C   UNL     1      -9.226   6.390 131.447  0.00  0.00    +0.000 A 
ATOM     17  N   UNL     1      -8.451   5.520 132.130  0.00  0.00    +0.000 NA
BRANCH  15  18
ATOM     18  C   UNL     1     -10.882   6.955 129.660  0.00  0.00    +0.000 A 
ATOM     19  C   UNL     1     -10.482   7.399 128.382  0.00  0.00    +0.000 A 
ATOM     20  C   UNL     1     -11.221   8.359 127.690  0.00  0.00    +0.000 A 
ATOM     21  C   UNL     1     -12.378   8.883 128.257  0.00  0.00    +0.000 A 
ATOM     22  C   UNL     1     -12.798   8.448 129.513  0.00  0.00    +0.000 A 
ATOM     23  C   UNL     1     -12.064   7.488 130.223  0.00  0.00    +0.000 A 
ATOM     24  C   UNL     1     -12.529   7.070 131.593  0.00  0.00    +0.000 C 
ENDBRANCH  15  18
ENDBRANCH   2  12
BRANCH   1  25
ATOM     25  C   UNL     1      -5.417   1.994 132.476  0.00  0.00    +0.000 C 
ATOM     26  C   UNL     1      -5.608   0.603 131.840  0.00  0.00    +0.000 C 
ATOM     27  C   UNL     1      -3.896   2.247 132.453  0.00  0.00    +0.000 C 
ENDBRANCH   1  25
TORSDOF 5
ENDMDL
MODEL 5
REMARK VINA RESULT:      -7.2      2.416      8.325
REMARK  Name = CHEMBL1089026
REMARK  9 active torsions:
REMARK  status: ('A' for Active; 'I' for Inactive)
REMARK    1  A    between atoms: C_1  and  O_2
REMARK    2  A    between atoms: O_2  and  C_3
REMARK    3  A    between atoms: C_6  and  N_7
REMARK    4  A    between atoms: N_7  and  C_23
REMARK    5  A    between atoms: C_8  and  C_10
REMARK    6  A    between atoms: C_13  and  C_14
REMARK    7  A    between atoms: C_19  and  C_20
REMARK    8  A    between atoms: C_23  and  C_24
REMARK    9  A    between atoms: C_23  and  C_25
REMARK                            x       y       z     vdW  Elec       q    Type
REMARK                         _______ _______ _______ _____ _____    ______ ____
ROOT
ATOM      1  N   UNL     1      -7.500   2.665 123.609  0.00  0.00    +0.000 N 
ATOM      2  C   UNL     1      -7.216   3.272 124.884  0.00  0.00    +0.000 C 
ATOM      3  O   UNL     1      -6.887   4.458 125.044  0.00  0.00    +0.000 OA
ENDROOT
BRANCH   1   7
ATOM      4  C   UNL     1      -9.045  -1.312 123.249  0.00  0.00    +0.000 A 
ATOM      5  C   UNL     1      -7.677  -1.133 123.172  0.00  0.00    +0.000 A 
ATOM      6  C   UNL     1      -7.142   0.164 123.328  0.00  0.00    +0.000 A 
ATOM      7  C   UNL     1      -7.976   1.286 123.434  0.00  0.00    +0.000 A 
ATOM      8  C   UNL     1      -9.320   0.954 123.299  0.00  0.00    +0.000 A 
ATOM      9  N   UNL     1      -9.872  -0.276 123.316  0.00  0.00    +0.000 NA
BRANCH   4  11
ATOM     10  C   UNL     1      -9.406  -3.490 124.026  0.00  0.00    +0.000 C 
ATOM     11  O   UNL     1      -9.708  -2.484 123.081  0.00  0.00    +0.000 OA
ENDBRANCH   4  11
ENDBRANCH   1   7
BRANCH   2  12
ATOM     12  C   UNL     1      -7.273   2.560 126.174  0.00  0.00    +0.000 A 
ATOM     13  C   UNL     1      -6.154   1.962 126.727  0.00  0.00    +0.000 A 
ATOM     14  N   UNL     1      -6.259   1.088 127.755  0.00  0.00    +0.000 NA
ATOM     15  C   UNL     1      -7.498   0.909 128.288  0.00  0.00    +0.000 A 
ATOM     16  C   UNL     1      -8.591   1.613 127.797  0.00  0.00    +0.000 A 
ATOM     17  N   UNL     1      -8.514   2.425 126.720  0.00  0.00    +0.000 NA
BRANCH  15  18
ATOM     18  C   UNL     1      -7.600   0.016 129.446  0.00  0.00    +0.000 A 
ATOM     19  C   UNL     1      -7.583   0.538 130.757  0.00  0.00    +0.000 A 
ATOM     20  C   UNL     1      -7.615  -0.307 131.868  0.00  0.00    +0.000 A 
ATOM     21  C   UNL     1      -7.675  -1.685 131.688  0.00  0.00    +0.000 A 
ATOM     22  C   UNL     1      -7.706  -2.220 130.401  0.00  0.00    +0.000 A 
ATOM     23  C   UNL     1      -7.670  -1.385 129.276  0.00  0.00    +0.000 A 
ATOM     24  C   UNL     1      -7.667  -2.001 127.901  0.00  0.00    +0.000 C 
ENDBRANCH  15  18
ENDBRANCH   2  12
BRANCH   1  25
ATOM     25  C   UNL     1      -7.295   3.486 122.357  0.00  0.00    +0.000 C 
ATOM     26  C   UNL     1      -6.039   3.063 121.567  0.00  0.00    +0.000 C 
ATOM     27  C   UNL     1      -8.446   3.466 121.331  0.00  0.00    +0.000 C 
ENDBRANCH   1  25
TORSDOF 5
ENDMDL
MODEL 6
REMARK VINA RESULT:      -7.0      4.370      5.769
REMARK  Name = CHEMBL1089026
REMARK  9 active torsions:
REMARK  status: ('A' for Active; 'I' for Inactive)
REMARK    1  A    between atoms: C_1  and  O_2
REMARK    2  A    between atoms: O_2  and  C_3
REMARK    3  A    between atoms: C_6  and  N_7
REMARK    4  A    between atoms: N_7  and  C_23
REMARK    5  A    between atoms: C_8  and  C_10
REMARK    6  A    between atoms: C_13  and  C_14
REMARK    7  A    between atoms: C_19  and  C_20
REMARK    8  A    between atoms: C_23  and  C_24
REMARK    9  A    between atoms: C_23  and  C_25
REMARK                            x       y       z     vdW  Elec       q    Type
REMARK                         _______ _______ _______ _____ _____    ______ ____
ROOT
ATOM      1  N   UNL     1      -8.403   4.127 131.185  0.00  0.00    +0.000 N 
ATOM      2  C   UNL     1      -7.589   3.381 130.260  0.00  0.00    +0.000 C 
ATOM      3  O   UNL     1      -6.661   2.625 130.587  0.00  0.00    +0.000 OA
ENDROOT
BRANCH   1   7
ATOM      4  C   UNL     1     -11.803   6.386 129.888  0.00  0.00    +0.000 A 
ATOM      5  C   UNL     1     -10.710   7.074 130.382  0.00  0.00    +0.000 A 
ATOM      6  C   UNL     1      -9.564   6.352 130.778  0.00  0.00    +0.000 A 
ATOM      7  C   UNL     1      -9.557   4.951 130.797  0.00  0.00    +0.000 A 
ATOM      8  C   UNL     1     -10.795   4.417 130.456  0.00  0.00    +0.000 A 
ATOM      9  N   UNL     1     -11.852   5.059 129.918  0.00  0.00    +0.000 NA
BRANCH   4  11
ATOM     10  C   UNL     1     -12.902   8.235 128.967  0.00  0.00    +0.000 C 
ATOM     11  O   UNL     1     -12.984   6.932 129.507  0.00  0.00    +0.000 OA
ENDBRANCH   4  11
ENDBRANCH   1   7
BRANCH   2  12
ATOM     12  C   UNL     1      -7.745   3.424 128.795  0.00  0.00    +0.000 A 
ATOM     13  C   UNL     1      -8.203   2.333 128.076  0.00  0.00    +0.000 A 
ATOM     14  N   UNL     1      -8.087   2.278 126.729  0.00  0.00    +0.000 NA
ATOM     15  C   UNL     1      -7.601   3.386 126.106  0.00  0.00    +0.000 A 
ATOM     16  C   UNL     1      -7.260   4.519 126.835  0.00  0.00    +0.000 A 
ATOM     17  N   UNL     1      -7.293   4.557 128.185  0.00  0.00    +0.000 NA
BRANCH  15  18
ATOM     18  C   UNL     1      -7.541   3.352 124.642  0.00  0.00    +0.000 A 
ATOM     19  C   UNL     1      -8.674   2.980 123.887  0.00  0.00    +0.000 A 
ATOM     20  C   UNL     1      -8.610   2.882 122.496  0.00  0.00    +0.000 A 
ATOM     21  C   UNL     1      -7.419   3.164 121.836  0.00  0.00    +0.000 A 
ATOM     22  C   UNL     1      -6.292   3.546 122.563  0.00  0.00    +0.000 A 
ATOM     23  C   UNL     1      -6.339   3.644 123.960  0.00  0.00    +0.000 A 
ATOM     24  C   UNL     1      -5.091   4.024 124.714  0.00  0.00    +0.000 C 
ENDBRANCH  15  18
ENDBRANCH   2  12
BRANCH   1  25
ATOM     25  C   UNL     1      -8.060   4.074 132.655  0.00  0.00    +0.000 C 
ATOM     26  C   UNL     1      -7.279   5.315 133.129  0.00  0.00    +0.000 C 
ATOM     27  C   UNL     1      -9.249   3.944 133.630  0.00  0.00    +0.000 C 
ENDBRANCH   1  25
TORSDOF 5
ENDMDL
MODEL 7
REMARK VINA RESULT:      -6.9      3.651      6.359
REMARK  Name = CHEMBL1089026
REMARK  9 active torsions:
REMARK  status: ('A' for Active; 'I' for Inactive)
REMARK    1  A    between atoms: C_1  and  O_2
REMARK    2  A    between atoms: O_2  and  C_3
REMARK    3  A    between atoms: C_6  and  N_7
REMARK    4  A    between atoms: N_7  and  C_23
REMARK    5  A    between atoms: C_8  and  C_10
REMARK    6  A    between atoms: C_13  and  C_14
REMARK    7  A    between atoms: C_19  and  C_20
REMARK    8  A    between atoms: C_23  and  C_24
REMARK    9  A    between atoms: C_23  and  C_25
REMARK                            x       y       z     vdW  Elec       q    Type
REMARK                         _______ _______ _______ _____ _____    ______ ____
ROOT
ATOM      1  N   UNL     1      -8.572   4.256 129.678  0.00  0.00    +0.000 N 
ATOM      2  C   UNL     1      -8.271   4.123 128.276  0.00  0.00    +0.000 C 
ATOM      3  O   UNL     1      -8.372   5.037 127.443  0.00  0.00    +0.000 OA
ENDROOT
BRANCH   1   7
ATOM      4  C   UNL     1      -7.784   1.111 132.476  0.00  0.00    +0.000 A 
ATOM      5  C   UNL     1      -9.098   1.360 132.125  0.00  0.00    +0.000 A 
ATOM      6  C   UNL     1      -9.378   2.365 131.175  0.00  0.00    +0.000 A 
ATOM      7  C   UNL     1      -8.365   3.195 130.675  0.00  0.00    +0.000 A 
ATOM      8  C   UNL     1      -7.136   2.941 131.273  0.00  0.00    +0.000 A 
ATOM      9  N   UNL     1      -6.798   1.892 132.052  0.00  0.00    +0.000 NA
BRANCH   4  11
ATOM     10  C   UNL     1      -7.244  -1.120 132.935  0.00  0.00    +0.000 C 
ATOM     11  O   UNL     1      -7.360   0.210 133.398  0.00  0.00    +0.000 OA
ENDBRANCH   4  11
ENDBRANCH   1   7
BRANCH   2  12
ATOM     12  C   UNL     1      -7.808   2.877 127.640  0.00  0.00    +0.000 A 
ATOM     13  C   UNL     1      -6.498   2.710 127.226  0.00  0.00    +0.000 A 
ATOM     14  N   UNL     1      -6.141   1.694 126.407  0.00  0.00    +0.000 NA
ATOM     15  C   UNL     1      -7.104   0.783 126.100  0.00  0.00    +0.000 A 
ATOM     16  C   UNL     1      -8.386   0.899 126.626  0.00  0.00    +0.000 A 
ATOM     17  N   UNL     1      -8.775   1.953 127.376  0.00  0.00    +0.000 NA
BRANCH  15  18
ATOM     18  C   UNL     1      -6.701  -0.356 125.271  0.00  0.00    +0.000 A 
ATOM     19  C   UNL     1      -6.102  -1.493 125.856  0.00  0.00    +0.000 A 
ATOM     20  C   UNL     1      -5.656  -2.556 125.070  0.00  0.00    +0.000 A 
ATOM     21  C   UNL     1      -5.809  -2.507 123.689  0.00  0.00    +0.000 A 
ATOM     22  C   UNL     1      -6.410  -1.399 123.092  0.00  0.00    +0.000 A 
ATOM     23  C   UNL     1      -6.859  -0.322 123.867  0.00  0.00    +0.000 A 
ATOM     24  C   UNL     1      -7.469   0.874 123.184  0.00  0.00    +0.000 C 
ENDBRANCH  15  18
ENDBRANCH   2  12
BRANCH   1  25
ATOM     25  C   UNL     1      -9.145   5.563 130.174  0.00  0.00    +0.000 C 
ATOM     26  C   UNL     1     -10.683   5.539 130.276  0.00  0.00    +0.000 C 
ATOM     27  C   UNL     1      -8.653   6.044 131.555  0.00  0.00    +0.000 C 
ENDBRANCH   1  25
TORSDOF 5
ENDMDL
MODEL 8
REMARK VINA RESULT:      -6.8      4.609      5.884
REMARK  Name = CHEMBL1089026
REMARK  9 active torsions:
REMARK  status: ('A' for Active; 'I' for Inactive)
REMARK    1  A    between atoms: C_1  and  O_2
REMARK    2  A    between atoms: O_2  and  C_3
REMARK    3  A    between atoms: C_6  and  N_7
REMARK    4  A    between atoms: N_7  and  C_23
REMARK    5  A    between atoms: C_8  and  C_10
REMARK    6  A    between atoms: C_13  and  C_14
REMARK    7  A    between atoms: C_19  and  C_20
REMARK    8  A    between atoms: C_23  and  C_24
REMARK    9  A    between atoms: C_23  and  C_25
REMARK                            x       y       z     vdW  Elec       q    Type
REMARK                         _______ _______ _______ _____ _____    ______ ____
ROOT
ATOM      1  N   UNL     1      -7.452   4.031 129.776  0.00  0.00    +0.000 N 
ATOM      2  C   UNL     1      -8.425   3.071 129.319  0.00  0.00    +0.000 C 
ATOM      3  O   UNL     1      -9.625   3.080 129.632  0.00  0.00    +0.000 OA
ENDROOT
BRANCH   1   7
ATOM      4  C   UNL     1      -3.438   4.068 128.284  0.00  0.00    +0.000 A 
ATOM      5  C   UNL     1      -3.643   3.702 129.601  0.00  0.00    +0.000 A 
ATOM      6  C   UNL     1      -4.961   3.644 130.103  0.00  0.00    +0.000 A 
ATOM      7  C   UNL     1      -6.051   4.068 129.332  0.00  0.00    +0.000 A 
ATOM      8  C   UNL     1      -5.655   4.587 128.104  0.00  0.00    +0.000 A 
ATOM      9  N   UNL     1      -4.438   4.507 127.528  0.00  0.00    +0.000 NA
BRANCH   4  11
ATOM     10  C   UNL     1      -1.853   3.129 126.840  0.00  0.00    +0.000 C 
ATOM     11  O   UNL     1      -2.236   4.207 127.671  0.00  0.00    +0.000 OA
ENDBRANCH   4  11
ENDBRANCH   1   7
BRANCH   2  12
ATOM     12  C   UNL     1      -8.119   1.942 128.422  0.00  0.00    +0.000 A 
ATOM     13  C   UNL     1      -8.297   2.028 127.053  0.00  0.00    +0.000 A 
ATOM     14  N   UNL     1      -8.282   0.925 126.269  0.00  0.00    +0.000 NA
ATOM     15  C   UNL     1      -7.975  -0.256 126.873  0.00  0.00    +0.000 A 
ATOM     16  C   UNL     1      -7.678  -0.303 128.230  0.00  0.00    +0.000 A 
ATOM     17  N   UNL     1      -7.772   0.776 129.037  0.00  0.00    +0.000 NA
BRANCH  15  18
ATOM     18  C   UNL     1      -7.889  -1.439 126.013  0.00  0.00    +0.000 A 
ATOM     19  C   UNL     1      -9.003  -2.290 125.850  0.00  0.00    +0.000 A 
ATOM     20  C   UNL     1      -8.914  -3.454 125.085  0.00  0.00    +0.000 A 
ATOM     21  C   UNL     1      -7.715  -3.782 124.462  0.00  0.00    +0.000 A 
ATOM     22  C   UNL     1      -6.606  -2.948 124.600  0.00  0.00    +0.000 A 
ATOM     23  C   UNL     1      -6.678  -1.778 125.368  0.00  0.00    +0.000 A 
ATOM     24  C   UNL     1      -5.448  -0.922 125.524  0.00  0.00    +0.000 C 
ENDBRANCH  15  18
ENDBRANCH   2  12
BRANCH   1  25
ATOM     25  C   UNL     1      -7.882   5.072 130.783  0.00  0.00    +0.000 C 
ATOM     26  C   UNL     1      -7.873   4.541 132.230  0.00  0.00    +0.000 C 
ATOM     27  C   UNL     1      -7.050   6.370 130.821  0.00  0.00    +0.000 C 
ENDBRANCH   1  25
TORSDOF 5
ENDMDL
MODEL 9
REMARK VINA RESULT:      -6.8      3.235      7.578
REMARK  Name = CHEMBL1089026
REMARK  9 active torsions:
REMARK  status: ('A' for Active; 'I' for Inactive)
REMARK    1  A    between atoms: C_1  and  O_2
REMARK    2  A    between atoms: O_2  and  C_3
REMARK    3  A    between atoms: C_6  and  N_7
REMARK    4  A    between atoms: N_7  and  C_23
REMARK    5  A    between atoms: C_8  and  C_10
REMARK    6  A    between atoms: C_13  and  C_14
REMARK    7  A    between atoms: C_19  and  C_20
REMARK    8  A    between atoms: C_23  and  C_24
REMARK    9  A    between atoms: C_23  and  C_25
REMARK                            x       y       z     vdW  Elec       q    Type
REMARK                         _______ _______ _______ _____ _____    ______ ____
ROOT
ATOM      1  N   UNL     1      -6.479   1.232 124.970  0.00  0.00    +0.000 N 
ATOM      2  C   UNL     1      -5.943   2.547 125.213  0.00  0.00    +0.000 C 
ATOM      3  O   UNL     1      -5.978   3.484 124.400  0.00  0.00    +0.000 OA
ENDROOT
BRANCH   1   7
ATOM      4  C   UNL     1      -6.688  -1.770 128.016  0.00  0.00    +0.000 A 
ATOM      5  C   UNL     1      -5.564  -1.730 127.214  0.00  0.00    +0.000 A 
ATOM      6  C   UNL     1      -5.456  -0.724 126.229  0.00  0.00    +0.000 A 
ATOM      7  C   UNL     1      -6.516   0.154 125.968  0.00  0.00    +0.000 A 
ATOM      8  C   UNL     1      -7.642  -0.144 126.728  0.00  0.00    +0.000 A 
ATOM      9  N   UNL     1      -7.729  -0.979 127.783  0.00  0.00    +0.000 NA
BRANCH   4  11
ATOM     10  C   UNL     1      -8.250  -3.258 128.926  0.00  0.00    +0.000 C 
ATOM     11  O   UNL     1      -6.954  -2.694 128.973  0.00  0.00    +0.000 OA
ENDBRANCH   4  11
ENDBRANCH   1   7
BRANCH   2  12
ATOM     12  C   UNL     1      -5.273   2.953 126.461  0.00  0.00    +0.000 A 
ATOM     13  C   UNL     1      -5.915   3.717 127.420  0.00  0.00    +0.000 A 
ATOM     14  N   UNL     1      -5.228   4.314 128.422  0.00  0.00    +0.000 NA
ATOM     15  C   UNL     1      -3.898   4.039 128.506  0.00  0.00    +0.000 A 
ATOM     16  C   UNL     1      -3.294   3.170 127.605  0.00  0.00    +0.000 A 
ATOM     17  N   UNL     1      -3.951   2.635 126.553  0.00  0.00    +0.000 NA
BRANCH  15  18
ATOM     18  C   UNL     1      -3.168   4.629 129.631  0.00  0.00    +0.000 A 
ATOM     19  C   UNL     1      -3.188   4.013 130.901  0.00  0.00    +0.000 A 
ATOM     20  C   UNL     1      -2.550   4.599 131.995  0.00  0.00    +0.000 A 
ATOM     21  C   UNL     1      -1.873   5.803 131.838  0.00  0.00    +0.000 A 
ATOM     22  C   UNL     1      -1.830   6.422 130.589  0.00  0.00    +0.000 A 
ATOM     23  C   UNL     1      -2.469   5.848 129.482  0.00  0.00    +0.000 A 
ATOM     24  C   UNL     1      -2.432   6.565 128.157  0.00  0.00    +0.000 C 
ENDBRANCH  15  18
ENDBRANCH   2  12
BRANCH   1  25
ATOM     25  C   UNL     1      -7.041   0.922 123.602  0.00  0.00    +0.000 C 
ATOM     26  C   UNL     1      -6.847  -0.554 123.200  0.00  0.00    +0.000 C 
ATOM     27  C   UNL     1      -8.544   1.205 123.400  0.00  0.00    +0.000 C 
ENDBRANCH   1  25
TORSDOF 5
ENDMDL
