MODEL 1
REMARK VINA RESULT:     -11.4      0.000      0.000
REMARK  Name = CHEMBL30587
REMARK  6 active torsions:
REMARK  status: ('A' for Active; 'I' for Inactive)
REMARK    1  A    between atoms: C_2  and  C_3
REMARK    2  A    between atoms: C_8  and  C_9
REMARK    3  A    between atoms: C_9  and  N_10
REMARK    4  A    between atoms: C_13  and  N_14
REMARK    5  A    between atoms: C_16  and  C_17
REMARK    6  A    between atoms: C_33  and  N_34
REMARK                            x       y       z     vdW  Elec       q    Type
REMARK                         _______ _______ _______ _____ _____    ______ ____
ROOT
ATOM      1  C   UNL     1      -4.328   5.115 129.659  0.00  0.00    +0.000 A 
ATOM      2  C   UNL     1      -3.578   4.844 128.527  0.00  0.00    +0.000 A 
ATOM      3  C   UNL     1      -3.333   3.508 128.176  0.00  0.00    +0.000 A 
ATOM      4  C   UNL     1      -4.194   2.562 128.734  0.00  0.00    +0.000 A 
ATOM      5  O   UNL     1      -4.383   1.309 128.270  0.00  0.00    +0.000 OA
ATOM      6  C   UNL     1      -5.321   0.681 129.025  0.00  0.00    +0.000 A 
ATOM      7  C   UNL     1      -5.684   1.544 130.039  0.00  0.00    +0.000 A 
ATOM      8  C   UNL     1      -5.061   2.799 129.775  0.00  0.00    +0.000 A 
ATOM      9  C   UNL     1      -5.043   4.091 130.319  0.00  0.00    +0.000 A 
ENDROOT
BRANCH   1  11
ATOM     10  O   UNL     1      -5.080   7.335 129.871  0.00  0.00    +0.000 OA
ATOM     11  C   UNL     1      -4.284   6.481 130.240  0.00  0.00    +0.000 C 
ATOM     12  N   UNL     1      -3.347   6.637 131.272  0.00  0.00    +0.000 N 
ATOM     13  C   UNL     1      -1.912   6.534 130.977  0.00  0.00    +0.000 C 
ATOM     14  C   UNL     1      -1.134   6.049 132.185  0.00  0.00    +0.000 C 
ATOM     15  C   UNL     1      -1.128   7.329 133.407  0.00  0.00    +0.000 C 
ATOM     16  C   UNL     1      -2.853   7.111 133.623  0.00  0.00    +0.000 C 
ATOM     17  C   UNL     1      -3.668   7.509 132.394  0.00  0.00    +0.000 C 
BRANCH  15  18
ATOM     18  N   UNL     1       0.130   8.691 133.221  0.00  0.00    +0.000 N 
ATOM     19  C   UNL     1       0.135   8.523 134.665  0.00  0.00    +0.000 C 
ATOM     20  O   UNL     1       0.264   7.452 135.359  0.00  0.00    +0.000 OA
ATOM     21  O   UNL     1      -0.181   9.563 135.388  0.00  0.00    +0.000 OA
ATOM     22  C   UNL     1       1.113   9.911 135.703  0.00  0.00    +0.000 C 
ATOM     23  C   UNL     1       1.071  10.923 134.673  0.00  0.00    +0.000 A 
ATOM     24  C   UNL     1       1.178  12.305 135.232  0.00  0.00    +0.000 A 
ATOM     25  C   UNL     1       1.439  13.453 134.545  0.00  0.00    +0.000 A 
ATOM     26  C   UNL     1       1.914  13.113 133.310  0.00  0.00    +0.000 A 
ATOM     27  C   UNL     1       1.731  11.584 132.724  0.00  0.00    +0.000 A 
ATOM     28  C   UNL     1       0.903  10.404 133.373  0.00  0.00    +0.000 A 
ENDBRANCH  15  18
ENDBRANCH   1  11
BRANCH   6  29
ATOM     29  C   UNL     1      -5.631  -0.765 128.738  0.00  0.00    +0.000 C 
BRANCH  29  30
ATOM     30  N   UNL     1      -6.923  -1.091 128.103  0.00  0.00    +0.000 NA
ATOM     31  C   UNL     1      -7.287  -0.108 127.075  0.00  0.00    +0.000 C 
ATOM     32  C   UNL     1      -8.589  -0.473 126.361  0.00  0.00    +0.000 C 
ATOM     33  C   UNL     1      -8.600  -1.931 125.847  0.00  0.00    +0.000 C 
ATOM     34  C   UNL     1      -8.278  -2.884 127.005  0.00  0.00    +0.000 C 
ATOM     35  C   UNL     1      -6.986  -2.508 127.711  0.00  0.00    +0.000 C 
BRANCH  33  36
ATOM     36  N   UNL     1      -7.744  -2.145 124.628  0.00  0.00    +0.000 N 
ATOM     37  C   UNL     1      -6.812  -3.167 124.618  0.00  0.00    +0.000 A 
ATOM     38  C   UNL     1      -5.722  -3.194 123.844  0.00  0.00    +0.000 A 
ATOM     39  C   UNL     1      -5.803  -2.424 122.641  0.00  0.00    +0.000 A 
ATOM     40  C   UNL     1      -6.758  -1.502 122.499  0.00  0.00    +0.000 A 
ATOM     41  C   UNL     1      -7.680  -1.177 123.630  0.00  0.00    +0.000 A 
ATOM     42  O   UNL     1      -8.315  -0.132 123.613  0.00  0.00    +0.000 OA
BRANCH  38  43
ATOM     43  C   UNL     1      -4.526  -4.093 123.945  0.00  0.00    +0.000 C 
ATOM     44  F   UNL     1      -4.179  -4.189 125.254  0.00  0.00    +0.000 F 
ATOM     45  F   UNL     1      -4.737  -5.375 123.568  0.00  0.00    +0.000 F 
ATOM     46  F   UNL     1      -3.481  -3.685 123.195  0.00  0.00    +0.000 F 
ENDBRANCH  38  43
ENDBRANCH  33  36
ENDBRANCH  29  30
ENDBRANCH   6  29
TORSDOF 6
ENDMDL
MODEL 2
REMARK VINA RESULT:     -11.3      7.352     14.747
REMARK  Name = CHEMBL30587
REMARK  6 active torsions:
REMARK  status: ('A' for Active; 'I' for Inactive)
REMARK    1  A    between atoms: C_2  and  C_3
REMARK    2  A    between atoms: C_8  and  C_9
REMARK    3  A    between atoms: C_9  and  N_10
REMARK    4  A    between atoms: C_13  and  N_14
REMARK    5  A    between atoms: C_16  and  C_17
REMARK    6  A    between atoms: C_33  and  N_34
REMARK                            x       y       z     vdW  Elec       q    Type
REMARK                         _______ _______ _______ _____ _____    ______ ____
ROOT
ATOM      1  C   UNL     1      -2.978   7.056 130.864  0.00  0.00    +0.000 A 
ATOM      2  C   UNL     1      -1.930   6.152 130.850  0.00  0.00    +0.000 A 
ATOM      3  C   UNL     1      -0.765   6.448 131.573  0.00  0.00    +0.000 A 
ATOM      4  C   UNL     1      -0.896   7.409 132.576  0.00  0.00    +0.000 A 
ATOM      5  O   UNL     1      -0.043   7.581 133.607  0.00  0.00    +0.000 OA
ATOM      6  C   UNL     1      -0.500   8.573 134.414  0.00  0.00    +0.000 A 
ATOM      7  C   UNL     1      -1.643   9.087 133.834  0.00  0.00    +0.000 A 
ATOM      8  C   UNL     1      -1.971   8.252 132.727  0.00  0.00    +0.000 A 
ATOM      9  C   UNL     1      -2.991   8.139 131.771  0.00  0.00    +0.000 A 
ENDROOT
BRANCH   1  11
ATOM     10  O   UNL     1      -3.800   7.206 128.664  0.00  0.00    +0.000 OA
ATOM     11  C   UNL     1      -4.041   6.940 129.833  0.00  0.00    +0.000 C 
ATOM     12  N   UNL     1      -5.253   6.422 130.314  0.00  0.00    +0.000 N 
ATOM     13  C   UNL     1      -6.043   7.191 131.283  0.00  0.00    +0.000 C 
ATOM     14  C   UNL     1      -6.871   6.279 132.169  0.00  0.00    +0.000 C 
ATOM     15  C   UNL     1      -8.159   5.558 131.193  0.00  0.00    +0.000 C 
ATOM     16  C   UNL     1      -6.954   4.660 130.292  0.00  0.00    +0.000 C 
ATOM     17  C   UNL     1      -6.043   5.553 129.452  0.00  0.00    +0.000 C 
BRANCH  15  18
ATOM     18  N   UNL     1      -9.695   6.574 130.910  0.00  0.00    +0.000 N 
ATOM     19  C   UNL     1     -10.238   5.232 130.775  0.00  0.00    +0.000 C 
ATOM     20  O   UNL     1     -10.120   4.224 131.561  0.00  0.00    +0.000 OA
ATOM     21  O   UNL     1     -10.804   4.929 129.640  0.00  0.00    +0.000 OA
ATOM     22  C   UNL     1     -12.097   5.107 130.077  0.00  0.00    +0.000 C 
ATOM     23  C   UNL     1     -12.108   6.410 129.452  0.00  0.00    +0.000 A 
ATOM     24  C   UNL     1     -13.092   6.491 128.330  0.00  0.00    +0.000 A 
ATOM     25  C   UNL     1     -13.548   7.619 127.715  0.00  0.00    +0.000 A 
ATOM     26  C   UNL     1     -13.219   8.693 128.494  0.00  0.00    +0.000 A 
ATOM     27  C   UNL     1     -12.094   8.558 129.690  0.00  0.00    +0.000 A 
ATOM     28  C   UNL     1     -11.173   7.311 130.001  0.00  0.00    +0.000 A 
ENDBRANCH  15  18
ENDBRANCH   1  11
BRANCH   6  29
ATOM     29  C   UNL     1       0.342   8.996 135.589  0.00  0.00    +0.000 C 
BRANCH  29  30
ATOM     30  N   UNL     1       1.228  10.167 135.429  0.00  0.00    +0.000 NA
ATOM     31  C   UNL     1       0.964  10.882 134.173  0.00  0.00    +0.000 C 
ATOM     32  C   UNL     1       1.827  12.136 134.030  0.00  0.00    +0.000 C 
ATOM     33  C   UNL     1       1.770  13.047 135.278  0.00  0.00    +0.000 C 
ATOM     34  C   UNL     1       2.125  12.228 136.525  0.00  0.00    +0.000 C 
ATOM     35  C   UNL     1       1.267  10.981 136.655  0.00  0.00    +0.000 C 
BRANCH  33  36
ATOM     36  N   UNL     1       0.481  13.814 135.403  0.00  0.00    +0.000 N 
ATOM     37  C   UNL     1      -0.591  13.486 134.593  0.00  0.00    +0.000 A 
ATOM     38  C   UNL     1      -1.586  14.322 134.274  0.00  0.00    +0.000 A 
ATOM     39  C   UNL     1      -1.820  15.383 135.204  0.00  0.00    +0.000 A 
ATOM     40  C   UNL     1      -0.897  15.688 136.120  0.00  0.00    +0.000 A 
ATOM     41  C   UNL     1       0.436  15.010 136.114  0.00  0.00    +0.000 A 
ATOM     42  O   UNL     1       1.373  15.511 136.721  0.00  0.00    +0.000 OA
BRANCH  38  43
ATOM     43  C   UNL     1      -2.629  14.169 133.207  0.00  0.00    +0.000 C 
ATOM     44  F   UNL     1      -3.213  12.953 133.359  0.00  0.00    +0.000 F 
ATOM     45  F   UNL     1      -3.662  15.039 133.284  0.00  0.00    +0.000 F 
ATOM     46  F   UNL     1      -2.146  14.322 131.957  0.00  0.00    +0.000 F 
ENDBRANCH  38  43
ENDBRANCH  33  36
ENDBRANCH  29  30
ENDBRANCH   6  29
TORSDOF 6
ENDMDL
MODEL 3
REMARK VINA RESULT:     -11.1      6.365      9.632
REMARK  Name = CHEMBL30587
REMARK  6 active torsions:
REMARK  status: ('A' for Active; 'I' for Inactive)
REMARK    1  A    between atoms: C_2  and  C_3
REMARK    2  A    between atoms: C_8  and  C_9
REMARK    3  A    between atoms: C_9  and  N_10
REMARK    4  A    between atoms: C_13  and  N_14
REMARK    5  A    between atoms: C_16  and  C_17
REMARK    6  A    between atoms: C_33  and  N_34
REMARK                            x       y       z     vdW  Elec       q    Type
REMARK                         _______ _______ _______ _____ _____    ______ ____
ROOT
ATOM      1  C   UNL     1      -5.478   4.192 134.048  0.00  0.00    +0.000 A 
ATOM      2  C   UNL     1      -5.227   4.388 135.395  0.00  0.00    +0.000 A 
ATOM      3  C   UNL     1      -5.247   3.283 136.260  0.00  0.00    +0.000 A 
ATOM      4  C   UNL     1      -5.103   2.033 135.657  0.00  0.00    +0.000 A 
ATOM      5  O   UNL     1      -4.731   0.901 136.289  0.00  0.00    +0.000 OA
ATOM      6  C   UNL     1      -4.649  -0.115 135.391  0.00  0.00    +0.000 A 
ATOM      7  C   UNL     1      -5.048   0.380 134.166  0.00  0.00    +0.000 A 
ATOM      8  C   UNL     1      -5.209   1.789 134.308  0.00  0.00    +0.000 A 
ATOM      9  C   UNL     1      -5.514   2.892 133.497  0.00  0.00    +0.000 A 
ENDROOT
BRANCH   1  11
ATOM     10  O   UNL     1      -5.076   6.334 133.159  0.00  0.00    +0.000 OA
ATOM     11  C   UNL     1      -5.821   5.364 133.203  0.00  0.00    +0.000 C 
ATOM     12  N   UNL     1      -6.979   5.195 132.429  0.00  0.00    +0.000 N 
ATOM     13  C   UNL     1      -8.286   5.075 133.086  0.00  0.00    +0.000 C 
ATOM     14  C   UNL     1      -9.251   4.253 132.252  0.00  0.00    +0.000 C 
ATOM     15  C   UNL     1      -9.691   5.185 130.813  0.00  0.00    +0.000 C 
ATOM     16  C   UNL     1      -8.045   5.035 130.230  0.00  0.00    +0.000 C 
ATOM     17  C   UNL     1      -7.031   5.780 131.095  0.00  0.00    +0.000 C 
BRANCH  15  18
ATOM     18  N   UNL     1     -11.034   6.464 130.994  0.00  0.00    +0.000 N 
ATOM     19  C   UNL     1     -11.521   5.732 129.836  0.00  0.00    +0.000 C 
ATOM     20  O   UNL     1     -11.682   4.469 129.681  0.00  0.00    +0.000 OA
ATOM     21  O   UNL     1     -11.686   6.406 128.731  0.00  0.00    +0.000 OA
ATOM     22  C   UNL     1     -13.048   6.554 128.861  0.00  0.00    +0.000 C 
ATOM     23  C   UNL     1     -12.835   7.895 129.356  0.00  0.00    +0.000 A 
ATOM     24  C   UNL     1     -13.394   8.933 128.437  0.00  0.00    +0.000 A 
ATOM     25  C   UNL     1     -13.606  10.251 128.716  0.00  0.00    +0.000 A 
ATOM     26  C   UNL     1     -13.537  10.417 130.071  0.00  0.00    +0.000 A 
ATOM     27  C   UNL     1     -12.870   9.258 131.033  0.00  0.00    +0.000 A 
ATOM     28  C   UNL     1     -12.120   7.945 130.570  0.00  0.00    +0.000 A 
ENDBRANCH  15  18
ENDBRANCH   1  11
BRANCH   6  29
ATOM     29  C   UNL     1      -4.332  -1.500 135.892  0.00  0.00    +0.000 C 
BRANCH  29  30
ATOM     30  N   UNL     1      -4.966  -2.650 135.218  0.00  0.00    +0.000 NA
ATOM     31  C   UNL     1      -6.412  -2.456 135.055  0.00  0.00    +0.000 C 
ATOM     32  C   UNL     1      -7.068  -3.610 134.295  0.00  0.00    +0.000 C 
ATOM     33  C   UNL     1      -6.340  -3.946 132.973  0.00  0.00    +0.000 C 
ATOM     34  C   UNL     1      -4.854  -4.198 133.257  0.00  0.00    +0.000 C 
ATOM     35  C   UNL     1      -4.214  -3.049 134.017  0.00  0.00    +0.000 C 
BRANCH  33  36
ATOM     36  N   UNL     1      -6.587  -2.942 131.880  0.00  0.00    +0.000 N 
ATOM     37  C   UNL     1      -7.090  -1.694 132.199  0.00  0.00    +0.000 A 
ATOM     38  C   UNL     1      -7.762  -0.906 131.352  0.00  0.00    +0.000 A 
ATOM     39  C   UNL     1      -7.492  -1.123 129.964  0.00  0.00    +0.000 A 
ATOM     40  C   UNL     1      -6.883  -2.243 129.568  0.00  0.00    +0.000 A 
ATOM     41  C   UNL     1      -6.579  -3.334 130.544  0.00  0.00    +0.000 A 
ATOM     42  O   UNL     1      -6.335  -4.461 130.137  0.00  0.00    +0.000 OA
BRANCH  38  43
ATOM     43  C   UNL     1      -8.576   0.317 131.659  0.00  0.00    +0.000 C 
ATOM     44  F   UNL     1      -8.102   0.861 132.808  0.00  0.00    +0.000 F 
ATOM     45  F   UNL     1      -8.471   1.318 130.756  0.00  0.00    +0.000 F 
ATOM     46  F   UNL     1      -9.900   0.073 131.746  0.00  0.00    +0.000 F 
ENDBRANCH  38  43
ENDBRANCH  33  36
ENDBRANCH  29  30
ENDBRANCH   6  29
TORSDOF 6
ENDMDL
MODEL 4
REMARK VINA RESULT:     -11.0      2.994      4.613
REMARK  Name = CHEMBL30587
REMARK  6 active torsions:
REMARK  status: ('A' for Active; 'I' for Inactive)
REMARK    1  A    between atoms: C_2  and  C_3
REMARK    2  A    between atoms: C_8  and  C_9
REMARK    3  A    between atoms: C_9  and  N_10
REMARK    4  A    between atoms: C_13  and  N_14
REMARK    5  A    between atoms: C_16  and  C_17
REMARK    6  A    between atoms: C_33  and  N_34
REMARK                            x       y       z     vdW  Elec       q    Type
REMARK                         _______ _______ _______ _____ _____    ______ ____
ROOT
ATOM      1  C   UNL     1      -7.933   2.110 129.980  0.00  0.00    +0.000 A 
ATOM      2  C   UNL     1      -8.717   2.408 128.879  0.00  0.00    +0.000 A 
ATOM      3  C   UNL     1      -8.637   1.587 127.743  0.00  0.00    +0.000 A 
ATOM      4  C   UNL     1      -8.103   0.314 127.946  0.00  0.00    +0.000 A 
ATOM      5  O   UNL     1      -8.264  -0.739 127.119  0.00  0.00    +0.000 OA
ATOM      6  C   UNL     1      -7.649  -1.829 127.646  0.00  0.00    +0.000 A 
ATOM      7  C   UNL     1      -7.023  -1.431 128.810  0.00  0.00    +0.000 A 
ATOM      8  C   UNL     1      -7.426  -0.089 129.073  0.00  0.00    +0.000 A 
ATOM      9  C   UNL     1      -7.246   0.879 130.072  0.00  0.00    +0.000 A 
ENDROOT
BRANCH   1  11
ATOM     10  O   UNL     1      -8.688   3.605 131.633  0.00  0.00    +0.000 OA
ATOM     11  C   UNL     1      -7.731   3.150 131.021  0.00  0.00    +0.000 C 
ATOM     12  N   UNL     1      -6.386   3.455 131.275  0.00  0.00    +0.000 N 
ATOM     13  C   UNL     1      -5.574   4.100 130.235  0.00  0.00    +0.000 C 
ATOM     14  C   UNL     1      -4.107   3.742 130.378  0.00  0.00    +0.000 C 
ATOM     15  C   UNL     1      -3.470   4.531 131.829  0.00  0.00    +0.000 C 
ATOM     16  C   UNL     1      -4.484   3.500 132.818  0.00  0.00    +0.000 C 
ATOM     17  C   UNL     1      -5.976   3.772 132.637  0.00  0.00    +0.000 C 
BRANCH  15  18
ATOM     18  N   UNL     1      -2.956   6.316 131.682  0.00  0.00    +0.000 N 
ATOM     19  C   UNL     1      -1.848   5.786 132.459  0.00  0.00    +0.000 C 
ATOM     20  O   UNL     1      -1.115   4.758 132.233  0.00  0.00    +0.000 OA
ATOM     21  O   UNL     1      -1.635   6.316 133.632  0.00  0.00    +0.000 OA
ATOM     22  C   UNL     1      -0.600   7.130 133.230  0.00  0.00    +0.000 C 
ATOM     23  C   UNL     1      -1.522   8.240 133.170  0.00  0.00    +0.000 A 
ATOM     24  C   UNL     1      -1.198   9.301 134.172  0.00  0.00    +0.000 A 
ATOM     25  C   UNL     1      -1.682  10.575 134.208  0.00  0.00    +0.000 A 
ATOM     26  C   UNL     1      -2.260  10.846 133.000  0.00  0.00    +0.000 A 
ATOM     27  C   UNL     1      -2.637   9.634 131.951  0.00  0.00    +0.000 A 
ATOM     28  C   UNL     1      -2.545   8.077 132.214  0.00  0.00    +0.000 A 
ENDBRANCH  15  18
ENDBRANCH   1  11
BRANCH   6  29
ATOM     29  C   UNL     1      -7.627  -3.106 126.846  0.00  0.00    +0.000 C 
BRANCH  29  30
ATOM     30  N   UNL     1      -7.679  -3.009 125.374  0.00  0.00    +0.000 NA
ATOM     31  C   UNL     1      -9.004  -2.587 124.902  0.00  0.00    +0.000 C 
ATOM     32  C   UNL     1      -9.050  -2.416 123.384  0.00  0.00    +0.000 C 
ATOM     33  C   UNL     1      -7.898  -1.536 122.846  0.00  0.00    +0.000 C 
ATOM     34  C   UNL     1      -6.556  -2.097 123.334  0.00  0.00    +0.000 C 
ATOM     35  C   UNL     1      -6.523  -2.268 124.843  0.00  0.00    +0.000 C 
BRANCH  33  36
ATOM     36  N   UNL     1      -8.081  -0.069 123.126  0.00  0.00    +0.000 N 
ATOM     37  C   UNL     1      -7.049   0.651 123.700  0.00  0.00    +0.000 A 
ATOM     38  C   UNL     1      -7.208   1.782 124.397  0.00  0.00    +0.000 A 
ATOM     39  C   UNL     1      -8.386   2.533 124.091  0.00  0.00    +0.000 A 
ATOM     40  C   UNL     1      -9.387   1.963 123.417  0.00  0.00    +0.000 A 
ATOM     41  C   UNL     1      -9.347   0.508 123.074  0.00  0.00    +0.000 A 
ATOM     42  O   UNL     1     -10.379  -0.071 122.764  0.00  0.00    +0.000 OA
BRANCH  38  43
ATOM     43  C   UNL     1      -6.216   2.483 125.279  0.00  0.00    +0.000 C 
ATOM     44  F   UNL     1      -5.348   3.158 124.484  0.00  0.00    +0.000 F 
ATOM     45  F   UNL     1      -6.737   3.439 126.081  0.00  0.00    +0.000 F 
ATOM     46  F   UNL     1      -5.562   1.652 126.117  0.00  0.00    +0.000 F 
ENDBRANCH  38  43
ENDBRANCH  33  36
ENDBRANCH  29  30
ENDBRANCH   6  29
TORSDOF 6
ENDMDL
MODEL 5
REMARK VINA RESULT:     -11.0      2.884      3.735
REMARK  Name = CHEMBL30587
REMARK  6 active torsions:
REMARK  status: ('A' for Active; 'I' for Inactive)
REMARK    1  A    between atoms: C_2  and  C_3
REMARK    2  A    between atoms: C_8  and  C_9
REMARK    3  A    between atoms: C_9  and  N_10
REMARK    4  A    between atoms: C_13  and  N_14
REMARK    5  A    between atoms: C_16  and  C_17
REMARK    6  A    between atoms: C_33  and  N_34
REMARK                            x       y       z     vdW  Elec       q    Type
REMARK                         _______ _______ _______ _____ _____    ______ ____
ROOT
ATOM      1  C   UNL     1      -6.075   3.365 129.203  0.00  0.00    +0.000 A 
ATOM      2  C   UNL     1      -4.766   3.045 128.885  0.00  0.00    +0.000 A 
ATOM      3  C   UNL     1      -4.419   1.697 128.709  0.00  0.00    +0.000 A 
ATOM      4  C   UNL     1      -5.476   0.822 128.454  0.00  0.00    +0.000 A 
ATOM      5  O   UNL     1      -5.358  -0.404 127.902  0.00  0.00    +0.000 OA
ATOM      6  C   UNL     1      -6.590  -0.957 127.758  0.00  0.00    +0.000 A 
ATOM      7  C   UNL     1      -7.507  -0.078 128.298  0.00  0.00    +0.000 A 
ATOM      8  C   UNL     1      -6.808   1.121 128.623  0.00  0.00    +0.000 A 
ATOM      9  C   UNL     1      -7.102   2.400 129.117  0.00  0.00    +0.000 A 
ENDROOT
BRANCH   1  11
ATOM     10  O   UNL     1      -7.347   5.340 129.350  0.00  0.00    +0.000 OA
ATOM     11  C   UNL     1      -6.372   4.716 129.746  0.00  0.00    +0.000 C 
ATOM     12  N   UNL     1      -5.513   5.122 130.778  0.00  0.00    +0.000 N 
ATOM     13  C   UNL     1      -4.093   5.365 130.493  0.00  0.00    +0.000 C 
ATOM     14  C   UNL     1      -3.233   5.116 131.718  0.00  0.00    +0.000 C 
ATOM     15  C   UNL     1      -3.554   6.389 132.904  0.00  0.00    +0.000 C 
ATOM     16  C   UNL     1      -5.176   5.763 133.118  0.00  0.00    +0.000 C 
ATOM     17  C   UNL     1      -6.049   5.918 131.875  0.00  0.00    +0.000 C 
BRANCH  15  18
ATOM     18  N   UNL     1      -2.663   8.012 132.687  0.00  0.00    +0.000 N 
ATOM     19  C   UNL     1      -2.402   7.754 134.093  0.00  0.00    +0.000 C 
ATOM     20  O   UNL     1      -1.940   6.697 134.654  0.00  0.00    +0.000 OA
ATOM     21  O   UNL     1      -2.821   8.644 134.951  0.00  0.00    +0.000 OA
ATOM     22  C   UNL     1      -1.600   9.256 135.123  0.00  0.00    +0.000 C 
ATOM     23  C   UNL     1      -2.017  10.298 134.212  0.00  0.00    +0.000 A 
ATOM     24  C   UNL     1      -2.127  11.628 134.886  0.00  0.00    +0.000 A 
ATOM     25  C   UNL     1      -2.229  12.849 134.287  0.00  0.00    +0.000 A 
ATOM     26  C   UNL     1      -1.885  12.708 132.972  0.00  0.00    +0.000 A 
ATOM     27  C   UNL     1      -1.821  11.220 132.267  0.00  0.00    +0.000 A 
ATOM     28  C   UNL     1      -2.265   9.842 132.902  0.00  0.00    +0.000 A 
ENDBRANCH  15  18
ENDBRANCH   1  11
BRANCH   6  29
ATOM     29  C   UNL     1      -6.692  -2.368 127.238  0.00  0.00    +0.000 C 
BRANCH  29  30
ATOM     30  N   UNL     1      -7.124  -2.568 125.840  0.00  0.00    +0.000 NA
ATOM     31  C   UNL     1      -8.534  -2.207 125.649  0.00  0.00    +0.000 C 
ATOM     32  C   UNL     1      -8.974  -2.344 124.191  0.00  0.00    +0.000 C 
ATOM     33  C   UNL     1      -8.018  -1.629 123.208  0.00  0.00    +0.000 C 
ATOM     34  C   UNL     1      -6.584  -2.122 123.440  0.00  0.00    +0.000 C 
ATOM     35  C   UNL     1      -6.160  -1.987 124.892  0.00  0.00    +0.000 C 
BRANCH  33  36
ATOM     36  N   UNL     1      -8.153  -0.130 123.222  0.00  0.00    +0.000 N 
ATOM     37  C   UNL     1      -7.120   0.645 123.716  0.00  0.00    +0.000 A 
ATOM     38  C   UNL     1      -7.264   1.885 124.199  0.00  0.00    +0.000 A 
ATOM     39  C   UNL     1      -8.396   2.608 123.708  0.00  0.00    +0.000 A 
ATOM     40  C   UNL     1      -9.388   1.963 123.091  0.00  0.00    +0.000 A 
ATOM     41  C   UNL     1      -9.391   0.470 123.006  0.00  0.00    +0.000 A 
ATOM     42  O   UNL     1     -10.431  -0.120 122.748  0.00  0.00    +0.000 OA
BRANCH  38  43
ATOM     43  C   UNL     1      -6.286   2.695 124.997  0.00  0.00    +0.000 C 
ATOM     44  F   UNL     1      -5.332   1.856 125.475  0.00  0.00    +0.000 F 
ATOM     45  F   UNL     1      -5.589   3.614 124.290  0.00  0.00    +0.000 F 
ATOM     46  F   UNL     1      -6.860   3.398 125.997  0.00  0.00    +0.000 F 
ENDBRANCH  38  43
ENDBRANCH  33  36
ENDBRANCH  29  30
ENDBRANCH   6  29
TORSDOF 6
ENDMDL
MODEL 6
REMARK VINA RESULT:     -11.0      6.008      8.732
REMARK  Name = CHEMBL30587
REMARK  6 active torsions:
REMARK  status: ('A' for Active; 'I' for Inactive)
REMARK    1  A    between atoms: C_2  and  C_3
REMARK    2  A    between atoms: C_8  and  C_9
REMARK    3  A    between atoms: C_9  and  N_10
REMARK    4  A    between atoms: C_13  and  N_14
REMARK    5  A    between atoms: C_16  and  C_17
REMARK    6  A    between atoms: C_33  and  N_34
REMARK                            x       y       z     vdW  Elec       q    Type
REMARK                         _______ _______ _______ _____ _____    ______ ____
ROOT
ATOM      1  C   UNL     1      -5.172   3.116 134.450  0.00  0.00    +0.000 A 
ATOM      2  C   UNL     1      -5.044   2.533 135.699  0.00  0.00    +0.000 A 
ATOM      3  C   UNL     1      -4.847   1.147 135.786  0.00  0.00    +0.000 A 
ATOM      4  C   UNL     1      -4.381   0.521 134.629  0.00  0.00    +0.000 A 
ATOM      5  O   UNL     1      -3.786  -0.688 134.583  0.00  0.00    +0.000 OA
ATOM      6  C   UNL     1      -3.420  -0.965 133.304  0.00  0.00    +0.000 A 
ATOM      7  C   UNL     1      -3.860   0.075 132.511  0.00  0.00    +0.000 A 
ATOM      8  C   UNL     1      -4.357   1.091 133.378  0.00  0.00    +0.000 A 
ATOM      9  C   UNL     1      -4.871   2.392 133.275  0.00  0.00    +0.000 A 
ENDROOT
BRANCH   1  11
ATOM     10  O   UNL     1      -5.573   5.290 135.259  0.00  0.00    +0.000 OA
ATOM     11  C   UNL     1      -5.738   4.486 134.351  0.00  0.00    +0.000 C 
ATOM     12  N   UNL     1      -6.359   4.764 133.124  0.00  0.00    +0.000 N 
ATOM     13  C   UNL     1      -7.584   4.048 132.747  0.00  0.00    +0.000 C 
ATOM     14  C   UNL     1      -7.717   3.938 131.239  0.00  0.00    +0.000 C 
ATOM     15  C   UNL     1      -8.058   5.545 130.582  0.00  0.00    +0.000 C 
ATOM     16  C   UNL     1      -6.451   6.063 131.050  0.00  0.00    +0.000 C 
ATOM     17  C   UNL     1      -6.250   6.104 132.563  0.00  0.00    +0.000 C 
BRANCH  15  18
ATOM     18  N   UNL     1      -9.824   6.138 130.632  0.00  0.00    +0.000 N 
ATOM     19  C   UNL     1      -9.567   6.196 129.202  0.00  0.00    +0.000 C 
ATOM     20  O   UNL     1      -9.084   5.296 128.426  0.00  0.00    +0.000 OA
ATOM     21  O   UNL     1      -9.694   7.356 128.619  0.00  0.00    +0.000 OA
ATOM     22  C   UNL     1     -10.947   7.115 128.102  0.00  0.00    +0.000 C 
ATOM     23  C   UNL     1     -11.520   7.875 129.189  0.00  0.00    +0.000 A 
ATOM     24  C   UNL     1     -12.199   9.119 128.714  0.00  0.00    +0.000 A 
ATOM     25  C   UNL     1     -13.058   9.909 129.420  0.00  0.00    +0.000 A 
ATOM     26  C   UNL     1     -13.466   9.216 130.524  0.00  0.00    +0.000 A 
ATOM     27  C   UNL     1     -12.654   7.874 131.030  0.00  0.00    +0.000 A 
ATOM     28  C   UNL     1     -11.291   7.309 130.460  0.00  0.00    +0.000 A 
ENDBRANCH  15  18
ENDBRANCH   1  11
BRANCH   6  29
ATOM     29  C   UNL     1      -2.811  -2.310 133.001  0.00  0.00    +0.000 C 
BRANCH  29  30
ATOM     30  N   UNL     1      -3.368  -3.094 131.882  0.00  0.00    +0.000 NA
ATOM     31  C   UNL     1      -4.762  -3.483 132.130  0.00  0.00    +0.000 C 
ATOM     32  C   UNL     1      -5.372  -4.236 130.947  0.00  0.00    +0.000 C 
ATOM     33  C   UNL     1      -5.170  -3.500 129.602  0.00  0.00    +0.000 C 
ATOM     34  C   UNL     1      -3.680  -3.199 129.402  0.00  0.00    +0.000 C 
ATOM     35  C   UNL     1      -3.082  -2.457 130.586  0.00  0.00    +0.000 C 
BRANCH  33  36
ATOM     36  N   UNL     1      -6.060  -2.298 129.437  0.00  0.00    +0.000 N 
ATOM     37  C   UNL     1      -6.518  -1.627 130.556  0.00  0.00    +0.000 A 
ATOM     38  C   UNL     1      -7.623  -0.873 130.591  0.00  0.00    +0.000 A 
ATOM     39  C   UNL     1      -8.034  -0.326 129.336  0.00  0.00    +0.000 A 
ATOM     40  C   UNL     1      -7.541  -0.817 128.197  0.00  0.00    +0.000 A 
ATOM     41  C   UNL     1      -6.647  -2.016 128.206  0.00  0.00    +0.000 A 
ATOM     42  O   UNL     1      -6.473  -2.651 127.175  0.00  0.00    +0.000 OA
BRANCH  38  43
ATOM     43  C   UNL     1      -8.350  -0.337 131.789  0.00  0.00    +0.000 C 
ATOM     44  F   UNL     1      -7.661   0.735 132.257  0.00  0.00    +0.000 F 
ATOM     45  F   UNL     1      -9.586   0.153 131.539  0.00  0.00    +0.000 F 
ATOM     46  F   UNL     1      -8.537  -1.255 132.760  0.00  0.00    +0.000 F 
ENDBRANCH  38  43
ENDBRANCH  33  36
ENDBRANCH  29  30
ENDBRANCH   6  29
TORSDOF 6
ENDMDL
MODEL 7
REMARK VINA RESULT:     -10.8      7.519     10.515
REMARK  Name = CHEMBL30587
REMARK  6 active torsions:
REMARK  status: ('A' for Active; 'I' for Inactive)
REMARK    1  A    between atoms: C_2  and  C_3
REMARK    2  A    between atoms: C_8  and  C_9
REMARK    3  A    between atoms: C_9  and  N_10
REMARK    4  A    between atoms: C_13  and  N_14
REMARK    5  A    between atoms: C_16  and  C_17
REMARK    6  A    between atoms: C_33  and  N_34
REMARK                            x       y       z     vdW  Elec       q    Type
REMARK                         _______ _______ _______ _____ _____    ______ ____
ROOT
ATOM      1  C   UNL     1      -6.361  -0.235 131.685  0.00  0.00    +0.000 A 
ATOM      2  C   UNL     1      -5.440  -0.587 130.714  0.00  0.00    +0.000 A 
ATOM      3  C   UNL     1      -4.082  -0.661 131.058  0.00  0.00    +0.000 A 
ATOM      4  C   UNL     1      -3.803  -0.786 132.420  0.00  0.00    +0.000 A 
ATOM      5  O   UNL     1      -2.641  -1.233 132.940  0.00  0.00    +0.000 OA
ATOM      6  C   UNL     1      -2.733  -1.268 134.294  0.00  0.00    +0.000 A 
ATOM      7  C   UNL     1      -3.970  -0.762 134.640  0.00  0.00    +0.000 A 
ATOM      8  C   UNL     1      -4.708  -0.579 133.434  0.00  0.00    +0.000 A 
ATOM      9  C   UNL     1      -5.998  -0.186 133.049  0.00  0.00    +0.000 A 
ENDROOT
BRANCH   1  11
ATOM     10  O   UNL     1      -8.487  -0.592 130.740  0.00  0.00    +0.000 OA
ATOM     11  C   UNL     1      -7.718   0.202 131.264  0.00  0.00    +0.000 C 
ATOM     12  N   UNL     1      -8.029   1.525 131.611  0.00  0.00    +0.000 N 
ATOM     13  C   UNL     1      -7.296   2.635 130.990  0.00  0.00    +0.000 C 
ATOM     14  C   UNL     1      -7.245   3.844 131.905  0.00  0.00    +0.000 C 
ATOM     15  C   UNL     1      -8.868   4.541 132.013  0.00  0.00    +0.000 C 
ATOM     16  C   UNL     1      -9.411   3.110 132.867  0.00  0.00    +0.000 C 
ATOM     17  C   UNL     1      -9.395   1.852 132.002  0.00  0.00    +0.000 C 
BRANCH  15  18
ATOM     18  N   UNL     1      -9.409   5.680 130.642  0.00  0.00    +0.000 N 
ATOM     19  C   UNL     1     -10.373   6.032 131.671  0.00  0.00    +0.000 C 
ATOM     20  O   UNL     1     -10.173   6.351 132.897  0.00  0.00    +0.000 OA
ATOM     21  O   UNL     1     -11.635   5.866 131.388  0.00  0.00    +0.000 OA
ATOM     22  C   UNL     1     -11.886   7.187 131.094  0.00  0.00    +0.000 C 
ATOM     23  C   UNL     1     -11.784   6.873 129.687  0.00  0.00    +0.000 A 
ATOM     24  C   UNL     1     -13.078   7.070 128.967  0.00  0.00    +0.000 A 
ATOM     25  C   UNL     1     -13.270   7.129 127.619  0.00  0.00    +0.000 A 
ATOM     26  C   UNL     1     -12.053   7.308 127.022  0.00  0.00    +0.000 A 
ATOM     27  C   UNL     1     -10.656   7.034 127.850  0.00  0.00    +0.000 A 
ATOM     28  C   UNL     1     -10.507   6.418 129.299  0.00  0.00    +0.000 A 
ENDBRANCH  15  18
ENDBRANCH   1  11
BRANCH   6  29
ATOM     29  C   UNL     1      -1.516  -1.656 135.092  0.00  0.00    +0.000 C 
BRANCH  29  30
ATOM     30  N   UNL     1      -1.515  -2.965 135.775  0.00  0.00    +0.000 NA
ATOM     31  C   UNL     1      -2.579  -3.054 136.784  0.00  0.00    +0.000 C 
ATOM     32  C   UNL     1      -2.633  -4.430 137.448  0.00  0.00    +0.000 C 
ATOM     33  C   UNL     1      -2.659  -5.588 136.424  0.00  0.00    +0.000 C 
ATOM     34  C   UNL     1      -1.474  -5.446 135.461  0.00  0.00    +0.000 C 
ATOM     35  C   UNL     1      -1.427  -4.074 134.811  0.00  0.00    +0.000 C 
BRANCH  33  36
ATOM     36  N   UNL     1      -3.987  -5.749 135.734  0.00  0.00    +0.000 N 
ATOM     37  C   UNL     1      -4.107  -5.415 134.397  0.00  0.00    +0.000 A 
ATOM     38  C   UNL     1      -5.255  -5.079 133.798  0.00  0.00    +0.000 A 
ATOM     39  C   UNL     1      -6.442  -5.586 134.414  0.00  0.00    +0.000 A 
ATOM     40  C   UNL     1      -6.399  -6.060 135.662  0.00  0.00    +0.000 A 
ATOM     41  C   UNL     1      -5.147  -5.962 136.473  0.00  0.00    +0.000 A 
ATOM     42  O   UNL     1      -5.202  -6.085 137.689  0.00  0.00    +0.000 OA
BRANCH  38  43
ATOM     43  C   UNL     1      -5.457  -4.445 132.453  0.00  0.00    +0.000 C 
ATOM     44  F   UNL     1      -4.274  -3.909 132.058  0.00  0.00    +0.000 F 
ATOM     45  F   UNL     1      -5.777  -5.301 131.456  0.00  0.00    +0.000 F 
ATOM     46  F   UNL     1      -6.438  -3.520 132.437  0.00  0.00    +0.000 F 
ENDBRANCH  38  43
ENDBRANCH  33  36
ENDBRANCH  29  30
ENDBRANCH   6  29
TORSDOF 6
ENDMDL
MODEL 8
REMARK VINA RESULT:     -10.8      3.525      4.890
REMARK  Name = CHEMBL30587
REMARK  6 active torsions:
REMARK  status: ('A' for Active; 'I' for Inactive)
REMARK    1  A    between atoms: C_2  and  C_3
REMARK    2  A    between atoms: C_8  and  C_9
REMARK    3  A    between atoms: C_9  and  N_10
REMARK    4  A    between atoms: C_13  and  N_14
REMARK    5  A    between atoms: C_16  and  C_17
REMARK    6  A    between atoms: C_33  and  N_34
REMARK                            x       y       z     vdW  Elec       q    Type
REMARK                         _______ _______ _______ _____ _____    ______ ____
ROOT
ATOM      1  C   UNL     1      -7.815   2.388 133.343  0.00  0.00    +0.000 A 
ATOM      2  C   UNL     1      -9.065   2.300 132.755  0.00  0.00    +0.000 A 
ATOM      3  C   UNL     1      -9.294   1.311 131.786  0.00  0.00    +0.000 A 
ATOM      4  C   UNL     1      -8.401   0.239 131.784  0.00  0.00    +0.000 A 
ATOM      5  O   UNL     1      -8.628  -0.964 131.218  0.00  0.00    +0.000 OA
ATOM      6  C   UNL     1      -7.567  -1.781 131.446  0.00  0.00    +0.000 A 
ATOM      7  C   UNL     1      -6.612  -1.045 132.119  0.00  0.00    +0.000 A 
ATOM      8  C   UNL     1      -7.200   0.209 132.454  0.00  0.00    +0.000 A 
ATOM      9  C   UNL     1      -6.854   1.367 133.166  0.00  0.00    +0.000 A 
ENDROOT
BRANCH   1  11
ATOM     10  O   UNL     1      -8.280   4.201 134.770  0.00  0.00    +0.000 OA
ATOM     11  C   UNL     1      -7.451   3.628 134.075  0.00  0.00    +0.000 C 
ATOM     12  N   UNL     1      -6.099   3.986 133.963  0.00  0.00    +0.000 N 
ATOM     13  C   UNL     1      -5.558   4.396 132.661  0.00  0.00    +0.000 C 
ATOM     14  C   UNL     1      -4.077   4.083 132.556  0.00  0.00    +0.000 C 
ATOM     15  C   UNL     1      -3.190   5.168 133.638  0.00  0.00    +0.000 C 
ATOM     16  C   UNL     1      -3.921   4.368 135.015  0.00  0.00    +0.000 C 
ATOM     17  C   UNL     1      -5.429   4.589 135.108  0.00  0.00    +0.000 C 
BRANCH  15  18
ATOM     18  N   UNL     1      -2.809   6.881 133.014  0.00  0.00    +0.000 N 
ATOM     19  C   UNL     1      -1.464   6.351 133.167  0.00  0.00    +0.000 C 
ATOM     20  O   UNL     1      -0.970   5.250 132.731  0.00  0.00    +0.000 OA
ATOM     21  O   UNL     1      -0.662   6.983 133.979  0.00  0.00    +0.000 OA
ATOM     22  C   UNL     1       0.019   7.667 132.997  0.00  0.00    +0.000 C 
ATOM     23  C   UNL     1      -0.785   8.833 133.279  0.00  0.00    +0.000 A 
ATOM     24  C   UNL     1       0.028   9.965 133.820  0.00  0.00    +0.000 A 
ATOM     25  C   UNL     1      -0.351  11.270 133.935  0.00  0.00    +0.000 A 
ATOM     26  C   UNL     1      -1.473  11.457 133.177  0.00  0.00    +0.000 A 
ATOM     27  C   UNL     1      -2.358  10.174 132.643  0.00  0.00    +0.000 A 
ATOM     28  C   UNL     1      -2.159   8.651 133.022  0.00  0.00    +0.000 A 
ENDBRANCH  15  18
ENDBRANCH   1  11
BRANCH   6  29
ATOM     29  C   UNL     1      -7.566  -3.155 130.828  0.00  0.00    +0.000 C 
BRANCH  29  30
ATOM     30  N   UNL     1      -7.265  -3.274 129.387  0.00  0.00    +0.000 NA
ATOM     31  C   UNL     1      -8.481  -3.199 128.568  0.00  0.00    +0.000 C 
ATOM     32  C   UNL     1      -8.175  -3.250 127.071  0.00  0.00    +0.000 C 
ATOM     33  C   UNL     1      -7.087  -2.236 126.648  0.00  0.00    +0.000 C 
ATOM     34  C   UNL     1      -5.836  -2.440 127.512  0.00  0.00    +0.000 C 
ATOM     35  C   UNL     1      -6.152  -2.393 128.997  0.00  0.00    +0.000 C 
BRANCH  33  36
ATOM     36  N   UNL     1      -7.574  -0.813 126.611  0.00  0.00    +0.000 N 
ATOM     37  C   UNL     1      -6.922   0.152 127.356  0.00  0.00    +0.000 A 
ATOM     38  C   UNL     1      -7.478   1.296 127.771  0.00  0.00    +0.000 A 
ATOM     39  C   UNL     1      -8.580   1.764 126.987  0.00  0.00    +0.000 A 
ATOM     40  C   UNL     1      -9.192   0.941 126.133  0.00  0.00    +0.000 A 
ATOM     41  C   UNL     1      -8.817  -0.505 126.065  0.00  0.00    +0.000 A 
ATOM     42  O   UNL     1      -9.581  -1.305 125.542  0.00  0.00    +0.000 OA
BRANCH  38  43
ATOM     43  C   UNL     1      -6.967   2.266 128.794  0.00  0.00    +0.000 C 
ATOM     44  F   UNL     1      -6.219   1.577 129.693  0.00  0.00    +0.000 F 
ATOM     45  F   UNL     1      -6.121   3.209 128.321  0.00  0.00    +0.000 F 
ATOM     46  F   UNL     1      -7.945   2.964 129.409  0.00  0.00    +0.000 F 
ENDBRANCH  38  43
ENDBRANCH  33  36
ENDBRANCH  29  30
ENDBRANCH   6  29
TORSDOF 6
ENDMDL
MODEL 9
REMARK VINA RESULT:     -10.8      4.781     12.571
REMARK  Name = CHEMBL30587
REMARK  6 active torsions:
REMARK  status: ('A' for Active; 'I' for Inactive)
REMARK    1  A    between atoms: C_2  and  C_3
REMARK    2  A    between atoms: C_8  and  C_9
REMARK    3  A    between atoms: C_9  and  N_10
REMARK    4  A    between atoms: C_13  and  N_14
REMARK    5  A    between atoms: C_16  and  C_17
REMARK    6  A    between atoms: C_33  and  N_34
REMARK                            x       y       z     vdW  Elec       q    Type
REMARK                         _______ _______ _______ _____ _____    ______ ____
ROOT
ATOM      1  C   UNL     1      -7.805   3.173 133.756  0.00  0.00    +0.000 A 
ATOM      2  C   UNL     1      -6.784   2.297 134.085  0.00  0.00    +0.000 A 
ATOM      3  C   UNL     1      -5.676   2.780 134.797  0.00  0.00    +0.000 A 
ATOM      4  C   UNL     1      -5.865   3.982 135.480  0.00  0.00    +0.000 A 
ATOM      5  O   UNL     1      -5.098   4.432 136.494  0.00  0.00    +0.000 OA
ATOM      6  C   UNL     1      -5.595   5.610 136.952  0.00  0.00    +0.000 A 
ATOM      7  C   UNL     1      -6.671   5.946 136.155  0.00  0.00    +0.000 A 
ATOM      8  C   UNL     1      -6.927   4.837 135.297  0.00  0.00    +0.000 A 
ATOM      9  C   UNL     1      -7.866   4.465 134.324  0.00  0.00    +0.000 A 
ENDROOT
BRANCH   1  11
ATOM     10  O   UNL     1      -9.800   2.171 133.011  0.00  0.00    +0.000 OA
ATOM     11  C   UNL     1      -8.781   2.777 132.708  0.00  0.00    +0.000 C 
ATOM     12  N   UNL     1      -8.465   3.243 131.423  0.00  0.00    +0.000 N 
ATOM     13  C   UNL     1      -7.269   2.738 130.737  0.00  0.00    +0.000 C 
ATOM     14  C   UNL     1      -6.716   3.763 129.765  0.00  0.00    +0.000 C 
ATOM     15  C   UNL     1      -7.838   3.916 128.404  0.00  0.00    +0.000 C 
ATOM     16  C   UNL     1      -9.025   4.624 129.480  0.00  0.00    +0.000 C 
ATOM     17  C   UNL     1      -9.544   3.644 130.530  0.00  0.00    +0.000 C 
BRANCH  15  18
ATOM     18  N   UNL     1      -7.715   2.650 127.042  0.00  0.00    +0.000 N 
ATOM     19  C   UNL     1      -7.770   3.874 126.260  0.00  0.00    +0.000 C 
ATOM     20  O   UNL     1      -7.073   4.944 126.375  0.00  0.00    +0.000 OA
ATOM     21  O   UNL     1      -8.752   3.995 125.410  0.00  0.00    +0.000 OA
ATOM     22  C   UNL     1      -8.018   3.648 124.299  0.00  0.00    +0.000 C 
ATOM     23  C   UNL     1      -8.574   2.316 124.373  0.00  0.00    +0.000 A 
ATOM     24  C   UNL     1      -9.430   1.993 123.191  0.00  0.00    +0.000 A 
ATOM     25  C   UNL     1      -9.879   0.763 122.811  0.00  0.00    +0.000 A 
ATOM     26  C   UNL     1      -9.158  -0.182 123.486  0.00  0.00    +0.000 A 
ATOM     27  C   UNL     1      -8.264   0.221 124.810  0.00  0.00    +0.000 A 
ATOM     28  C   UNL     1      -8.224   1.619 125.548  0.00  0.00    +0.000 A 
ENDBRANCH  15  18
ENDBRANCH   1  11
BRANCH   6  29
ATOM     29  C   UNL     1      -4.843   6.341 138.033  0.00  0.00    +0.000 C 
BRANCH  29  30
ATOM     30  N   UNL     1      -3.767   7.270 137.632  0.00  0.00    +0.000 NA
ATOM     31  C   UNL     1      -2.683   6.575 136.927  0.00  0.00    +0.000 C 
ATOM     32  C   UNL     1      -1.596   7.537 136.445  0.00  0.00    +0.000 C 
ATOM     33  C   UNL     1      -2.169   8.739 135.659  0.00  0.00    +0.000 C 
ATOM     34  C   UNL     1      -3.241   9.439 136.503  0.00  0.00    +0.000 C 
ATOM     35  C   UNL     1      -4.312   8.473 136.982  0.00  0.00    +0.000 C 
BRANCH  33  36
ATOM     36  N   UNL     1      -2.625   8.385 134.269  0.00  0.00    +0.000 N 
ATOM     37  C   UNL     1      -3.154   7.132 134.022  0.00  0.00    +0.000 A 
ATOM     38  C   UNL     1      -3.171   6.537 132.824  0.00  0.00    +0.000 A 
ATOM     39  C   UNL     1      -3.128   7.419 131.699  0.00  0.00    +0.000 A 
ATOM     40  C   UNL     1      -2.760   8.692 131.859  0.00  0.00    +0.000 A 
ATOM     41  C   UNL     1      -2.276   9.186 133.185  0.00  0.00    +0.000 A 
ATOM     42  O   UNL     1      -1.640  10.229 133.248  0.00  0.00    +0.000 OA
BRANCH  38  43
ATOM     43  C   UNL     1      -3.459   5.101 132.497  0.00  0.00    +0.000 C 
ATOM     44  F   UNL     1      -3.047   4.340 133.542  0.00  0.00    +0.000 F 
ATOM     45  F   UNL     1      -4.770   4.794 132.366  0.00  0.00    +0.000 F 
ATOM     46  F   UNL     1      -2.895   4.689 131.343  0.00  0.00    +0.000 F 
ENDBRANCH  38  43
ENDBRANCH  33  36
ENDBRANCH  29  30
ENDBRANCH   6  29
TORSDOF 6
ENDMDL
