MODEL 1
REMARK VINA RESULT:      -7.6      0.000      0.000
REMARK  Name = CHEMBL1093599
REMARK  11 active torsions:
REMARK  status: ('A' for Active; 'I' for Inactive)
REMARK    1  A    between atoms: C_1  and  O_2
REMARK    2  A    between atoms: O_2  and  C_3
REMARK    3  A    between atoms: C_3  and  C_4
REMARK    4  A    between atoms: C_4  and  N_5
REMARK    5  A    between atoms: N_5  and  C_22
REMARK    6  A    between atoms: C_6  and  C_8
REMARK    7  A    between atoms: C_11  and  C_12
REMARK    8  A    between atoms: C_16  and  C_17
REMARK    9  A    between atoms: C_18  and  C_19
REMARK   10  A    between atoms: C_25  and  O_26
REMARK   11  A    between atoms: O_26  and  C_27
REMARK                            x       y       z     vdW  Elec       q    Type
REMARK                         _______ _______ _______ _____ _____    ______ ____
ROOT
ATOM      1  N   UNL     1      -9.970   5.541 131.172  0.00  0.00    +0.000 N 
ATOM      2  C   UNL     1     -10.222   4.209 130.683  0.00  0.00    +0.000 C 
ATOM      3  O   UNL     1     -11.039   3.972 129.797  0.00  0.00    +0.000 OA
ENDROOT
BRANCH   2   4
ATOM      4  C   UNL     1      -9.480   3.000 131.164  0.00  0.00    +0.000 A 
ATOM      5  C   UNL     1      -8.126   2.825 130.933  0.00  0.00    +0.000 A 
ATOM      6  N   UNL     1      -7.503   1.618 131.079  0.00  0.00    +0.000 NA
ATOM      7  C   UNL     1      -8.242   0.613 131.621  0.00  0.00    +0.000 A 
ATOM      8  C   UNL     1      -9.534   0.883 132.061  0.00  0.00    +0.000 A 
ATOM      9  N   UNL     1     -10.202   2.037 131.792  0.00  0.00    +0.000 NA
BRANCH   7  10
ATOM     10  C   UNL     1      -7.592  -0.707 131.771  0.00  0.00    +0.000 A 
ATOM     11  C   UNL     1      -7.168  -1.078 133.062  0.00  0.00    +0.000 A 
ATOM     12  C   UNL     1      -6.663  -2.346 133.330  0.00  0.00    +0.000 A 
ATOM     13  C   UNL     1      -6.516  -3.264 132.296  0.00  0.00    +0.000 A 
ATOM     14  C   UNL     1      -6.860  -2.922 130.980  0.00  0.00    +0.000 A 
ATOM     15  C   UNL     1      -6.643  -3.948 129.897  0.00  0.00    +0.000 C 
ATOM     16  C   UNL     1      -7.407  -1.641 130.705  0.00  0.00    +0.000 A 
ATOM     17  C   UNL     1      -7.781  -1.281 129.283  0.00  0.00    +0.000 C 
ENDBRANCH   7  10
ENDBRANCH   2   4
BRANCH   1  18
ATOM     18  C   UNL     1     -10.847   6.599 130.685  0.00  0.00    +0.000 A 
ATOM     19  C   UNL     1     -12.049   6.910 131.324  0.00  0.00    +0.000 A 
ATOM     20  C   UNL     1     -12.858   7.955 130.861  0.00  0.00    +0.000 A 
ATOM     21  C   UNL     1     -12.475   8.668 129.736  0.00  0.00    +0.000 A 
ATOM     22  N   UNL     1     -11.343   8.372 129.066  0.00  0.00    +0.000 NA
ATOM     23  C   UNL     1     -10.557   7.371 129.559  0.00  0.00    +0.000 A 
BRANCH  21  24
ATOM     24  O   UNL     1     -13.175   9.717 129.203  0.00  0.00    +0.000 OA
ATOM     25  C   UNL     1     -13.418  10.823 130.065  0.00  0.00    +0.000 C 
ENDBRANCH  21  24
ENDBRANCH   1  18
BRANCH   1  26
ATOM     26  C   UNL     1      -8.900   6.022 132.137  0.00  0.00    +0.000 C 
BRANCH  26  27
ATOM     27  C   UNL     1      -7.642   6.569 131.502  0.00  0.00    +0.000 C 
BRANCH  27  29
ATOM     28  C   UNL     1      -5.817   5.675 130.442  0.00  0.00    +0.000 C 
ATOM     29  O   UNL     1      -7.177   6.125 130.237  0.00  0.00    +0.000 OA
ENDBRANCH  27  29
ENDBRANCH  26  27
ENDBRANCH   1  26
TORSDOF 7
ENDMDL
MODEL 2
REMARK VINA RESULT:      -7.5      1.071      1.849
REMARK  Name = CHEMBL1093599
REMARK  11 active torsions:
REMARK  status: ('A' for Active; 'I' for Inactive)
REMARK    1  A    between atoms: C_1  and  O_2
REMARK    2  A    between atoms: O_2  and  C_3
REMARK    3  A    between atoms: C_3  and  C_4
REMARK    4  A    between atoms: C_4  and  N_5
REMARK    5  A    between atoms: N_5  and  C_22
REMARK    6  A    between atoms: C_6  and  C_8
REMARK    7  A    between atoms: C_11  and  C_12
REMARK    8  A    between atoms: C_16  and  C_17
REMARK    9  A    between atoms: C_18  and  C_19
REMARK   10  A    between atoms: C_25  and  O_26
REMARK   11  A    between atoms: O_26  and  C_27
REMARK                            x       y       z     vdW  Elec       q    Type
REMARK                         _______ _______ _______ _____ _____    ______ ____
ROOT
ATOM      1  N   UNL     1      -9.846   5.540 130.293  0.00  0.00    +0.000 N 
ATOM      2  C   UNL     1     -10.383   4.203 130.279  0.00  0.00    +0.000 C 
ATOM      3  O   UNL     1     -11.539   3.958 129.942  0.00  0.00    +0.000 OA
ENDROOT
BRANCH   2   4
ATOM      4  C   UNL     1      -9.578   2.986 130.615  0.00  0.00    +0.000 A 
ATOM      5  C   UNL     1      -8.475   2.602 129.872  0.00  0.00    +0.000 A 
ATOM      6  N   UNL     1      -7.922   1.356 129.961  0.00  0.00    +0.000 NA
ATOM      7  C   UNL     1      -8.406   0.544 130.938  0.00  0.00    +0.000 A 
ATOM      8  C   UNL     1      -9.357   1.042 131.824  0.00  0.00    +0.000 A 
ATOM      9  N   UNL     1     -10.007   2.225 131.654  0.00  0.00    +0.000 NA
BRANCH   7  10
ATOM     10  C   UNL     1      -7.835  -0.816 131.041  0.00  0.00    +0.000 A 
ATOM     11  C   UNL     1      -8.166  -1.737 130.028  0.00  0.00    +0.000 A 
ATOM     12  C   UNL     1      -7.580  -2.998 129.966  0.00  0.00    +0.000 A 
ATOM     13  C   UNL     1      -6.684  -3.393 130.953  0.00  0.00    +0.000 A 
ATOM     14  C   UNL     1      -6.372  -2.539 132.021  0.00  0.00    +0.000 A 
ATOM     15  C   UNL     1      -5.422  -3.039 133.079  0.00  0.00    +0.000 C 
ATOM     16  C   UNL     1      -6.940  -1.239 132.073  0.00  0.00    +0.000 A 
ATOM     17  C   UNL     1      -6.594  -0.321 133.226  0.00  0.00    +0.000 C 
ENDBRANCH   7  10
ENDBRANCH   2   4
BRANCH   1  18
ATOM     18  C   UNL     1     -10.781   6.630 130.047  0.00  0.00    +0.000 A 
ATOM     19  C   UNL     1     -11.803   6.940 130.946  0.00  0.00    +0.000 A 
ATOM     20  C   UNL     1     -12.667   8.016 130.707  0.00  0.00    +0.000 A 
ATOM     21  C   UNL     1     -12.525   8.760 129.547  0.00  0.00    +0.000 A 
ATOM     22  N   UNL     1     -11.579   8.467 128.634  0.00  0.00    +0.000 NA
ATOM     23  C   UNL     1     -10.728   7.436 128.908  0.00  0.00    +0.000 A 
BRANCH  21  24
ATOM     24  O   UNL     1     -13.299   9.840 129.216  0.00  0.00    +0.000 OA
ATOM     25  C   UNL     1     -13.383  10.883 130.181  0.00  0.00    +0.000 C 
ENDBRANCH  21  24
ENDBRANCH   1  18
BRANCH   1  26
ATOM     26  C   UNL     1      -8.416   5.995 130.528  0.00  0.00    +0.000 C 
BRANCH  26  27
ATOM     27  C   UNL     1      -8.060   6.330 131.960  0.00  0.00    +0.000 C 
BRANCH  27  29
ATOM     28  C   UNL     1      -8.543   4.922 133.702  0.00  0.00    +0.000 C 
ATOM     29  O   UNL     1      -8.969   6.131 133.031  0.00  0.00    +0.000 OA
ENDBRANCH  27  29
ENDBRANCH  26  27
ENDBRANCH   1  26
TORSDOF 7
ENDMDL
MODEL 3
REMARK VINA RESULT:      -7.4      6.620      9.027
REMARK  Name = CHEMBL1093599
REMARK  11 active torsions:
REMARK  status: ('A' for Active; 'I' for Inactive)
REMARK    1  A    between atoms: C_1  and  O_2
REMARK    2  A    between atoms: O_2  and  C_3
REMARK    3  A    between atoms: C_3  and  C_4
REMARK    4  A    between atoms: C_4  and  N_5
REMARK    5  A    between atoms: N_5  and  C_22
REMARK    6  A    between atoms: C_6  and  C_8
REMARK    7  A    between atoms: C_11  and  C_12
REMARK    8  A    between atoms: C_16  and  C_17
REMARK    9  A    between atoms: C_18  and  C_19
REMARK   10  A    between atoms: C_25  and  O_26
REMARK   11  A    between atoms: O_26  and  C_27
REMARK                            x       y       z     vdW  Elec       q    Type
REMARK                         _______ _______ _______ _____ _____    ______ ____
ROOT
ATOM      1  N   UNL     1      -6.316   3.073 124.058  0.00  0.00    +0.000 N 
ATOM      2  C   UNL     1      -5.885   4.151 124.911  0.00  0.00    +0.000 C 
ATOM      3  O   UNL     1      -5.968   5.331 124.581  0.00  0.00    +0.000 OA
ENDROOT
BRANCH   2   4
ATOM      4  C   UNL     1      -5.348   3.944 126.294  0.00  0.00    +0.000 A 
ATOM      5  C   UNL     1      -6.093   4.231 127.425  0.00  0.00    +0.000 A 
ATOM      6  N   UNL     1      -5.534   4.349 128.666  0.00  0.00    +0.000 NA
ATOM      7  C   UNL     1      -4.221   4.011 128.777  0.00  0.00    +0.000 A 
ATOM      8  C   UNL     1      -3.557   3.500 127.667  0.00  0.00    +0.000 A 
ATOM      9  N   UNL     1      -4.065   3.514 126.405  0.00  0.00    +0.000 NA
BRANCH   7  10
ATOM     10  C   UNL     1      -3.592   4.148 130.108  0.00  0.00    +0.000 A 
ATOM     11  C   UNL     1      -3.939   3.201 131.091  0.00  0.00    +0.000 A 
ATOM     12  C   UNL     1      -3.308   3.168 132.330  0.00  0.00    +0.000 A 
ATOM     13  C   UNL     1      -2.346   4.121 132.642  0.00  0.00    +0.000 A 
ATOM     14  C   UNL     1      -2.012   5.128 131.725  0.00  0.00    +0.000 A 
ATOM     15  C   UNL     1      -0.988   6.156 132.136  0.00  0.00    +0.000 C 
ATOM     16  C   UNL     1      -2.628   5.148 130.445  0.00  0.00    +0.000 A 
ATOM     17  C   UNL     1      -2.257   6.235 129.459  0.00  0.00    +0.000 C 
ENDBRANCH   7  10
ENDBRANCH   2   4
BRANCH   1  18
ATOM     18  C   UNL     1      -6.713   3.425 122.700  0.00  0.00    +0.000 A 
ATOM     19  C   UNL     1      -5.778   3.804 121.735  0.00  0.00    +0.000 A 
ATOM     20  C   UNL     1      -6.179   4.102 120.426  0.00  0.00    +0.000 A 
ATOM     21  C   UNL     1      -7.523   4.051 120.096  0.00  0.00    +0.000 A 
ATOM     22  N   UNL     1      -8.461   3.731 121.009  0.00  0.00    +0.000 NA
ATOM     23  C   UNL     1      -8.041   3.412 122.267  0.00  0.00    +0.000 A 
BRANCH  21  24
ATOM     24  O   UNL     1      -8.029   4.305 118.849  0.00  0.00    +0.000 OA
ATOM     25  C   UNL     1      -9.447   4.319 118.728  0.00  0.00    +0.000 C 
ENDBRANCH  21  24
ENDBRANCH   1  18
BRANCH   1  26
ATOM     26  C   UNL     1      -6.427   1.590 124.368  0.00  0.00    +0.000 C 
BRANCH  26  27
ATOM     27  C   UNL     1      -7.625   1.180 125.194  0.00  0.00    +0.000 C 
BRANCH  27  29
ATOM     28  C   UNL     1      -8.515  -0.162 123.563  0.00  0.00    +0.000 C 
ATOM     29  O   UNL     1      -8.300  -0.052 124.990  0.00  0.00    +0.000 OA
ENDBRANCH  27  29
ENDBRANCH  26  27
ENDBRANCH   1  26
TORSDOF 7
ENDMDL
MODEL 4
REMARK VINA RESULT:      -7.3      6.512      7.893
REMARK  Name = CHEMBL1093599
REMARK  11 active torsions:
REMARK  status: ('A' for Active; 'I' for Inactive)
REMARK    1  A    between atoms: C_1  and  O_2
REMARK    2  A    between atoms: O_2  and  C_3
REMARK    3  A    between atoms: C_3  and  C_4
REMARK    4  A    between atoms: C_4  and  N_5
REMARK    5  A    between atoms: N_5  and  C_22
REMARK    6  A    between atoms: C_6  and  C_8
REMARK    7  A    between atoms: C_11  and  C_12
REMARK    8  A    between atoms: C_16  and  C_17
REMARK    9  A    between atoms: C_18  and  C_19
REMARK   10  A    between atoms: C_25  and  O_26
REMARK   11  A    between atoms: O_26  and  C_27
REMARK                            x       y       z     vdW  Elec       q    Type
REMARK                         _______ _______ _______ _____ _____    ______ ____
ROOT
ATOM      1  N   UNL     1      -7.011   2.225 123.685  0.00  0.00    +0.000 N 
ATOM      2  C   UNL     1      -7.024   0.785 123.679  0.00  0.00    +0.000 C 
ATOM      3  O   UNL     1      -6.958   0.126 122.645  0.00  0.00    +0.000 OA
ENDROOT
BRANCH   2   4
ATOM      4  C   UNL     1      -7.062  -0.045 124.926  0.00  0.00    +0.000 A 
ATOM      5  C   UNL     1      -8.228  -0.630 125.388  0.00  0.00    +0.000 A 
ATOM      6  N   UNL     1      -8.356  -1.118 126.658  0.00  0.00    +0.000 NA
ATOM      7  C   UNL     1      -7.227  -1.150 127.414  0.00  0.00    +0.000 A 
ATOM      8  C   UNL     1      -6.016  -0.771 126.841  0.00  0.00    +0.000 A 
ATOM      9  N   UNL     1      -5.908  -0.158 125.632  0.00  0.00    +0.000 NA
BRANCH   7  10
ATOM     10  C   UNL     1      -7.346  -1.657 128.798  0.00  0.00    +0.000 A 
ATOM     11  C   UNL     1      -7.098  -3.027 129.011  0.00  0.00    +0.000 A 
ATOM     12  C   UNL     1      -7.061  -3.574 130.290  0.00  0.00    +0.000 A 
ATOM     13  C   UNL     1      -7.327  -2.771 131.392  0.00  0.00    +0.000 A 
ATOM     14  C   UNL     1      -7.647  -1.415 131.231  0.00  0.00    +0.000 A 
ATOM     15  C   UNL     1      -7.962  -0.605 132.463  0.00  0.00    +0.000 C 
ATOM     16  C   UNL     1      -7.654  -0.842 129.931  0.00  0.00    +0.000 A 
ATOM     17  C   UNL     1      -7.995   0.623 129.767  0.00  0.00    +0.000 C 
ENDBRANCH   7  10
ENDBRANCH   2   4
BRANCH   1  18
ATOM     18  C   UNL     1      -7.082   2.891 122.390  0.00  0.00    +0.000 A 
ATOM     19  C   UNL     1      -8.303   3.194 121.784  0.00  0.00    +0.000 A 
ATOM     20  C   UNL     1      -8.346   3.868 120.557  0.00  0.00    +0.000 A 
ATOM     21  C   UNL     1      -7.163   4.208 119.922  0.00  0.00    +0.000 A 
ATOM     22  N   UNL     1      -5.964   3.896 120.453  0.00  0.00    +0.000 NA
ATOM     23  C   UNL     1      -5.950   3.270 121.666  0.00  0.00    +0.000 A 
BRANCH  21  24
ATOM     24  O   UNL     1      -7.083   4.879 118.732  0.00  0.00    +0.000 OA
ATOM     25  C   UNL     1      -5.934   5.697 118.538  0.00  0.00    +0.000 C 
ENDBRANCH  21  24
ENDBRANCH   1  18
BRANCH   1  26
ATOM     26  C   UNL     1      -6.929   3.178 124.865  0.00  0.00    +0.000 C 
BRANCH  26  27
ATOM     27  C   UNL     1      -8.238   3.799 125.299  0.00  0.00    +0.000 C 
BRANCH  27  29
ATOM     28  C   UNL     1      -7.504   3.658 127.466  0.00  0.00    +0.000 C 
ATOM     29  O   UNL     1      -8.418   4.360 126.591  0.00  0.00    +0.000 OA
ENDBRANCH  27  29
ENDBRANCH  26  27
ENDBRANCH   1  26
TORSDOF 7
ENDMDL
MODEL 5
REMARK VINA RESULT:      -7.0      5.828      7.290
REMARK  Name = CHEMBL1093599
REMARK  11 active torsions:
REMARK  status: ('A' for Active; 'I' for Inactive)
REMARK    1  A    between atoms: C_1  and  O_2
REMARK    2  A    between atoms: O_2  and  C_3
REMARK    3  A    between atoms: C_3  and  C_4
REMARK    4  A    between atoms: C_4  and  N_5
REMARK    5  A    between atoms: N_5  and  C_22
REMARK    6  A    between atoms: C_6  and  C_8
REMARK    7  A    between atoms: C_11  and  C_12
REMARK    8  A    between atoms: C_16  and  C_17
REMARK    9  A    between atoms: C_18  and  C_19
REMARK   10  A    between atoms: C_25  and  O_26
REMARK   11  A    between atoms: O_26  and  C_27
REMARK                            x       y       z     vdW  Elec       q    Type
REMARK                         _______ _______ _______ _____ _____    ______ ____
ROOT
ATOM      1  N   UNL     1      -7.317   1.178 125.263  0.00  0.00    +0.000 N 
ATOM      2  C   UNL     1      -6.878  -0.187 125.125  0.00  0.00    +0.000 C 
ATOM      3  O   UNL     1      -6.565  -0.676 124.044  0.00  0.00    +0.000 OA
ENDROOT
BRANCH   2   4
ATOM      4  C   UNL     1      -6.708  -1.120 126.285  0.00  0.00    +0.000 A 
ATOM      5  C   UNL     1      -7.755  -1.875 126.785  0.00  0.00    +0.000 A 
ATOM      6  N   UNL     1      -7.709  -2.481 128.008  0.00  0.00    +0.000 NA
ATOM      7  C   UNL     1      -6.516  -2.447 128.660  0.00  0.00    +0.000 A 
ATOM      8  C   UNL     1      -5.414  -1.882 128.027  0.00  0.00    +0.000 A 
ATOM      9  N   UNL     1      -5.487  -1.158 126.878  0.00  0.00    +0.000 NA
BRANCH   7  10
ATOM     10  C   UNL     1      -6.449  -3.082 129.994  0.00  0.00    +0.000 A 
ATOM     11  C   UNL     1      -5.673  -4.250 130.118  0.00  0.00    +0.000 A 
ATOM     12  C   UNL     1      -5.444  -4.849 131.353  0.00  0.00    +0.000 A 
ATOM     13  C   UNL     1      -6.035  -4.323 132.496  0.00  0.00    +0.000 A 
ATOM     14  C   UNL     1      -6.872  -3.201 132.419  0.00  0.00    +0.000 A 
ATOM     15  C   UNL     1      -7.513  -2.700 133.688  0.00  0.00    +0.000 C 
ATOM     16  C   UNL     1      -7.084  -2.565 131.166  0.00  0.00    +0.000 A 
ATOM     17  C   UNL     1      -7.984  -1.351 131.092  0.00  0.00    +0.000 C 
ENDBRANCH   7  10
ENDBRANCH   2   4
BRANCH   1  18
ATOM     18  C   UNL     1      -7.536   1.927 124.032  0.00  0.00    +0.000 A 
ATOM     19  C   UNL     1      -6.517   2.668 123.431  0.00  0.00    +0.000 A 
ATOM     20  C   UNL     1      -6.740   3.350 122.228  0.00  0.00    +0.000 A 
ATOM     21  C   UNL     1      -7.997   3.315 121.646  0.00  0.00    +0.000 A 
ATOM     22  N   UNL     1      -9.019   2.647 122.217  0.00  0.00    +0.000 NA
ATOM     23  C   UNL     1      -8.765   1.963 123.371  0.00  0.00    +0.000 A 
BRANCH  21  24
ATOM     24  O   UNL     1      -8.327   3.929 120.468  0.00  0.00    +0.000 OA
ATOM     25  C   UNL     1      -7.249   4.261 119.600  0.00  0.00    +0.000 C 
ENDBRANCH  21  24
ENDBRANCH   1  18
BRANCH   1  26
ATOM     26  C   UNL     1      -7.588   1.975 126.527  0.00  0.00    +0.000 C 
BRANCH  26  27
ATOM     27  C   UNL     1      -6.384   2.643 127.153  0.00  0.00    +0.000 C 
BRANCH  27  29
ATOM     28  C   UNL     1      -6.574   1.497 129.129  0.00  0.00    +0.000 C 
ATOM     29  O   UNL     1      -5.621   2.022 128.175  0.00  0.00    +0.000 OA
ENDBRANCH  27  29
ENDBRANCH  26  27
ENDBRANCH   1  26
TORSDOF 7
ENDMDL
MODEL 6
REMARK VINA RESULT:      -7.0      1.642      2.382
REMARK  Name = CHEMBL1093599
REMARK  11 active torsions:
REMARK  status: ('A' for Active; 'I' for Inactive)
REMARK    1  A    between atoms: C_1  and  O_2
REMARK    2  A    between atoms: O_2  and  C_3
REMARK    3  A    between atoms: C_3  and  C_4
REMARK    4  A    between atoms: C_4  and  N_5
REMARK    5  A    between atoms: N_5  and  C_22
REMARK    6  A    between atoms: C_6  and  C_8
REMARK    7  A    between atoms: C_11  and  C_12
REMARK    8  A    between atoms: C_16  and  C_17
REMARK    9  A    between atoms: C_18  and  C_19
REMARK   10  A    between atoms: C_25  and  O_26
REMARK   11  A    between atoms: O_26  and  C_27
REMARK                            x       y       z     vdW  Elec       q    Type
REMARK                         _______ _______ _______ _____ _____    ______ ____
ROOT
ATOM      1  N   UNL     1      -9.717   5.402 130.248  0.00  0.00    +0.000 N 
ATOM      2  C   UNL     1     -10.338   4.109 130.376  0.00  0.00    +0.000 C 
ATOM      3  O   UNL     1     -11.496   3.893 130.031  0.00  0.00    +0.000 OA
ENDROOT
BRANCH   2   4
ATOM      4  C   UNL     1      -9.621   2.897 130.887  0.00  0.00    +0.000 A 
ATOM      5  C   UNL     1      -9.610   2.557 132.229  0.00  0.00    +0.000 A 
ATOM      6  N   UNL     1      -8.726   1.657 132.755  0.00  0.00    +0.000 NA
ATOM      7  C   UNL     1      -7.949   0.979 131.869  0.00  0.00    +0.000 A 
ATOM      8  C   UNL     1      -8.148   1.172 130.505  0.00  0.00    +0.000 A 
ATOM      9  N   UNL     1      -8.923   2.162 129.985  0.00  0.00    +0.000 NA
BRANCH   7  10
ATOM     10  C   UNL     1      -6.973   0.012 132.418  0.00  0.00    +0.000 A 
ATOM     11  C   UNL     1      -7.457  -1.256 132.794  0.00  0.00    +0.000 A 
ATOM     12  C   UNL     1      -6.600  -2.274 133.201  0.00  0.00    +0.000 A 
ATOM     13  C   UNL     1      -5.235  -2.032 133.295  0.00  0.00    +0.000 A 
ATOM     14  C   UNL     1      -4.709  -0.766 132.997  0.00  0.00    +0.000 A 
ATOM     15  C   UNL     1      -3.224  -0.556 133.154  0.00  0.00    +0.000 C 
ATOM     16  C   UNL     1      -5.573   0.268 132.549  0.00  0.00    +0.000 A 
ATOM     17  C   UNL     1      -4.997   1.630 132.225  0.00  0.00    +0.000 C 
ENDBRANCH   7  10
ENDBRANCH   2   4
BRANCH   1  18
ATOM     18  C   UNL     1     -10.573   6.508 129.836  0.00  0.00    +0.000 A 
ATOM     19  C   UNL     1     -10.432   7.124 128.591  0.00  0.00    +0.000 A 
ATOM     20  C   UNL     1     -11.291   8.159 128.202  0.00  0.00    +0.000 A 
ATOM     21  C   UNL     1     -12.271   8.598 129.077  0.00  0.00    +0.000 A 
ATOM     22  N   UNL     1     -12.413   8.059 130.304  0.00  0.00    +0.000 NA
ATOM     23  C   UNL     1     -11.585   7.029 130.645  0.00  0.00    +0.000 A 
BRANCH  21  24
ATOM     24  O   UNL     1     -13.175   9.589 128.801  0.00  0.00    +0.000 OA
ATOM     25  C   UNL     1     -13.358  10.581 129.805  0.00  0.00    +0.000 C 
ENDBRANCH  21  24
ENDBRANCH   1  18
BRANCH   1  26
ATOM     26  C   UNL     1      -8.268   5.797 130.477  0.00  0.00    +0.000 C 
BRANCH  26  27
ATOM     27  C   UNL     1      -7.965   6.434 131.815  0.00  0.00    +0.000 C 
BRANCH  27  29
ATOM     28  C   UNL     1      -8.110   5.488 133.897  0.00  0.00    +0.000 C 
ATOM     29  O   UNL     1      -8.827   6.293 132.933  0.00  0.00    +0.000 OA
ENDBRANCH  27  29
ENDBRANCH  26  27
ENDBRANCH   1  26
TORSDOF 7
ENDMDL
MODEL 7
REMARK VINA RESULT:      -7.0      5.854      8.956
REMARK  Name = CHEMBL1093599
REMARK  11 active torsions:
REMARK  status: ('A' for Active; 'I' for Inactive)
REMARK    1  A    between atoms: C_1  and  O_2
REMARK    2  A    between atoms: O_2  and  C_3
REMARK    3  A    between atoms: C_3  and  C_4
REMARK    4  A    between atoms: C_4  and  N_5
REMARK    5  A    between atoms: N_5  and  C_22
REMARK    6  A    between atoms: C_6  and  C_8
REMARK    7  A    between atoms: C_11  and  C_12
REMARK    8  A    between atoms: C_16  and  C_17
REMARK    9  A    between atoms: C_18  and  C_19
REMARK   10  A    between atoms: C_25  and  O_26
REMARK   11  A    between atoms: O_26  and  C_27
REMARK                            x       y       z     vdW  Elec       q    Type
REMARK                         _______ _______ _______ _____ _____    ______ ____
ROOT
ATOM      1  N   UNL     1      -2.877   5.732 130.563  0.00  0.00    +0.000 N 
ATOM      2  C   UNL     1      -2.839   6.005 129.149  0.00  0.00    +0.000 C 
ATOM      3  O   UNL     1      -2.149   6.899 128.666  0.00  0.00    +0.000 OA
ENDROOT
BRANCH   2   4
ATOM      4  C   UNL     1      -3.585   5.198 128.131  0.00  0.00    +0.000 A 
ATOM      5  C   UNL     1      -2.942   4.352 127.244  0.00  0.00    +0.000 A 
ATOM      6  N   UNL     1      -3.549   3.855 126.126  0.00  0.00    +0.000 NA
ATOM      7  C   UNL     1      -4.880   4.100 125.997  0.00  0.00    +0.000 A 
ATOM      8  C   UNL     1      -5.552   4.755 127.025  0.00  0.00    +0.000 A 
ATOM      9  N   UNL     1      -4.930   5.370 128.067  0.00  0.00    +0.000 NA
BRANCH   7  10
ATOM     10  C   UNL     1      -5.554   3.587 124.785  0.00  0.00    +0.000 A 
ATOM     11  C   UNL     1      -5.462   4.363 123.613  0.00  0.00    +0.000 A 
ATOM     12  C   UNL     1      -5.952   3.907 122.393  0.00  0.00    +0.000 A 
ATOM     13  C   UNL     1      -6.600   2.679 122.325  0.00  0.00    +0.000 A 
ATOM     14  C   UNL     1      -6.779   1.897 123.475  0.00  0.00    +0.000 A 
ATOM     15  C   UNL     1      -7.523   0.593 123.342  0.00  0.00    +0.000 C 
ATOM     16  C   UNL     1      -6.253   2.341 124.717  0.00  0.00    +0.000 A 
ATOM     17  C   UNL     1      -6.445   1.489 125.953  0.00  0.00    +0.000 C 
ENDBRANCH   7  10
ENDBRANCH   2   4
BRANCH   1  18
ATOM     18  C   UNL     1      -2.184   6.671 131.436  0.00  0.00    +0.000 A 
ATOM     19  C   UNL     1      -2.797   7.839 131.894  0.00  0.00    +0.000 A 
ATOM     20  C   UNL     1      -2.125   8.708 132.763  0.00  0.00    +0.000 A 
ATOM     21  C   UNL     1      -0.825   8.420 133.145  0.00  0.00    +0.000 A 
ATOM     22  N   UNL     1      -0.183   7.326 132.691  0.00  0.00    +0.000 NA
ATOM     23  C   UNL     1      -0.873   6.478 131.874  0.00  0.00    +0.000 A 
BRANCH  21  24
ATOM     24  O   UNL     1      -0.077   9.186 133.999  0.00  0.00    +0.000 OA
ATOM     25  C   UNL     1       0.703  10.220 133.409  0.00  0.00    +0.000 C 
ENDBRANCH  21  24
ENDBRANCH   1  18
BRANCH   1  26
ATOM     26  C   UNL     1      -3.544   4.582 131.299  0.00  0.00    +0.000 C 
BRANCH  26  27
ATOM     27  C   UNL     1      -4.904   4.881 131.889  0.00  0.00    +0.000 C 
BRANCH  27  29
ATOM     28  C   UNL     1      -6.323   6.623 131.437  0.00  0.00    +0.000 C 
ATOM     29  O   UNL     1      -6.012   5.254 131.085  0.00  0.00    +0.000 OA
ENDBRANCH  27  29
ENDBRANCH  26  27
ENDBRANCH   1  26
TORSDOF 7
ENDMDL
MODEL 8
REMARK VINA RESULT:      -6.9      2.030      3.501
REMARK  Name = CHEMBL1093599
REMARK  11 active torsions:
REMARK  status: ('A' for Active; 'I' for Inactive)
REMARK    1  A    between atoms: C_1  and  O_2
REMARK    2  A    between atoms: O_2  and  C_3
REMARK    3  A    between atoms: C_3  and  C_4
REMARK    4  A    between atoms: C_4  and  N_5
REMARK    5  A    between atoms: N_5  and  C_22
REMARK    6  A    between atoms: C_6  and  C_8
REMARK    7  A    between atoms: C_11  and  C_12
REMARK    8  A    between atoms: C_16  and  C_17
REMARK    9  A    between atoms: C_18  and  C_19
REMARK   10  A    between atoms: C_25  and  O_26
REMARK   11  A    between atoms: O_26  and  C_27
REMARK                            x       y       z     vdW  Elec       q    Type
REMARK                         _______ _______ _______ _____ _____    ______ ____
ROOT
ATOM      1  N   UNL     1      -8.860   3.173 131.199  0.00  0.00    +0.000 N 
ATOM      2  C   UNL     1      -9.259   1.934 131.817  0.00  0.00    +0.000 C 
ATOM      3  O   UNL     1     -10.384   1.754 132.276  0.00  0.00    +0.000 OA
ENDROOT
BRANCH   2   4
ATOM      4  C   UNL     1      -8.367   0.733 131.909  0.00  0.00    +0.000 A 
ATOM      5  C   UNL     1      -8.469  -0.331 131.031  0.00  0.00    +0.000 A 
ATOM      6  N   UNL     1      -7.898  -1.547 131.276  0.00  0.00    +0.000 NA
ATOM      7  C   UNL     1      -7.079  -1.628 132.358  0.00  0.00    +0.000 A 
ATOM      8  C   UNL     1      -6.809  -0.477 133.091  0.00  0.00    +0.000 A 
ATOM      9  N   UNL     1      -7.481   0.696 132.937  0.00  0.00    +0.000 NA
BRANCH   7  10
ATOM     10  C   UNL     1      -6.463  -2.940 132.652  0.00  0.00    +0.000 A 
ATOM     11  C   UNL     1      -5.366  -3.334 131.862  0.00  0.00    +0.000 A 
ATOM     12  C   UNL     1      -4.641  -4.488 132.141  0.00  0.00    +0.000 A 
ATOM     13  C   UNL     1      -5.031  -5.313 133.190  0.00  0.00    +0.000 A 
ATOM     14  C   UNL     1      -6.158  -5.003 133.965  0.00  0.00    +0.000 A 
ATOM     15  C   UNL     1      -6.551  -5.956 135.065  0.00  0.00    +0.000 C 
ATOM     16  C   UNL     1      -6.883  -3.809 133.708  0.00  0.00    +0.000 A 
ATOM     17  C   UNL     1      -8.094  -3.478 134.552  0.00  0.00    +0.000 C 
ENDBRANCH   7  10
ENDBRANCH   2   4
BRANCH   1  18
ATOM     18  C   UNL     1      -9.801   4.283 131.282  0.00  0.00    +0.000 A 
ATOM     19  C   UNL     1      -9.747   5.217 132.319  0.00  0.00    +0.000 A 
ATOM     20  C   UNL     1     -10.637   6.298 132.357  0.00  0.00    +0.000 A 
ATOM     21  C   UNL     1     -11.603   6.422 131.372  0.00  0.00    +0.000 A 
ATOM     22  N   UNL     1     -11.715   5.519 130.378  0.00  0.00    +0.000 NA
ATOM     23  C   UNL     1     -10.813   4.495 130.345  0.00  0.00    +0.000 A 
BRANCH  21  24
ATOM     24  O   UNL     1     -12.513   7.442 131.298  0.00  0.00    +0.000 OA
ATOM     25  C   UNL     1     -12.586   8.143 130.061  0.00  0.00    +0.000 C 
ENDBRANCH  21  24
ENDBRANCH   1  18
BRANCH   1  26
ATOM     26  C   UNL     1      -7.579   3.503 130.453  0.00  0.00    +0.000 C 
BRANCH  26  27
ATOM     27  C   UNL     1      -7.595   3.223 128.967  0.00  0.00    +0.000 C 
BRANCH  27  29
ATOM     28  C   UNL     1      -8.305   1.384 127.797  0.00  0.00    +0.000 C 
ATOM     29  O   UNL     1      -8.726   2.670 128.312  0.00  0.00    +0.000 OA
ENDBRANCH  27  29
ENDBRANCH  26  27
ENDBRANCH   1  26
TORSDOF 7
ENDMDL
MODEL 9
REMARK VINA RESULT:      -6.8      1.602      2.478
REMARK  Name = CHEMBL1093599
REMARK  11 active torsions:
REMARK  status: ('A' for Active; 'I' for Inactive)
REMARK    1  A    between atoms: C_1  and  O_2
REMARK    2  A    between atoms: O_2  and  C_3
REMARK    3  A    between atoms: C_3  and  C_4
REMARK    4  A    between atoms: C_4  and  N_5
REMARK    5  A    between atoms: N_5  and  C_22
REMARK    6  A    between atoms: C_6  and  C_8
REMARK    7  A    between atoms: C_11  and  C_12
REMARK    8  A    between atoms: C_16  and  C_17
REMARK    9  A    between atoms: C_18  and  C_19
REMARK   10  A    between atoms: C_25  and  O_26
REMARK   11  A    between atoms: O_26  and  C_27
REMARK                            x       y       z     vdW  Elec       q    Type
REMARK                         _______ _______ _______ _____ _____    ______ ____
ROOT
ATOM      1  N   UNL     1      -9.097   3.945 131.249  0.00  0.00    +0.000 N 
ATOM      2  C   UNL     1      -8.837   2.825 130.381  0.00  0.00    +0.000 C 
ATOM      3  O   UNL     1      -9.023   2.871 129.168  0.00  0.00    +0.000 OA
ENDROOT
BRANCH   2   4
ATOM      4  C   UNL     1      -8.267   1.525 130.859  0.00  0.00    +0.000 A 
ATOM      5  C   UNL     1      -6.918   1.232 130.766  0.00  0.00    +0.000 A 
ATOM      6  N   UNL     1      -6.427  -0.036 130.900  0.00  0.00    +0.000 NA
ATOM      7  C   UNL     1      -7.311  -0.992 131.292  0.00  0.00    +0.000 A 
ATOM      8  C   UNL     1      -8.615  -0.622 131.606  0.00  0.00    +0.000 A 
ATOM      9  N   UNL     1      -9.141   0.604 131.341  0.00  0.00    +0.000 NA
BRANCH   7  10
ATOM     10  C   UNL     1      -6.805  -2.375 131.426  0.00  0.00    +0.000 A 
ATOM     11  C   UNL     1      -6.524  -3.082 130.240  0.00  0.00    +0.000 A 
ATOM     12  C   UNL     1      -5.927  -4.338 130.261  0.00  0.00    +0.000 A 
ATOM     13  C   UNL     1      -5.644  -4.948 131.478  0.00  0.00    +0.000 A 
ATOM     14  C   UNL     1      -5.965  -4.317 132.688  0.00  0.00    +0.000 A 
ATOM     15  C   UNL     1      -5.667  -5.046 133.974  0.00  0.00    +0.000 C 
ATOM     16  C   UNL     1      -6.545  -3.021 132.675  0.00  0.00    +0.000 A 
ATOM     17  C   UNL     1      -6.884  -2.344 133.985  0.00  0.00    +0.000 C 
ENDBRANCH   7  10
ENDBRANCH   2   4
BRANCH   1  18
ATOM     18  C   UNL     1      -9.752   5.103 130.653  0.00  0.00    +0.000 A 
ATOM     19  C   UNL     1     -11.141   5.179 130.527  0.00  0.00    +0.000 A 
ATOM     20  C   UNL     1     -11.751   6.318 129.986  0.00  0.00    +0.000 A 
ATOM     21  C   UNL     1     -10.964   7.368 129.541  0.00  0.00    +0.000 A 
ATOM     22  N   UNL     1      -9.618   7.316 129.606  0.00  0.00    +0.000 NA
ATOM     23  C   UNL     1      -9.052   6.210 130.169  0.00  0.00    +0.000 A 
BRANCH  21  24
ATOM     24  O   UNL     1     -11.448   8.533 129.010  0.00  0.00    +0.000 OA
ATOM     25  C   UNL     1     -12.691   8.998 129.524  0.00  0.00    +0.000 C 
ENDBRANCH  21  24
ENDBRANCH   1  18
BRANCH   1  26
ATOM     26  C   UNL     1      -8.780   4.107 132.725  0.00  0.00    +0.000 C 
BRANCH  26  27
ATOM     27  C   UNL     1      -7.341   4.433 133.056  0.00  0.00    +0.000 C 
BRANCH  27  29
ATOM     28  C   UNL     1      -5.966   6.096 132.283  0.00  0.00    +0.000 C 
ATOM     29  O   UNL     1      -6.382   4.729 132.052  0.00  0.00    +0.000 OA
ENDBRANCH  27  29
ENDBRANCH  26  27
ENDBRANCH   1  26
TORSDOF 7
ENDMDL
