MODEL 1
REMARK VINA RESULT:     -10.3      0.000      0.000
REMARK  Name = CHEMBL69265
REMARK  9 active torsions:
REMARK  status: ('A' for Active; 'I' for Inactive)
REMARK    1  A    between atoms: C_1  and  O_2
REMARK    2  A    between atoms: O_2  and  C_3
REMARK    3  A    between atoms: C_5  and  O_6
REMARK    4  A    between atoms: O_6  and  C_7
REMARK    5  A    between atoms: N_10  and  C_11
REMARK    6  A    between atoms: C_11  and  C_12
REMARK    7  A    between atoms: C_18  and  C_19
REMARK    8  A    between atoms: C_27  and  C_28
REMARK    9  A    between atoms: C_33  and  N_34
REMARK                            x       y       z     vdW  Elec       q    Type
REMARK                         _______ _______ _______ _____ _____    ______ ____
ROOT
ATOM      1  C   UNL     1      -7.069   1.413 133.008  0.00  0.00    +0.000 A 
ATOM      2  C   UNL     1      -7.301   2.855 133.021  0.00  0.00    +0.000 A 
ATOM      3  C   UNL     1      -6.274   3.728 133.146  0.00  0.00    +0.000 A 
ATOM      4  C   UNL     1      -5.165   3.040 133.497  0.00  0.00    +0.000 A 
ATOM      5  C   UNL     1      -4.872   1.669 133.283  0.00  0.00    +0.000 A 
ATOM      6  C   UNL     1      -5.818   0.762 133.055  0.00  0.00    +0.000 A 
ENDROOT
BRANCH   6   7
ATOM      7  C   UNL     1      -5.210  -0.675 133.008  0.00  0.00    +0.000 C 
ATOM      8  O   UNL     1      -4.659  -1.154 134.009  0.00  0.00    +0.000 OA
ATOM      9  N   UNL     1      -5.346  -1.451 131.839  0.00  0.00    +0.000 N 
ATOM     10  C   UNL     1      -6.421  -2.499 131.806  0.00  0.00    +0.000 C 
ATOM     11  C   UNL     1      -6.178  -3.505 130.686  0.00  0.00    +0.000 C 
ATOM     12  C   UNL     1      -6.158  -2.767 129.020  0.00  0.00    +0.000 C 
ATOM     13  C   UNL     1      -4.746  -1.783 129.419  0.00  0.00    +0.000 C 
ATOM     14  C   UNL     1      -4.989  -0.806 130.567  0.00  0.00    +0.000 C 
BRANCH  12  15
ATOM     15  N   UNL     1      -7.365  -3.047 127.608  0.00  0.00    +0.000 N 
ATOM     16  C   UNL     1      -7.692  -1.696 127.868  0.00  0.00    +0.000 C 
ATOM     17  O   UNL     1      -8.105  -1.178 128.938  0.00  0.00    +0.000 OA
ATOM     18  O   UNL     1      -7.252  -0.881 126.923  0.00  0.00    +0.000 OA
ATOM     19  C   UNL     1      -8.443  -0.772 126.256  0.00  0.00    +0.000 C 
ATOM     20  C   UNL     1      -8.093  -1.754 125.226  0.00  0.00    +0.000 A 
ATOM     21  C   UNL     1      -8.480  -1.153 123.872  0.00  0.00    +0.000 A 
ATOM     22  C   UNL     1      -9.054  -1.788 122.813  0.00  0.00    +0.000 A 
ATOM     23  C   UNL     1      -9.264  -3.093 123.180  0.00  0.00    +0.000 A 
ATOM     24  C   UNL     1      -8.763  -3.725 124.652  0.00  0.00    +0.000 A 
ATOM     25  C   UNL     1      -7.893  -3.036 125.813  0.00  0.00    +0.000 A 
ENDBRANCH  12  15
ENDBRANCH   6   7
BRANCH   1  27
ATOM     26  C   UNL     1      -8.997   1.298 131.905  0.00  0.00    +0.000 C 
ATOM     27  O   UNL     1      -8.274   0.773 132.986  0.00  0.00    +0.000 OA
ENDBRANCH   1  27
BRANCH   3  28
ATOM     28  O   UNL     1      -6.245   5.075 132.850  0.00  0.00    +0.000 OA
BRANCH  28  29
ATOM     29  C   UNL     1      -5.764   5.620 131.519  0.00  0.00    +0.000 C 
ATOM     30  C   UNL     1      -6.274   7.041 131.223  0.00  0.00    +0.000 C 
ATOM     31  C   UNL     1      -7.737   6.991 130.807  0.00  0.00    +0.000 C 
ATOM     32  N   UNL     1      -8.057   5.880 129.789  0.00  0.00    +0.000 NA
ATOM     33  C   UNL     1      -7.310   4.582 129.844  0.00  0.00    +0.000 C 
ATOM     34  C   UNL     1      -5.896   4.759 130.245  0.00  0.00    +0.000 C 
BRANCH  32  35
ATOM     35  C   UNL     1      -9.488   5.556 129.780  0.00  0.00    +0.000 C 
BRANCH  35  36
ATOM     36  C   UNL     1     -10.425   6.547 129.239  0.00  0.00    +0.000 A 
ATOM     37  C   UNL     1     -10.369   6.798 127.847  0.00  0.00    +0.000 A 
ATOM     38  N   UNL     1     -10.959   7.894 127.320  0.00  0.00    +0.000 N 
ATOM     39  O   UNL     1     -10.718   8.246 126.132  0.00  0.00    +0.000 OA
ATOM     40  C   UNL     1     -11.791   8.604 128.155  0.00  0.00    +0.000 A 
ATOM     41  C   UNL     1     -12.042   8.204 129.483  0.00  0.00    +0.000 A 
ATOM     42  C   UNL     1     -11.361   7.139 130.060  0.00  0.00    +0.000 A 
BRANCH  42  43
ATOM     43  C   UNL     1     -11.652   6.710 131.497  0.00  0.00    +0.000 C 
ATOM     44  F   UNL     1     -12.644   7.464 132.037  0.00  0.00    +0.000 F 
ATOM     45  F   UNL     1     -12.073   5.417 131.544  0.00  0.00    +0.000 F 
ATOM     46  F   UNL     1     -10.649   6.753 132.418  0.00  0.00    +0.000 F 
ENDBRANCH  42  43
ENDBRANCH  35  36
ENDBRANCH  32  35
ENDBRANCH  28  29
ENDBRANCH   3  28
TORSDOF 8
ENDMDL
MODEL 2
REMARK VINA RESULT:     -10.2      3.717      9.911
REMARK  Name = CHEMBL69265
REMARK  9 active torsions:
REMARK  status: ('A' for Active; 'I' for Inactive)
REMARK    1  A    between atoms: C_1  and  O_2
REMARK    2  A    between atoms: O_2  and  C_3
REMARK    3  A    between atoms: C_5  and  O_6
REMARK    4  A    between atoms: O_6  and  C_7
REMARK    5  A    between atoms: N_10  and  C_11
REMARK    6  A    between atoms: C_11  and  C_12
REMARK    7  A    between atoms: C_18  and  C_19
REMARK    8  A    between atoms: C_27  and  C_28
REMARK    9  A    between atoms: C_33  and  N_34
REMARK                            x       y       z     vdW  Elec       q    Type
REMARK                         _______ _______ _______ _____ _____    ______ ____
ROOT
ATOM      1  C   UNL     1      -7.000   2.378 124.216  0.00  0.00    +0.000 A 
ATOM      2  C   UNL     1      -7.108   1.076 123.565  0.00  0.00    +0.000 A 
ATOM      3  C   UNL     1      -7.940   0.121 124.041  0.00  0.00    +0.000 A 
ATOM      4  C   UNL     1      -8.374   0.499 125.263  0.00  0.00    +0.000 A 
ATOM      5  C   UNL     1      -8.458   1.808 125.804  0.00  0.00    +0.000 A 
ATOM      6  C   UNL     1      -7.746   2.826 125.327  0.00  0.00    +0.000 A 
ENDROOT
BRANCH   6   7
ATOM      7  C   UNL     1      -7.933   4.097 126.214  0.00  0.00    +0.000 C 
ATOM      8  O   UNL     1      -8.639   5.036 125.822  0.00  0.00    +0.000 OA
ATOM      9  N   UNL     1      -7.342   4.146 127.494  0.00  0.00    +0.000 N 
ATOM     10  C   UNL     1      -8.209   3.859 128.685  0.00  0.00    +0.000 C 
ATOM     11  C   UNL     1      -7.559   4.350 129.974  0.00  0.00    +0.000 C 
ATOM     12  C   UNL     1      -5.952   3.570 130.335  0.00  0.00    +0.000 C 
ATOM     13  C   UNL     1      -5.237   4.248 128.868  0.00  0.00    +0.000 C 
ATOM     14  C   UNL     1      -5.922   3.779 127.585  0.00  0.00    +0.000 C 
BRANCH  12  15
ATOM     15  N   UNL     1      -5.504   2.432 131.761  0.00  0.00    +0.000 N 
ATOM     16  C   UNL     1      -5.882   1.432 130.835  0.00  0.00    +0.000 C 
ATOM     17  O   UNL     1      -6.983   1.279 130.248  0.00  0.00    +0.000 OA
ATOM     18  O   UNL     1      -4.842   0.757 130.372  0.00  0.00    +0.000 OA
ATOM     19  C   UNL     1      -4.985  -0.323 131.203  0.00  0.00    +0.000 C 
ATOM     20  C   UNL     1      -3.961   0.121 132.152  0.00  0.00    +0.000 A 
ATOM     21  C   UNL     1      -3.069  -1.086 132.460  0.00  0.00    +0.000 A 
ATOM     22  C   UNL     1      -2.550  -1.451 133.664  0.00  0.00    +0.000 A 
ATOM     23  C   UNL     1      -2.994  -0.547 134.596  0.00  0.00    +0.000 A 
ATOM     24  C   UNL     1      -3.916   0.799 134.203  0.00  0.00    +0.000 A 
ATOM     25  C   UNL     1      -4.346   1.351 132.757  0.00  0.00    +0.000 A 
ENDBRANCH  12  15
ENDBRANCH   6   7
BRANCH   1  27
ATOM     26  C   UNL     1      -6.533   3.530 122.373  0.00  0.00    +0.000 C 
ATOM     27  O   UNL     1      -6.017   3.098 123.603  0.00  0.00    +0.000 OA
ENDBRANCH   1  27
BRANCH   3  28
ATOM     28  O   UNL     1      -8.423  -1.002 123.401  0.00  0.00    +0.000 OA
BRANCH  28  29
ATOM     29  C   UNL     1      -7.705  -2.338 123.419  0.00  0.00    +0.000 C 
ATOM     30  C   UNL     1      -8.378  -3.380 124.329  0.00  0.00    +0.000 C 
ATOM     31  C   UNL     1      -8.077  -3.066 125.788  0.00  0.00    +0.000 C 
ATOM     32  N   UNL     1      -6.600  -2.716 126.056  0.00  0.00    +0.000 NA
ATOM     33  C   UNL     1      -5.806  -1.987 125.014  0.00  0.00    +0.000 C 
ATOM     34  C   UNL     1      -6.178  -2.386 123.638  0.00  0.00    +0.000 C 
BRANCH  32  35
ATOM     35  C   UNL     1      -6.443  -1.977 127.314  0.00  0.00    +0.000 C 
BRANCH  35  36
ATOM     36  C   UNL     1      -5.790  -2.650 128.442  0.00  0.00    +0.000 A 
ATOM     37  C   UNL     1      -4.374  -2.679 128.447  0.00  0.00    +0.000 A 
ATOM     38  N   UNL     1      -3.705  -3.528 129.258  0.00  0.00    +0.000 N 
ATOM     39  O   UNL     1      -2.469  -3.726 129.101  0.00  0.00    +0.000 OA
ATOM     40  C   UNL     1      -4.449  -4.175 130.217  0.00  0.00    +0.000 A 
ATOM     41  C   UNL     1      -5.832  -3.951 130.372  0.00  0.00    +0.000 A 
ATOM     42  C   UNL     1      -6.543  -3.159 129.478  0.00  0.00    +0.000 A 
BRANCH  42  43
ATOM     43  C   UNL     1      -8.040  -2.918 129.666  0.00  0.00    +0.000 C 
ATOM     44  F   UNL     1      -8.433  -3.258 130.921  0.00  0.00    +0.000 F 
ATOM     45  F   UNL     1      -8.345  -1.601 129.503  0.00  0.00    +0.000 F 
ATOM     46  F   UNL     1      -8.923  -3.554 128.846  0.00  0.00    +0.000 F 
ENDBRANCH  42  43
ENDBRANCH  35  36
ENDBRANCH  32  35
ENDBRANCH  28  29
ENDBRANCH   3  28
TORSDOF 8
ENDMDL
MODEL 3
REMARK VINA RESULT:     -10.1      4.360     10.089
REMARK  Name = CHEMBL69265
REMARK  9 active torsions:
REMARK  status: ('A' for Active; 'I' for Inactive)
REMARK    1  A    between atoms: C_1  and  O_2
REMARK    2  A    between atoms: O_2  and  C_3
REMARK    3  A    between atoms: C_5  and  O_6
REMARK    4  A    between atoms: O_6  and  C_7
REMARK    5  A    between atoms: N_10  and  C_11
REMARK    6  A    between atoms: C_11  and  C_12
REMARK    7  A    between atoms: C_18  and  C_19
REMARK    8  A    between atoms: C_27  and  C_28
REMARK    9  A    between atoms: C_33  and  N_34
REMARK                            x       y       z     vdW  Elec       q    Type
REMARK                         _______ _______ _______ _____ _____    ______ ____
ROOT
ATOM      1  C   UNL     1      -7.925   2.011 125.469  0.00  0.00    +0.000 A 
ATOM      2  C   UNL     1      -8.832   0.887 125.251  0.00  0.00    +0.000 A 
ATOM      3  C   UNL     1      -8.757   0.135 124.129  0.00  0.00    +0.000 A 
ATOM      4  C   UNL     1      -7.947   0.759 123.246  0.00  0.00    +0.000 A 
ATOM      5  C   UNL     1      -6.919   1.701 123.504  0.00  0.00    +0.000 A 
ATOM      6  C   UNL     1      -6.865   2.411 124.628  0.00  0.00    +0.000 A 
ENDROOT
BRANCH   6   7
ATOM      7  C   UNL     1      -5.717   3.468 124.563  0.00  0.00    +0.000 C 
ATOM      8  O   UNL     1      -5.511   4.106 123.522  0.00  0.00    +0.000 OA
ATOM      9  N   UNL     1      -4.953   3.736 125.718  0.00  0.00    +0.000 N 
ATOM     10  C   UNL     1      -5.289   4.959 126.520  0.00  0.00    +0.000 C 
ATOM     11  C   UNL     1      -4.149   5.336 127.459  0.00  0.00    +0.000 C 
ATOM     12  C   UNL     1      -3.739   4.045 128.679  0.00  0.00    +0.000 C 
ATOM     13  C   UNL     1      -3.273   2.916 127.401  0.00  0.00    +0.000 C 
ATOM     14  C   UNL     1      -4.414   2.577 126.443  0.00  0.00    +0.000 C 
BRANCH  12  15
ATOM     15  N   UNL     1      -3.923   4.106 130.547  0.00  0.00    +0.000 N 
ATOM     16  C   UNL     1      -5.078   3.338 130.271  0.00  0.00    +0.000 C 
ATOM     17  O   UNL     1      -6.063   3.631 129.546  0.00  0.00    +0.000 OA
ATOM     18  O   UNL     1      -4.939   2.074 130.635  0.00  0.00    +0.000 OA
ATOM     19  C   UNL     1      -5.612   2.186 131.822  0.00  0.00    +0.000 C 
ATOM     20  C   UNL     1      -4.400   2.295 132.637  0.00  0.00    +0.000 A 
ATOM     21  C   UNL     1      -4.568   1.356 133.835  0.00  0.00    +0.000 A 
ATOM     22  C   UNL     1      -4.211   1.585 135.128  0.00  0.00    +0.000 A 
ATOM     23  C   UNL     1      -3.682   2.850 135.192  0.00  0.00    +0.000 A 
ATOM     24  C   UNL     1      -3.455   3.819 133.841  0.00  0.00    +0.000 A 
ATOM     25  C   UNL     1      -3.673   3.470 132.289  0.00  0.00    +0.000 A 
ENDBRANCH  12  15
ENDBRANCH   6   7
BRANCH   1  27
ATOM     26  C   UNL     1      -8.306   1.700 127.638  0.00  0.00    +0.000 C 
ATOM     27  O   UNL     1      -8.291   2.657 126.613  0.00  0.00    +0.000 OA
ENDBRANCH   1  27
BRANCH   3  28
ATOM     28  O   UNL     1      -9.271  -1.125 123.897  0.00  0.00    +0.000 OA
BRANCH  28  29
ATOM     29  C   UNL     1      -8.404  -2.363 123.773  0.00  0.00    +0.000 C 
ATOM     30  C   UNL     1      -8.824  -3.498 124.722  0.00  0.00    +0.000 C 
ATOM     31  C   UNL     1      -8.374  -3.182 126.142  0.00  0.00    +0.000 C 
ATOM     32  N   UNL     1      -6.926  -2.659 126.233  0.00  0.00    +0.000 NA
ATOM     33  C   UNL     1      -6.368  -1.817 125.126  0.00  0.00    +0.000 C 
ATOM     34  C   UNL     1      -6.866  -2.228 123.794  0.00  0.00    +0.000 C 
BRANCH  32  35
ATOM     35  C   UNL     1      -6.695  -1.935 127.487  0.00  0.00    +0.000 C 
BRANCH  35  36
ATOM     36  C   UNL     1      -5.927  -2.599 128.546  0.00  0.00    +0.000 A 
ATOM     37  C   UNL     1      -4.523  -2.669 128.380  0.00  0.00    +0.000 A 
ATOM     38  N   UNL     1      -3.782  -3.518 129.127  0.00  0.00    +0.000 N 
ATOM     39  O   UNL     1      -2.579  -3.756 128.827  0.00  0.00    +0.000 OA
ATOM     40  C   UNL     1      -4.420  -4.119 130.187  0.00  0.00    +0.000 A 
ATOM     41  C   UNL     1      -5.767  -3.851 130.502  0.00  0.00    +0.000 A 
ATOM     42  C   UNL     1      -6.561  -3.061 129.680  0.00  0.00    +0.000 A 
BRANCH  42  43
ATOM     43  C   UNL     1      -8.017  -2.771 130.040  0.00  0.00    +0.000 C 
ATOM     44  F   UNL     1      -8.284  -3.145 131.319  0.00  0.00    +0.000 F 
ATOM     45  F   UNL     1      -8.283  -1.438 129.958  0.00  0.00    +0.000 F 
ATOM     46  F   UNL     1      -9.010  -3.340 129.302  0.00  0.00    +0.000 F 
ENDBRANCH  42  43
ENDBRANCH  35  36
ENDBRANCH  32  35
ENDBRANCH  28  29
ENDBRANCH   3  28
TORSDOF 8
ENDMDL
MODEL 4
REMARK VINA RESULT:     -10.1      3.698      8.831
REMARK  Name = CHEMBL69265
REMARK  9 active torsions:
REMARK  status: ('A' for Active; 'I' for Inactive)
REMARK    1  A    between atoms: C_1  and  O_2
REMARK    2  A    between atoms: O_2  and  C_3
REMARK    3  A    between atoms: C_5  and  O_6
REMARK    4  A    between atoms: O_6  and  C_7
REMARK    5  A    between atoms: N_10  and  C_11
REMARK    6  A    between atoms: C_11  and  C_12
REMARK    7  A    between atoms: C_18  and  C_19
REMARK    8  A    between atoms: C_27  and  C_28
REMARK    9  A    between atoms: C_33  and  N_34
REMARK                            x       y       z     vdW  Elec       q    Type
REMARK                         _______ _______ _______ _____ _____    ______ ____
ROOT
ATOM      1  C   UNL     1      -4.181   1.553 130.269  0.00  0.00    +0.000 A 
ATOM      2  C   UNL     1      -4.603   0.195 129.937  0.00  0.00    +0.000 A 
ATOM      3  C   UNL     1      -5.070  -0.646 130.888  0.00  0.00    +0.000 A 
ATOM      4  C   UNL     1      -4.818  -0.107 132.101  0.00  0.00    +0.000 A 
ATOM      5  C   UNL     1      -4.617   1.257 132.436  0.00  0.00    +0.000 A 
ATOM      6  C   UNL     1      -4.253   2.168 131.537  0.00  0.00    +0.000 A 
ENDROOT
BRANCH   6   7
ATOM      7  C   UNL     1      -3.964   3.541 132.224  0.00  0.00    +0.000 C 
ATOM      8  O   UNL     1      -2.881   3.741 132.792  0.00  0.00    +0.000 OA
ATOM      9  N   UNL     1      -4.918   4.575 132.141  0.00  0.00    +0.000 N 
ATOM     10  C   UNL     1      -4.700   5.659 131.126  0.00  0.00    +0.000 C 
ATOM     11  C   UNL     1      -5.554   6.885 131.434  0.00  0.00    +0.000 C 
ATOM     12  C   UNL     1      -7.347   6.558 131.428  0.00  0.00    +0.000 C 
ATOM     13  C   UNL     1      -7.196   5.431 132.781  0.00  0.00    +0.000 C 
ATOM     14  C   UNL     1      -6.307   4.227 132.473  0.00  0.00    +0.000 C 
BRANCH  12  15
ATOM     15  N   UNL     1      -8.649   7.227 130.251  0.00  0.00    +0.000 N 
ATOM     16  C   UNL     1      -8.732   5.868 129.868  0.00  0.00    +0.000 C 
ATOM     17  O   UNL     1      -7.825   5.120 129.422  0.00  0.00    +0.000 OA
ATOM     18  O   UNL     1      -9.848   5.295 130.289  0.00  0.00    +0.000 OA
ATOM     19  C   UNL     1     -10.525   5.403 129.103  0.00  0.00    +0.000 C 
ATOM     20  C   UNL     1     -11.279   6.594 129.504  0.00  0.00    +0.000 A 
ATOM     21  C   UNL     1     -12.741   6.363 129.111  0.00  0.00    +0.000 A 
ATOM     22  C   UNL     1     -13.611   7.263 128.576  0.00  0.00    +0.000 A 
ATOM     23  C   UNL     1     -12.932   8.445 128.412  0.00  0.00    +0.000 A 
ATOM     24  C   UNL     1     -11.349   8.672 128.918  0.00  0.00    +0.000 A 
ATOM     25  C   UNL     1     -10.392   7.682 129.746  0.00  0.00    +0.000 A 
ENDBRANCH  12  15
ENDBRANCH   6   7
BRANCH   1  27
ATOM     26  C   UNL     1      -4.693   2.843 128.532  0.00  0.00    +0.000 C 
ATOM     27  O   UNL     1      -3.654   2.136 129.155  0.00  0.00    +0.000 OA
ENDBRANCH   1  27
BRANCH   3  28
ATOM     28  O   UNL     1      -5.809  -1.801 130.734  0.00  0.00    +0.000 OA
BRANCH  28  29
ATOM     29  C   UNL     1      -7.305  -1.801 130.483  0.00  0.00    +0.000 C 
ATOM     30  C   UNL     1      -7.839  -3.153 129.983  0.00  0.00    +0.000 C 
ATOM     31  C   UNL     1      -7.476  -3.344 128.517  0.00  0.00    +0.000 C 
ATOM     32  N   UNL     1      -7.728  -2.098 127.646  0.00  0.00    +0.000 NA
ATOM     33  C   UNL     1      -7.544  -0.730 128.231  0.00  0.00    +0.000 C 
ATOM     34  C   UNL     1      -7.943  -0.666 129.655  0.00  0.00    +0.000 C 
BRANCH  32  35
ATOM     35  C   UNL     1      -6.951  -2.145 126.403  0.00  0.00    +0.000 C 
BRANCH  35  36
ATOM     36  C   UNL     1      -7.420  -1.362 125.255  0.00  0.00    +0.000 A 
ATOM     37  C   UNL     1      -6.675  -0.209 124.909  0.00  0.00    +0.000 A 
ATOM     38  N   UNL     1      -7.197   0.728 124.086  0.00  0.00    +0.000 N 
ATOM     39  O   UNL     1      -6.643   1.855 123.962  0.00  0.00    +0.000 OA
ATOM     40  C   UNL     1      -8.363   0.394 123.438  0.00  0.00    +0.000 A 
ATOM     41  C   UNL     1      -8.975  -0.866 123.594  0.00  0.00    +0.000 A 
ATOM     42  C   UNL     1      -8.501  -1.793 124.515  0.00  0.00    +0.000 A 
BRANCH  42  43
ATOM     43  C   UNL     1      -9.170  -3.158 124.667  0.00  0.00    +0.000 C 
ATOM     44  F   UNL     1      -9.985  -3.181 125.753  0.00  0.00    +0.000 F 
ATOM     45  F   UNL     1      -9.949  -3.441 123.586  0.00  0.00    +0.000 F 
ATOM     46  F   UNL     1      -8.391  -4.267 124.798  0.00  0.00    +0.000 F 
ENDBRANCH  42  43
ENDBRANCH  35  36
ENDBRANCH  32  35
ENDBRANCH  28  29
ENDBRANCH   3  28
TORSDOF 8
ENDMDL
MODEL 5
REMARK VINA RESULT:     -10.1      3.108      4.760
REMARK  Name = CHEMBL69265
REMARK  9 active torsions:
REMARK  status: ('A' for Active; 'I' for Inactive)
REMARK    1  A    between atoms: C_1  and  O_2
REMARK    2  A    between atoms: O_2  and  C_3
REMARK    3  A    between atoms: C_5  and  O_6
REMARK    4  A    between atoms: O_6  and  C_7
REMARK    5  A    between atoms: N_10  and  C_11
REMARK    6  A    between atoms: C_11  and  C_12
REMARK    7  A    between atoms: C_18  and  C_19
REMARK    8  A    between atoms: C_27  and  C_28
REMARK    9  A    between atoms: C_33  and  N_34
REMARK                            x       y       z     vdW  Elec       q    Type
REMARK                         _______ _______ _______ _____ _____    ______ ____
ROOT
ATOM      1  C   UNL     1      -3.707   3.069 130.861  0.00  0.00    +0.000 A 
ATOM      2  C   UNL     1      -3.556   2.990 132.311  0.00  0.00    +0.000 A 
ATOM      3  C   UNL     1      -3.047   4.024 133.020  0.00  0.00    +0.000 A 
ATOM      4  C   UNL     1      -2.515   4.917 132.156  0.00  0.00    +0.000 A 
ATOM      5  C   UNL     1      -2.831   5.118 130.788  0.00  0.00    +0.000 A 
ATOM      6  C   UNL     1      -3.423   4.185 130.046  0.00  0.00    +0.000 A 
ENDROOT
BRANCH   6   7
ATOM      7  C   UNL     1      -3.505   4.634 128.553  0.00  0.00    +0.000 C 
ATOM      8  O   UNL     1      -2.639   5.380 128.074  0.00  0.00    +0.000 OA
ATOM      9  N   UNL     1      -4.538   4.136 127.733  0.00  0.00    +0.000 N 
ATOM     10  C   UNL     1      -4.219   3.002 126.802  0.00  0.00    +0.000 C 
ATOM     11  C   UNL     1      -5.280   2.862 125.716  0.00  0.00    +0.000 C 
ATOM     12  C   UNL     1      -6.952   2.518 126.356  0.00  0.00    +0.000 C 
ATOM     13  C   UNL     1      -6.997   4.066 127.208  0.00  0.00    +0.000 C 
ATOM     14  C   UNL     1      -5.906   4.210 128.266  0.00  0.00    +0.000 C 
BRANCH  12  15
ATOM     15  N   UNL     1      -7.991   0.971 126.127  0.00  0.00    +0.000 N 
ATOM     16  C   UNL     1      -8.473   1.687 125.006  0.00  0.00    +0.000 C 
ATOM     17  O   UNL     1      -9.030   2.814 124.973  0.00  0.00    +0.000 OA
ATOM     18  O   UNL     1      -8.031   1.188 123.863  0.00  0.00    +0.000 OA
ATOM     19  C   UNL     1      -9.161   0.473 123.567  0.00  0.00    +0.000 C 
ATOM     20  C   UNL     1      -8.624  -0.803 124.046  0.00  0.00    +0.000 A 
ATOM     21  C   UNL     1      -8.944  -1.861 122.985  0.00  0.00    +0.000 A 
ATOM     22  C   UNL     1      -9.353  -3.143 123.186  0.00  0.00    +0.000 A 
ATOM     23  C   UNL     1      -9.466  -3.333 124.540  0.00  0.00    +0.000 A 
ATOM     24  C   UNL     1      -9.042  -2.166 125.669  0.00  0.00    +0.000 A 
ATOM     25  C   UNL     1      -8.353  -0.733 125.443  0.00  0.00    +0.000 A 
ENDBRANCH  12  15
ENDBRANCH   6   7
BRANCH   1  27
ATOM     26  C   UNL     1      -4.676   1.168 131.487  0.00  0.00    +0.000 C 
ATOM     27  O   UNL     1      -4.132   1.859 130.395  0.00  0.00    +0.000 OA
ENDBRANCH   1  27
BRANCH   3  28
ATOM     28  O   UNL     1      -3.136   4.270 134.374  0.00  0.00    +0.000 OA
BRANCH  28  29
ATOM     29  C   UNL     1      -4.282   5.040 135.003  0.00  0.00    +0.000 C 
ATOM     30  C   UNL     1      -5.423   4.135 135.499  0.00  0.00    +0.000 C 
ATOM     31  C   UNL     1      -6.247   3.643 134.317  0.00  0.00    +0.000 C 
ATOM     32  N   UNL     1      -6.588   4.745 133.295  0.00  0.00    +0.000 NA
ATOM     33  C   UNL     1      -5.613   5.855 133.043  0.00  0.00    +0.000 C 
ATOM     34  C   UNL     1      -4.884   6.256 134.267  0.00  0.00    +0.000 C 
BRANCH  32  35
ATOM     35  C   UNL     1      -6.942   4.175 131.990  0.00  0.00    +0.000 C 
BRANCH  35  36
ATOM     36  C   UNL     1      -8.193   4.605 131.357  0.00  0.00    +0.000 A 
ATOM     37  C   UNL     1      -8.155   5.791 130.585  0.00  0.00    +0.000 A 
ATOM     38  N   UNL     1      -9.298   6.422 130.234  0.00  0.00    +0.000 N 
ATOM     39  O   UNL     1      -9.266   7.589 129.755  0.00  0.00    +0.000 OA
ATOM     40  C   UNL     1     -10.470   5.739 130.460  0.00  0.00    +0.000 A 
ATOM     41  C   UNL     1     -10.489   4.439 131.005  0.00  0.00    +0.000 A 
ATOM     42  C   UNL     1      -9.328   3.828 131.462  0.00  0.00    +0.000 A 
BRANCH  42  43
ATOM     43  C   UNL     1      -9.363   2.414 132.041  0.00  0.00    +0.000 C 
ATOM     44  F   UNL     1      -9.157   2.434 133.384  0.00  0.00    +0.000 F 
ATOM     45  F   UNL     1     -10.579   1.836 131.839  0.00  0.00    +0.000 F 
ATOM     46  F   UNL     1      -8.485   1.484 131.574  0.00  0.00    +0.000 F 
ENDBRANCH  42  43
ENDBRANCH  35  36
ENDBRANCH  32  35
ENDBRANCH  28  29
ENDBRANCH   3  28
TORSDOF 8
ENDMDL
MODEL 6
REMARK VINA RESULT:     -10.1      3.364      5.544
REMARK  Name = CHEMBL69265
REMARK  9 active torsions:
REMARK  status: ('A' for Active; 'I' for Inactive)
REMARK    1  A    between atoms: C_1  and  O_2
REMARK    2  A    between atoms: O_2  and  C_3
REMARK    3  A    between atoms: C_5  and  O_6
REMARK    4  A    between atoms: O_6  and  C_7
REMARK    5  A    between atoms: N_10  and  C_11
REMARK    6  A    between atoms: C_11  and  C_12
REMARK    7  A    between atoms: C_18  and  C_19
REMARK    8  A    between atoms: C_27  and  C_28
REMARK    9  A    between atoms: C_33  and  N_34
REMARK                            x       y       z     vdW  Elec       q    Type
REMARK                         _______ _______ _______ _____ _____    ______ ____
ROOT
ATOM      1  C   UNL     1      -6.566   5.571 132.439  0.00  0.00    +0.000 A 
ATOM      2  C   UNL     1      -5.367   6.405 132.440  0.00  0.00    +0.000 A 
ATOM      3  C   UNL     1      -4.500   6.384 133.479  0.00  0.00    +0.000 A 
ATOM      4  C   UNL     1      -5.075   5.718 134.505  0.00  0.00    +0.000 A 
ATOM      5  C   UNL     1      -6.106   4.746 134.459  0.00  0.00    +0.000 A 
ATOM      6  C   UNL     1      -6.940   4.635 133.426  0.00  0.00    +0.000 A 
ENDROOT
BRANCH   6   7
ATOM      7  C   UNL     1      -8.056   3.585 133.724  0.00  0.00    +0.000 C 
ATOM      8  O   UNL     1      -9.003   3.872 134.469  0.00  0.00    +0.000 OA
ATOM      9  N   UNL     1      -8.013   2.326 133.091  0.00  0.00    +0.000 N 
ATOM     10  C   UNL     1      -8.891   2.106 131.893  0.00  0.00    +0.000 C 
ATOM     11  C   UNL     1      -9.049   0.621 131.588  0.00  0.00    +0.000 C 
ATOM     12  C   UNL     1      -7.481  -0.227 131.211  0.00  0.00    +0.000 C 
ATOM     13  C   UNL     1      -6.852   0.110 132.828  0.00  0.00    +0.000 C 
ATOM     14  C   UNL     1      -6.735   1.601 133.136  0.00  0.00    +0.000 C 
BRANCH  12  15
ATOM     15  N   UNL     1      -6.939  -1.009 129.591  0.00  0.00    +0.000 N 
ATOM     16  C   UNL     1      -7.474  -2.173 130.190  0.00  0.00    +0.000 C 
ATOM     17  O   UNL     1      -7.150  -2.719 131.275  0.00  0.00    +0.000 OA
ATOM     18  O   UNL     1      -8.615  -2.545 129.633  0.00  0.00    +0.000 OA
ATOM     19  C   UNL     1      -8.078  -3.517 128.831  0.00  0.00    +0.000 C 
ATOM     20  C   UNL     1      -8.052  -2.679 127.630  0.00  0.00    +0.000 A 
ATOM     21  C   UNL     1      -8.618  -3.515 126.478  0.00  0.00    +0.000 A 
ATOM     22  C   UNL     1      -8.175  -3.568 125.192  0.00  0.00    +0.000 A 
ATOM     23  C   UNL     1      -7.081  -2.744 125.099  0.00  0.00    +0.000 A 
ATOM     24  C   UNL     1      -6.534  -1.796 126.371  0.00  0.00    +0.000 A 
ATOM     25  C   UNL     1      -7.184  -1.566 127.822  0.00  0.00    +0.000 A 
ENDBRANCH  12  15
ENDBRANCH   6   7
BRANCH   1  27
ATOM     26  C   UNL     1      -8.528   6.394 131.792  0.00  0.00    +0.000 C 
ATOM     27  O   UNL     1      -7.310   5.870 131.335  0.00  0.00    +0.000 OA
ENDBRANCH   1  27
BRANCH   3  28
ATOM     28  O   UNL     1      -3.192   6.819 133.522  0.00  0.00    +0.000 OA
BRANCH  28  29
ATOM     29  C   UNL     1      -2.020   5.967 133.073  0.00  0.00    +0.000 C 
ATOM     30  C   UNL     1      -1.267   6.554 131.868  0.00  0.00    +0.000 C 
ATOM     31  C   UNL     1      -2.069   6.330 130.594  0.00  0.00    +0.000 C 
ATOM     32  N   UNL     1      -2.646   4.906 130.464  0.00  0.00    +0.000 NA
ATOM     33  C   UNL     1      -3.076   4.163 131.693  0.00  0.00    +0.000 C 
ATOM     34  C   UNL     1      -2.213   4.450 132.860  0.00  0.00    +0.000 C 
BRANCH  32  35
ATOM     35  C   UNL     1      -3.766   4.865 129.518  0.00  0.00    +0.000 C 
BRANCH  35  36
ATOM     36  C   UNL     1      -3.775   3.817 128.491  0.00  0.00    +0.000 A 
ATOM     37  C   UNL     1      -2.546   3.528 127.852  0.00  0.00    +0.000 A 
ATOM     38  N   UNL     1      -2.519   2.819 126.700  0.00  0.00    +0.000 N 
ATOM     39  O   UNL     1      -1.466   2.759 126.007  0.00  0.00    +0.000 OA
ATOM     40  C   UNL     1      -3.696   2.214 126.325  0.00  0.00    +0.000 A 
ATOM     41  C   UNL     1      -4.866   2.298 127.105  0.00  0.00    +0.000 A 
ATOM     42  C   UNL     1      -4.929   3.108 128.233  0.00  0.00    +0.000 A 
BRANCH  42  43
ATOM     43  C   UNL     1      -6.202   3.182 129.074  0.00  0.00    +0.000 C 
ATOM     44  F   UNL     1      -6.876   4.337 128.835  0.00  0.00    +0.000 F 
ATOM     45  F   UNL     1      -7.050   2.163 128.764  0.00  0.00    +0.000 F 
ATOM     46  F   UNL     1      -6.106   3.116 130.431  0.00  0.00    +0.000 F 
ENDBRANCH  42  43
ENDBRANCH  35  36
ENDBRANCH  32  35
ENDBRANCH  28  29
ENDBRANCH   3  28
TORSDOF 8
ENDMDL
MODEL 7
REMARK VINA RESULT:     -10.0      3.632      7.982
REMARK  Name = CHEMBL69265
REMARK  9 active torsions:
REMARK  status: ('A' for Active; 'I' for Inactive)
REMARK    1  A    between atoms: C_1  and  O_2
REMARK    2  A    between atoms: O_2  and  C_3
REMARK    3  A    between atoms: C_5  and  O_6
REMARK    4  A    between atoms: O_6  and  C_7
REMARK    5  A    between atoms: N_10  and  C_11
REMARK    6  A    between atoms: C_11  and  C_12
REMARK    7  A    between atoms: C_18  and  C_19
REMARK    8  A    between atoms: C_27  and  C_28
REMARK    9  A    between atoms: C_33  and  N_34
REMARK                            x       y       z     vdW  Elec       q    Type
REMARK                         _______ _______ _______ _____ _____    ______ ____
ROOT
ATOM      1  C   UNL     1      -4.884   1.775 131.130  0.00  0.00    +0.000 A 
ATOM      2  C   UNL     1      -4.528   0.998 129.947  0.00  0.00    +0.000 A 
ATOM      3  C   UNL     1      -4.707  -0.343 129.909  0.00  0.00    +0.000 A 
ATOM      4  C   UNL     1      -4.985  -0.775 131.158  0.00  0.00    +0.000 A 
ATOM      5  C   UNL     1      -5.533  -0.045 132.243  0.00  0.00    +0.000 A 
ATOM      6  C   UNL     1      -5.487   1.284 132.308  0.00  0.00    +0.000 A 
ENDROOT
BRANCH   6   7
ATOM      7  C   UNL     1      -6.031   1.792 133.680  0.00  0.00    +0.000 C 
ATOM      8  O   UNL     1      -5.472   1.465 134.736  0.00  0.00    +0.000 OA
ATOM      9  N   UNL     1      -7.129   2.677 133.708  0.00  0.00    +0.000 N 
ATOM     10  C   UNL     1      -6.853   4.141 133.898  0.00  0.00    +0.000 C 
ATOM     11  C   UNL     1      -8.111   4.891 134.319  0.00  0.00    +0.000 C 
ATOM     12  C   UNL     1      -9.469   4.799 133.106  0.00  0.00    +0.000 C 
ATOM     13  C   UNL     1      -9.582   3.045 133.293  0.00  0.00    +0.000 C 
ATOM     14  C   UNL     1      -8.303   2.308 132.904  0.00  0.00    +0.000 C 
BRANCH  12  15
ATOM     15  N   UNL     1     -10.224   6.190 132.096  0.00  0.00    +0.000 N 
ATOM     16  C   UNL     1      -9.397   5.652 131.083  0.00  0.00    +0.000 C 
ATOM     17  O   UNL     1      -8.149   5.501 131.085  0.00  0.00    +0.000 OA
ATOM     18  O   UNL     1     -10.091   5.014 130.154  0.00  0.00    +0.000 OA
ATOM     19  C   UNL     1     -10.097   6.039 129.245  0.00  0.00    +0.000 C 
ATOM     20  C   UNL     1     -11.447   6.494 129.589  0.00  0.00    +0.000 A 
ATOM     21  C   UNL     1     -12.201   6.720 128.275  0.00  0.00    +0.000 A 
ATOM     22  C   UNL     1     -13.057   7.733 127.971  0.00  0.00    +0.000 A 
ATOM     23  C   UNL     1     -13.115   8.565 129.061  0.00  0.00    +0.000 A 
ATOM     24  C   UNL     1     -12.323   8.243 130.504  0.00  0.00    +0.000 A 
ATOM     25  C   UNL     1     -11.490   6.941 130.940  0.00  0.00    +0.000 A 
ENDBRANCH  12  15
ENDBRANCH   6   7
BRANCH   1  27
ATOM     26  C   UNL     1      -5.370   3.622 129.992  0.00  0.00    +0.000 C 
ATOM     27  O   UNL     1      -4.498   3.069 130.941  0.00  0.00    +0.000 OA
ENDBRANCH   1  27
BRANCH   3  28
ATOM     28  O   UNL     1      -4.753  -1.178 128.811  0.00  0.00    +0.000 OA
BRANCH  28  29
ATOM     29  C   UNL     1      -6.032  -1.827 128.318  0.00  0.00    +0.000 C 
ATOM     30  C   UNL     1      -6.047  -2.069 126.799  0.00  0.00    +0.000 C 
ATOM     31  C   UNL     1      -6.292  -0.757 126.067  0.00  0.00    +0.000 C 
ATOM     32  N   UNL     1      -7.424   0.093 126.676  0.00  0.00    +0.000 NA
ATOM     33  C   UNL     1      -7.656   0.074 128.157  0.00  0.00    +0.000 C 
ATOM     34  C   UNL     1      -7.399  -1.257 128.753  0.00  0.00    +0.000 C 
BRANCH  32  35
ATOM     35  C   UNL     1      -7.316   1.499 126.273  0.00  0.00    +0.000 C 
BRANCH  35  36
ATOM     36  C   UNL     1      -7.976   1.922 125.033  0.00  0.00    +0.000 A 
ATOM     37  C   UNL     1      -9.248   1.367 124.754  0.00  0.00    +0.000 A 
ATOM     38  N   UNL     1      -9.780   1.451 123.514  0.00  0.00    +0.000 N 
ATOM     39  O   UNL     1     -10.791   0.764 123.201  0.00  0.00    +0.000 OA
ATOM     40  C   UNL     1      -9.140   2.285 122.627  0.00  0.00    +0.000 A 
ATOM     41  C   UNL     1      -8.005   3.038 122.990  0.00  0.00    +0.000 A 
ATOM     42  C   UNL     1      -7.394   2.879 124.228  0.00  0.00    +0.000 A 
BRANCH  42  43
ATOM     43  C   UNL     1      -6.170   3.709 124.610  0.00  0.00    +0.000 C 
ATOM     44  F   UNL     1      -5.762   4.479 123.568  0.00  0.00    +0.000 F 
ATOM     45  F   UNL     1      -6.458   4.558 125.635  0.00  0.00    +0.000 F 
ATOM     46  F   UNL     1      -5.041   3.074 125.029  0.00  0.00    +0.000 F 
ENDBRANCH  42  43
ENDBRANCH  35  36
ENDBRANCH  32  35
ENDBRANCH  28  29
ENDBRANCH   3  28
TORSDOF 8
ENDMDL
MODEL 8
REMARK VINA RESULT:      -9.9      4.443      8.880
REMARK  Name = CHEMBL69265
REMARK  9 active torsions:
REMARK  status: ('A' for Active; 'I' for Inactive)
REMARK    1  A    between atoms: C_1  and  O_2
REMARK    2  A    between atoms: O_2  and  C_3
REMARK    3  A    between atoms: C_5  and  O_6
REMARK    4  A    between atoms: O_6  and  C_7
REMARK    5  A    between atoms: N_10  and  C_11
REMARK    6  A    between atoms: C_11  and  C_12
REMARK    7  A    between atoms: C_18  and  C_19
REMARK    8  A    between atoms: C_27  and  C_28
REMARK    9  A    between atoms: C_33  and  N_34
REMARK                            x       y       z     vdW  Elec       q    Type
REMARK                         _______ _______ _______ _____ _____    ______ ____
ROOT
ATOM      1  C   UNL     1      -6.597  -1.707 127.772  0.00  0.00    +0.000 A 
ATOM      2  C   UNL     1      -7.279  -1.230 126.573  0.00  0.00    +0.000 A 
ATOM      3  C   UNL     1      -8.411  -1.823 126.128  0.00  0.00    +0.000 A 
ATOM      4  C   UNL     1      -8.581  -2.984 126.798  0.00  0.00    +0.000 A 
ATOM      5  C   UNL     1      -8.075  -3.349 128.072  0.00  0.00    +0.000 A 
ATOM      6  C   UNL     1      -7.025  -2.747 128.625  0.00  0.00    +0.000 A 
ENDROOT
BRANCH   6   7
ATOM      7  C   UNL     1      -6.611  -3.460 129.951  0.00  0.00    +0.000 C 
ATOM      8  O   UNL     1      -6.299  -4.659 129.946  0.00  0.00    +0.000 OA
ATOM      9  N   UNL     1      -6.533  -2.715 131.145  0.00  0.00    +0.000 N 
ATOM     10  C   UNL     1      -5.180  -2.262 131.611  0.00  0.00    +0.000 C 
ATOM     11  C   UNL     1      -5.208  -1.854 133.079  0.00  0.00    +0.000 C 
ATOM     12  C   UNL     1      -6.341  -0.474 133.443  0.00  0.00    +0.000 C 
ATOM     13  C   UNL     1      -7.741  -1.426 132.936  0.00  0.00    +0.000 C 
ATOM     14  C   UNL     1      -7.684  -1.861 131.473  0.00  0.00    +0.000 C 
BRANCH  12  15
ATOM     15  N   UNL     1      -5.916   1.256 134.039  0.00  0.00    +0.000 N 
ATOM     16  C   UNL     1      -6.696   1.630 132.920  0.00  0.00    +0.000 C 
ATOM     17  O   UNL     1      -6.526   1.337 131.709  0.00  0.00    +0.000 OA
ATOM     18  O   UNL     1      -7.870   2.130 133.271  0.00  0.00    +0.000 OA
ATOM     19  C   UNL     1      -7.516   3.446 133.139  0.00  0.00    +0.000 C 
ATOM     20  C   UNL     1      -7.280   3.650 134.570  0.00  0.00    +0.000 A 
ATOM     21  C   UNL     1      -7.966   4.962 134.964  0.00  0.00    +0.000 A 
ATOM     22  C   UNL     1      -7.501   5.924 135.807  0.00  0.00    +0.000 A 
ATOM     23  C   UNL     1      -6.260   5.529 136.239  0.00  0.00    +0.000 A 
ATOM     24  C   UNL     1      -5.574   4.052 135.833  0.00  0.00    +0.000 A 
ATOM     25  C   UNL     1      -6.211   2.823 135.018  0.00  0.00    +0.000 A 
ENDBRANCH  12  15
ENDBRANCH   6   7
BRANCH   1  27
ATOM     26  C   UNL     1      -5.766   0.208 128.539  0.00  0.00    +0.000 C 
ATOM     27  O   UNL     1      -5.435  -1.010 127.926  0.00  0.00    +0.000 OA
ENDBRANCH   1  27
BRANCH   3  28
ATOM     28  O   UNL     1      -9.356  -1.333 125.249  0.00  0.00    +0.000 OA
BRANCH  28  29
ATOM     29  C   UNL     1      -9.209  -1.419 123.742  0.00  0.00    +0.000 C 
ATOM     30  C   UNL     1      -7.746  -1.396 123.270  0.00  0.00    +0.000 C 
ATOM     31  C   UNL     1      -7.194   0.020 123.360  0.00  0.00    +0.000 C 
ATOM     32  N   UNL     1      -8.151   1.096 122.810  0.00  0.00    +0.000 NA
ATOM     33  C   UNL     1      -9.632   0.921 122.956  0.00  0.00    +0.000 C 
ATOM     34  C   UNL     1     -10.049  -0.494 122.836  0.00  0.00    +0.000 C 
BRANCH  32  35
ATOM     35  C   UNL     1      -7.818   2.427 123.331  0.00  0.00    +0.000 C 
BRANCH  35  36
ATOM     36  C   UNL     1      -6.981   3.309 122.512  0.00  0.00    +0.000 A 
ATOM     37  C   UNL     1      -7.439   3.607 121.206  0.00  0.00    +0.000 A 
ATOM     38  N   UNL     1      -6.602   4.140 120.287  0.00  0.00    +0.000 N 
ATOM     39  O   UNL     1      -6.931   4.189 119.070  0.00  0.00    +0.000 OA
ATOM     40  C   UNL     1      -5.384   4.581 120.749  0.00  0.00    +0.000 A 
ATOM     41  C   UNL     1      -5.027   4.510 122.111  0.00  0.00    +0.000 A 
ATOM     42  C   UNL     1      -5.838   3.871 123.041  0.00  0.00    +0.000 A 
BRANCH  42  43
ATOM     43  C   UNL     1      -5.442   3.811 124.515  0.00  0.00    +0.000 C 
ATOM     44  F   UNL     1      -6.223   4.635 125.261  0.00  0.00    +0.000 F 
ATOM     45  F   UNL     1      -5.610   2.555 125.014  0.00  0.00    +0.000 F 
ATOM     46  F   UNL     1      -4.167   4.129 124.873  0.00  0.00    +0.000 F 
ENDBRANCH  42  43
ENDBRANCH  35  36
ENDBRANCH  32  35
ENDBRANCH  28  29
ENDBRANCH   3  28
TORSDOF 8
ENDMDL
MODEL 9
REMARK VINA RESULT:      -9.9      3.790      8.531
REMARK  Name = CHEMBL69265
REMARK  9 active torsions:
REMARK  status: ('A' for Active; 'I' for Inactive)
REMARK    1  A    between atoms: C_1  and  O_2
REMARK    2  A    between atoms: O_2  and  C_3
REMARK    3  A    between atoms: C_5  and  O_6
REMARK    4  A    between atoms: O_6  and  C_7
REMARK    5  A    between atoms: N_10  and  C_11
REMARK    6  A    between atoms: C_11  and  C_12
REMARK    7  A    between atoms: C_18  and  C_19
REMARK    8  A    between atoms: C_27  and  C_28
REMARK    9  A    between atoms: C_33  and  N_34
REMARK                            x       y       z     vdW  Elec       q    Type
REMARK                         _______ _______ _______ _____ _____    ______ ____
ROOT
ATOM      1  C   UNL     1      -6.373  -1.798 129.377  0.00  0.00    +0.000 A 
ATOM      2  C   UNL     1      -6.564  -2.583 128.161  0.00  0.00    +0.000 A 
ATOM      3  C   UNL     1      -6.192  -2.103 126.952  0.00  0.00    +0.000 A 
ATOM      4  C   UNL     1      -5.906  -0.789 127.080  0.00  0.00    +0.000 A 
ATOM      5  C   UNL     1      -5.513  -0.080 128.244  0.00  0.00    +0.000 A 
ATOM      6  C   UNL     1      -5.754  -0.533 129.472  0.00  0.00    +0.000 A 
ENDROOT
BRANCH   6   7
ATOM      7  C   UNL     1      -5.344   0.526 130.544  0.00  0.00    +0.000 C 
ATOM      8  O   UNL     1      -4.288   0.398 131.179  0.00  0.00    +0.000 OA
ATOM      9  N   UNL     1      -6.154   1.663 130.742  0.00  0.00    +0.000 N 
ATOM     10  C   UNL     1      -5.730   2.954 130.103  0.00  0.00    +0.000 C 
ATOM     11  C   UNL     1      -6.443   4.144 130.734  0.00  0.00    +0.000 C 
ATOM     12  C   UNL     1      -8.258   4.089 130.576  0.00  0.00    +0.000 C 
ATOM     13  C   UNL     1      -8.346   2.608 131.537  0.00  0.00    +0.000 C 
ATOM     14  C   UNL     1      -7.595   1.433 130.913  0.00  0.00    +0.000 C 
BRANCH  12  15
ATOM     15  N   UNL     1      -9.379   5.247 129.611  0.00  0.00    +0.000 N 
ATOM     16  C   UNL     1     -10.380   4.627 130.394  0.00  0.00    +0.000 C 
ATOM     17  O   UNL     1     -10.675   3.407 130.472  0.00  0.00    +0.000 OA
ATOM     18  O   UNL     1     -10.861   5.434 131.326  0.00  0.00    +0.000 OA
ATOM     19  C   UNL     1     -11.988   5.799 130.638  0.00  0.00    +0.000 C 
ATOM     20  C   UNL     1     -11.435   7.072 130.170  0.00  0.00    +0.000 A 
ATOM     21  C   UNL     1     -12.501   8.147 130.406  0.00  0.00    +0.000 A 
ATOM     22  C   UNL     1     -12.838   9.179 129.585  0.00  0.00    +0.000 A 
ATOM     23  C   UNL     1     -12.060   9.080 128.458  0.00  0.00    +0.000 A 
ATOM     24  C   UNL     1     -10.858   7.924 128.271  0.00  0.00    +0.000 A 
ATOM     25  C   UNL     1     -10.311   6.844 129.326  0.00  0.00    +0.000 A 
ENDBRANCH  12  15
ENDBRANCH   6   7
BRANCH   1  27
ATOM     26  C   UNL     1      -6.338  -3.735 130.469  0.00  0.00    +0.000 C 
ATOM     27  O   UNL     1      -6.933  -2.466 130.427  0.00  0.00    +0.000 OA
ENDBRANCH   1  27
BRANCH   3  28
ATOM     28  O   UNL     1      -5.981  -2.793 125.776  0.00  0.00    +0.000 OA
BRANCH  28  29
ATOM     29  C   UNL     1      -7.036  -2.928 124.694  0.00  0.00    +0.000 C 
ATOM     30  C   UNL     1      -6.654  -2.226 123.380  0.00  0.00    +0.000 C 
ATOM     31  C   UNL     1      -6.828  -0.721 123.526  0.00  0.00    +0.000 C 
ATOM     32  N   UNL     1      -8.148  -0.311 124.210  0.00  0.00    +0.000 NA
ATOM     33  C   UNL     1      -8.734  -1.182 125.279  0.00  0.00    +0.000 C 
ATOM     34  C   UNL     1      -8.513  -2.623 125.021  0.00  0.00    +0.000 C 
BRANCH  32  35
ATOM     35  C   UNL     1      -8.071   1.049 124.753  0.00  0.00    +0.000 C 
BRANCH  35  36
ATOM     36  C   UNL     1      -7.711   2.144 123.845  0.00  0.00    +0.000 A 
ATOM     37  C   UNL     1      -8.645   2.481 122.835  0.00  0.00    +0.000 A 
ATOM     38  N   UNL     1      -8.275   3.243 121.782  0.00  0.00    +0.000 N 
ATOM     39  O   UNL     1      -9.024   3.351 120.772  0.00  0.00    +0.000 OA
ATOM     40  C   UNL     1      -7.043   3.849 121.865  0.00  0.00    +0.000 A 
ATOM     41  C   UNL     1      -6.213   3.711 122.996  0.00  0.00    +0.000 A 
ATOM     42  C   UNL     1      -6.542   2.848 124.035  0.00  0.00    +0.000 A 
BRANCH  42  43
ATOM     43  C   UNL     1      -5.636   2.717 125.259  0.00  0.00    +0.000 C 
ATOM     44  F   UNL     1      -4.683   3.684 125.264  0.00  0.00    +0.000 F 
ATOM     45  F   UNL     1      -6.349   2.864 126.410  0.00  0.00    +0.000 F 
ATOM     46  F   UNL     1      -4.950   1.557 125.455  0.00  0.00    +0.000 F 
ENDBRANCH  42  43
ENDBRANCH  35  36
ENDBRANCH  32  35
ENDBRANCH  28  29
ENDBRANCH   3  28
TORSDOF 8
ENDMDL
