MODEL 1
REMARK VINA RESULT:      -8.9      0.000      0.000
REMARK  Name = CHEMBL278802
REMARK  12 active torsions:
REMARK  status: ('A' for Active; 'I' for Inactive)
REMARK    1  A    between atoms: C_1  and  C_2
REMARK    2  A    between atoms: C_2  and  C_4
REMARK    3  A    between atoms: C_4  and  C_5
REMARK    4  A    between atoms: C_5  and  C_6
REMARK    5  A    between atoms: C_6  and  C_7
REMARK    6  A    between atoms: N_9  and  C_10
REMARK    7  A    between atoms: C_12  and  C_13
REMARK    8  A    between atoms: N_25  and  C_26
REMARK    9  A    between atoms: C_26  and  C_27
REMARK   10  A    between atoms: N_29  and  C_30
REMARK   11  A    between atoms: C_30  and  C_31
REMARK   12  A    between atoms: C_31  and  C_32
REMARK                            x       y       z     vdW  Elec       q    Type
REMARK                         _______ _______ _______ _____ _____    ______ ____
ROOT
ATOM      1  C   UNL     1      -7.817   4.229 129.001  0.00  0.00    +0.000 C 
ATOM      2  N   UNL     1      -8.260   3.685 127.704  0.00  0.00    +0.000 NA
ATOM      3  C   UNL     1      -7.369   3.153 126.921  0.00  0.00    +0.000 C 
ATOM      4  C   UNL     1      -5.890   3.117 127.187  0.00  0.00    +0.000 A 
ATOM      5  C   UNL     1      -5.016   3.262 126.090  0.00  0.00    +0.000 A 
ATOM      6  C   UNL     1      -3.632   3.167 126.254  0.00  0.00    +0.000 A 
ATOM      7  C   UNL     1      -3.100   3.007 127.523  0.00  0.00    +0.000 A 
ATOM      8  C   UNL     1      -3.950   2.932 128.622  0.00  0.00    +0.000 A 
ATOM      9  C   UNL     1      -5.348   2.882 128.464  0.00  0.00    +0.000 A 
ATOM     10  N   UNL     1      -6.139   2.441 129.564  0.00  0.00    +0.000 N 
ATOM     11  C   UNL     1      -7.355   3.031 129.898  0.00  0.00    +0.000 C 
ATOM     12  O   UNL     1      -8.005   2.625 130.870  0.00  0.00    +0.000 OA
ENDROOT
BRANCH   3  13
ATOM     13  C   UNL     1      -7.844   2.514 125.643  0.00  0.00    +0.000 A 
ATOM     14  C   UNL     1      -8.236   3.299 124.552  0.00  0.00    +0.000 A 
ATOM     15  C   UNL     1      -8.772   2.689 123.410  0.00  0.00    +0.000 A 
ATOM     16  C   UNL     1      -8.830   1.298 123.319  0.00  0.00    +0.000 A 
ATOM     17  C   UNL     1      -8.336   0.513 124.359  0.00  0.00    +0.000 A 
ATOM     18  C   UNL     1      -7.885   1.117 125.538  0.00  0.00    +0.000 A 
ENDBRANCH   3  13
BRANCH   1  21
ATOM     19  C   UNL     1      -8.738   6.080 130.308  0.00  0.00    +0.000 C 
ATOM     20  O   UNL     1      -7.638   6.630 130.324  0.00  0.00    +0.000 OA
ATOM     21  N   UNL     1      -8.945   4.896 129.629  0.00  0.00    +0.000 N 
ATOM     22  H   UNL     1      -9.836   4.427 129.599  0.00  0.00    +0.000 HD
BRANCH  19  23
ATOM     23  C   UNL     1      -9.951   6.663 131.028  0.00  0.00    +0.000 C 
BRANCH  23  24
ATOM     24  C   UNL     1     -11.004   7.130 130.012  0.00  0.00    +0.000 C 
BRANCH  24  25
ATOM     25  C   UNL     1     -10.432   7.935 128.843  0.00  0.00    +0.000 C 
BRANCH  25  27
ATOM     26  C   UNL     1     -12.031   7.392 126.885  0.00  0.00    +0.000 C 
ATOM     27  C   UNL     1     -10.674   7.224 127.516  0.00  0.00    +0.000 C 
ATOM     28  O   UNL     1      -9.816   6.537 126.963  0.00  0.00    +0.000 OA
ENDBRANCH  25  27
ENDBRANCH  24  25
ENDBRANCH  23  24
ENDBRANCH  19  23
ENDBRANCH   1  21
BRANCH  10  29
ATOM     29  C   UNL     1      -5.693   1.314 130.410  0.00  0.00    +0.000 C 
BRANCH  29  30
ATOM     30  C   UNL     1      -5.616  -0.086 129.779  0.00  0.00    +0.000 C 
ATOM     31  O   UNL     1      -4.644  -0.839 129.913  0.00  0.00    +0.000 OA
ATOM     32  N   UNL     1      -6.685  -0.499 129.015  0.00  0.00    +0.000 N 
ATOM     33  H   UNL     1      -7.241   0.187 128.514  0.00  0.00    +0.000 HD
BRANCH  32  34
ATOM     34  C   UNL     1      -6.668  -1.885 128.602  0.00  0.00    +0.000 C 
BRANCH  34  35
ATOM     35  C   UNL     1      -8.003  -2.423 128.117  0.00  0.00    +0.000 C 
BRANCH  35  36
ATOM     36  C   UNL     1      -8.011  -2.614 126.617  0.00  0.00    +0.000 A 
ATOM     37  C   UNL     1      -9.218  -2.895 125.968  0.00  0.00    +0.000 A 
ATOM     38  C   UNL     1      -9.240  -3.143 124.596  0.00  0.00    +0.000 A 
ATOM     39  C   UNL     1      -8.047  -3.214 123.878  0.00  0.00    +0.000 A 
ATOM     40  C   UNL     1      -6.847  -2.911 124.509  0.00  0.00    +0.000 A 
ATOM     41 CL   UNL     1      -5.361  -3.049 123.653  0.00  0.00    +0.000 Cl
ATOM     42  C   UNL     1      -6.836  -2.535 125.849  0.00  0.00    +0.000 A 
ENDBRANCH  35  36
ENDBRANCH  34  35
ENDBRANCH  32  34
ENDBRANCH  29  30
ENDBRANCH  10  29
TORSDOF 11
ENDMDL
MODEL 2
REMARK VINA RESULT:      -8.7      3.567      5.786
REMARK  Name = CHEMBL278802
REMARK  12 active torsions:
REMARK  status: ('A' for Active; 'I' for Inactive)
REMARK    1  A    between atoms: C_1  and  C_2
REMARK    2  A    between atoms: C_2  and  C_4
REMARK    3  A    between atoms: C_4  and  C_5
REMARK    4  A    between atoms: C_5  and  C_6
REMARK    5  A    between atoms: C_6  and  C_7
REMARK    6  A    between atoms: N_9  and  C_10
REMARK    7  A    between atoms: C_12  and  C_13
REMARK    8  A    between atoms: N_25  and  C_26
REMARK    9  A    between atoms: C_26  and  C_27
REMARK   10  A    between atoms: N_29  and  C_30
REMARK   11  A    between atoms: C_30  and  C_31
REMARK   12  A    between atoms: C_31  and  C_32
REMARK                            x       y       z     vdW  Elec       q    Type
REMARK                         _______ _______ _______ _____ _____    ______ ____
ROOT
ATOM      1  C   UNL     1      -9.480   5.683 131.046  0.00  0.00    +0.000 C 
ATOM      2  N   UNL     1      -8.213   6.214 130.511  0.00  0.00    +0.000 NA
ATOM      3  C   UNL     1      -7.101   5.833 131.066  0.00  0.00    +0.000 C 
ATOM      4  C   UNL     1      -6.993   4.949 132.277  0.00  0.00    +0.000 A 
ATOM      5  C   UNL     1      -5.959   5.213 133.199  0.00  0.00    +0.000 A 
ATOM      6  C   UNL     1      -5.757   4.390 134.309  0.00  0.00    +0.000 A 
ATOM      7  C   UNL     1      -6.629   3.342 134.556  0.00  0.00    +0.000 A 
ATOM      8  C   UNL     1      -7.695   3.114 133.690  0.00  0.00    +0.000 A 
ATOM      9  C   UNL     1      -7.832   3.841 132.493  0.00  0.00    +0.000 A 
ATOM     10  N   UNL     1      -8.702   3.331 131.487  0.00  0.00    +0.000 N 
ATOM     11  C   UNL     1      -9.536   4.150 130.729  0.00  0.00    +0.000 C 
ATOM     12  O   UNL     1     -10.286   3.664 129.873  0.00  0.00    +0.000 OA
ENDROOT
BRANCH   3  13
ATOM     13  C   UNL     1      -5.808   6.304 130.453  0.00  0.00    +0.000 A 
ATOM     14  C   UNL     1      -5.016   5.436 129.694  0.00  0.00    +0.000 A 
ATOM     15  C   UNL     1      -3.768   5.862 129.221  0.00  0.00    +0.000 A 
ATOM     16  C   UNL     1      -3.353   7.179 129.424  0.00  0.00    +0.000 A 
ATOM     17  C   UNL     1      -4.191   8.077 130.083  0.00  0.00    +0.000 A 
ATOM     18  C   UNL     1      -5.396   7.631 130.637  0.00  0.00    +0.000 A 
ENDBRANCH   3  13
BRANCH   1  21
ATOM     19  C   UNL     1     -11.746   6.602 131.070  0.00  0.00    +0.000 C 
ATOM     20  O   UNL     1     -11.849   6.344 132.268  0.00  0.00    +0.000 OA
ATOM     21  N   UNL     1     -10.580   6.355 130.374  0.00  0.00    +0.000 N 
ATOM     22  H   UNL     1     -10.470   6.558 129.394  0.00  0.00    +0.000 HD
BRANCH  19  23
ATOM     23  C   UNL     1     -12.891   7.216 130.267  0.00  0.00    +0.000 C 
BRANCH  23  24
ATOM     24  C   UNL     1     -12.503   8.615 129.766  0.00  0.00    +0.000 C 
BRANCH  24  25
ATOM     25  C   UNL     1     -12.440   8.739 128.242  0.00  0.00    +0.000 C 
BRANCH  25  27
ATOM     26  C   UNL     1     -11.037   7.618 126.381  0.00  0.00    +0.000 C 
ATOM     27  C   UNL     1     -11.072   8.322 127.713  0.00  0.00    +0.000 C 
ATOM     28  O   UNL     1     -10.027   8.536 128.326  0.00  0.00    +0.000 OA
ENDBRANCH  25  27
ENDBRANCH  24  25
ENDBRANCH  23  24
ENDBRANCH  19  23
ENDBRANCH   1  21
BRANCH  10  29
ATOM     29  C   UNL     1      -8.755   1.882 131.198  0.00  0.00    +0.000 C 
BRANCH  29  30
ATOM     30  C   UNL     1      -7.790   1.313 130.144  0.00  0.00    +0.000 C 
ATOM     31  O   UNL     1      -8.127   1.061 128.980  0.00  0.00    +0.000 OA
ATOM     32  N   UNL     1      -6.495   1.061 130.539  0.00  0.00    +0.000 N 
ATOM     33  H   UNL     1      -6.302   0.810 131.503  0.00  0.00    +0.000 HD
BRANCH  32  34
ATOM     34  C   UNL     1      -5.569   0.715 129.482  0.00  0.00    +0.000 C 
BRANCH  34  35
ATOM     35  C   UNL     1      -4.315   1.569 129.427  0.00  0.00    +0.000 C 
BRANCH  35  36
ATOM     36  C   UNL     1      -4.209   2.315 128.116  0.00  0.00    +0.000 A 
ATOM     37  C   UNL     1      -2.957   2.764 127.681  0.00  0.00    +0.000 A 
ATOM     38  C   UNL     1      -2.845   3.514 126.511  0.00  0.00    +0.000 A 
ATOM     39  C   UNL     1      -3.989   3.909 125.819  0.00  0.00    +0.000 A 
ATOM     40  C   UNL     1      -5.234   3.447 126.230  0.00  0.00    +0.000 A 
ATOM     41 CL   UNL     1      -6.660   3.971 125.423  0.00  0.00    +0.000 Cl
ATOM     42  C   UNL     1      -5.336   2.590 127.322  0.00  0.00    +0.000 A 
ENDBRANCH  35  36
ENDBRANCH  34  35
ENDBRANCH  32  34
ENDBRANCH  29  30
ENDBRANCH  10  29
TORSDOF 11
ENDMDL
MODEL 3
REMARK VINA RESULT:      -8.5      2.646      4.668
REMARK  Name = CHEMBL278802
REMARK  12 active torsions:
REMARK  status: ('A' for Active; 'I' for Inactive)
REMARK    1  A    between atoms: C_1  and  C_2
REMARK    2  A    between atoms: C_2  and  C_4
REMARK    3  A    between atoms: C_4  and  C_5
REMARK    4  A    between atoms: C_5  and  C_6
REMARK    5  A    between atoms: C_6  and  C_7
REMARK    6  A    between atoms: N_9  and  C_10
REMARK    7  A    between atoms: C_12  and  C_13
REMARK    8  A    between atoms: N_25  and  C_26
REMARK    9  A    between atoms: C_26  and  C_27
REMARK   10  A    between atoms: N_29  and  C_30
REMARK   11  A    between atoms: C_30  and  C_31
REMARK   12  A    between atoms: C_31  and  C_32
REMARK                            x       y       z     vdW  Elec       q    Type
REMARK                         _______ _______ _______ _____ _____    ______ ____
ROOT
ATOM      1  C   UNL     1      -9.345   5.463 130.930  0.00  0.00    +0.000 C 
ATOM      2  N   UNL     1      -8.079   6.007 130.408  0.00  0.00    +0.000 NA
ATOM      3  C   UNL     1      -6.974   5.689 131.013  0.00  0.00    +0.000 C 
ATOM      4  C   UNL     1      -6.877   4.871 132.270  0.00  0.00    +0.000 A 
ATOM      5  C   UNL     1      -5.880   5.212 133.208  0.00  0.00    +0.000 A 
ATOM      6  C   UNL     1      -5.688   4.452 134.363  0.00  0.00    +0.000 A 
ATOM      7  C   UNL     1      -6.536   3.391 134.637  0.00  0.00    +0.000 A 
ATOM      8  C   UNL     1      -7.566   3.086 133.753  0.00  0.00    +0.000 A 
ATOM      9  C   UNL     1      -7.689   3.749 132.517  0.00  0.00    +0.000 A 
ATOM     10  N   UNL     1      -8.511   3.161 131.513  0.00  0.00    +0.000 N 
ATOM     11  C   UNL     1      -9.345   3.916 130.690  0.00  0.00    +0.000 C 
ATOM     12  O   UNL     1     -10.054   3.364 129.838  0.00  0.00    +0.000 OA
ENDROOT
BRANCH   3  13
ATOM     13  C   UNL     1      -5.677   6.170 130.416  0.00  0.00    +0.000 A 
ATOM     14  C   UNL     1      -4.858   5.302 129.686  0.00  0.00    +0.000 A 
ATOM     15  C   UNL     1      -3.609   5.740 129.228  0.00  0.00    +0.000 A 
ATOM     16  C   UNL     1      -3.217   7.066 129.416  0.00  0.00    +0.000 A 
ATOM     17  C   UNL     1      -4.081   7.961 130.044  0.00  0.00    +0.000 A 
ATOM     18  C   UNL     1      -5.288   7.507 130.584  0.00  0.00    +0.000 A 
ENDBRANCH   3  13
BRANCH   1  21
ATOM     19  C   UNL     1     -11.592   6.426 130.869  0.00  0.00    +0.000 C 
ATOM     20  O   UNL     1     -11.679   6.328 132.092  0.00  0.00    +0.000 OA
ATOM     21  N   UNL     1     -10.443   6.066 130.194  0.00  0.00    +0.000 N 
ATOM     22  H   UNL     1     -10.347   6.138 129.194  0.00  0.00    +0.000 HD
BRANCH  19  23
ATOM     23  C   UNL     1     -12.739   6.956 130.010  0.00  0.00    +0.000 C 
BRANCH  23  24
ATOM     24  C   UNL     1     -12.613   8.476 129.827  0.00  0.00    +0.000 C 
BRANCH  24  25
ATOM     25  C   UNL     1     -12.410   8.916 128.376  0.00  0.00    +0.000 C 
BRANCH  25  27
ATOM     26  C   UNL     1     -11.186   7.538 126.563  0.00  0.00    +0.000 C 
ATOM     27  C   UNL     1     -11.101   8.372 127.814  0.00  0.00    +0.000 C 
ATOM     28  O   UNL     1     -10.010   8.588 128.341  0.00  0.00    +0.000 OA
ENDBRANCH  25  27
ENDBRANCH  24  25
ENDBRANCH  23  24
ENDBRANCH  19  23
ENDBRANCH   1  21
BRANCH  10  29
ATOM     29  C   UNL     1      -8.511   1.699 131.296  0.00  0.00    +0.000 C 
BRANCH  29  30
ATOM     30  C   UNL     1      -7.603   1.125 130.196  0.00  0.00    +0.000 C 
ATOM     31  O   UNL     1      -6.381   0.985 130.328  0.00  0.00    +0.000 OA
ATOM     32  N   UNL     1      -8.194   0.772 129.003  0.00  0.00    +0.000 N 
ATOM     33  H   UNL     1      -9.023   1.264 128.686  0.00  0.00    +0.000 HD
BRANCH  32  34
ATOM     34  C   UNL     1      -7.352   0.058 128.068  0.00  0.00    +0.000 C 
BRANCH  34  35
ATOM     35  C   UNL     1      -7.440  -1.456 128.157  0.00  0.00    +0.000 C 
BRANCH  35  36
ATOM     36  C   UNL     1      -7.549  -2.086 126.787  0.00  0.00    +0.000 A 
ATOM     37  C   UNL     1      -8.773  -2.623 126.374  0.00  0.00    +0.000 A 
ATOM     38  C   UNL     1      -8.880  -3.271 125.144  0.00  0.00    +0.000 A 
ATOM     39  C   UNL     1      -7.746  -3.479 124.361  0.00  0.00    +0.000 A 
ATOM     40  C   UNL     1      -6.531  -2.926 124.751  0.00  0.00    +0.000 A 
ATOM     41 CL   UNL     1      -5.111  -3.221 123.826  0.00  0.00    +0.000 Cl
ATOM     42  C   UNL     1      -6.450  -2.167 125.914  0.00  0.00    +0.000 A 
ENDBRANCH  35  36
ENDBRANCH  34  35
ENDBRANCH  32  34
ENDBRANCH  29  30
ENDBRANCH  10  29
TORSDOF 11
ENDMDL
MODEL 4
REMARK VINA RESULT:      -8.4      1.507      2.055
REMARK  Name = CHEMBL278802
REMARK  12 active torsions:
REMARK  status: ('A' for Active; 'I' for Inactive)
REMARK    1  A    between atoms: C_1  and  C_2
REMARK    2  A    between atoms: C_2  and  C_4
REMARK    3  A    between atoms: C_4  and  C_5
REMARK    4  A    between atoms: C_5  and  C_6
REMARK    5  A    between atoms: C_6  and  C_7
REMARK    6  A    between atoms: N_9  and  C_10
REMARK    7  A    between atoms: C_12  and  C_13
REMARK    8  A    between atoms: N_25  and  C_26
REMARK    9  A    between atoms: C_26  and  C_27
REMARK   10  A    between atoms: N_29  and  C_30
REMARK   11  A    between atoms: C_30  and  C_31
REMARK   12  A    between atoms: C_31  and  C_32
REMARK                            x       y       z     vdW  Elec       q    Type
REMARK                         _______ _______ _______ _____ _____    ______ ____
ROOT
ATOM      1  C   UNL     1      -8.350   4.733 129.374  0.00  0.00    +0.000 C 
ATOM      2  N   UNL     1      -8.456   4.124 128.036  0.00  0.00    +0.000 NA
ATOM      3  C   UNL     1      -7.360   3.818 127.408  0.00  0.00    +0.000 C 
ATOM      4  C   UNL     1      -5.969   4.111 127.897  0.00  0.00    +0.000 A 
ATOM      5  C   UNL     1      -4.993   4.466 126.943  0.00  0.00    +0.000 A 
ATOM      6  C   UNL     1      -3.665   4.682 127.318  0.00  0.00    +0.000 A 
ATOM      7  C   UNL     1      -3.310   4.626 128.656  0.00  0.00    +0.000 A 
ATOM      8  C   UNL     1      -4.279   4.344 129.614  0.00  0.00    +0.000 A 
ATOM      9  C   UNL     1      -5.589   3.984 129.246  0.00  0.00    +0.000 A 
ATOM     10  N   UNL     1      -6.420   3.359 130.220  0.00  0.00    +0.000 N 
ATOM     11  C   UNL     1      -7.774   3.656 130.354  0.00  0.00    +0.000 C 
ATOM     12  O   UNL     1      -8.457   3.099 131.223  0.00  0.00    +0.000 OA
ENDROOT
BRANCH   3  13
ATOM     13  C   UNL     1      -7.478   3.109 126.085  0.00  0.00    +0.000 A 
ATOM     14  C   UNL     1      -6.964   1.819 125.914  0.00  0.00    +0.000 A 
ATOM     15  C   UNL     1      -6.991   1.218 124.649  0.00  0.00    +0.000 A 
ATOM     16  C   UNL     1      -7.612   1.863 123.578  0.00  0.00    +0.000 A 
ATOM     17  C   UNL     1      -8.224   3.100 123.774  0.00  0.00    +0.000 A 
ATOM     18  C   UNL     1      -8.119   3.744 125.011  0.00  0.00    +0.000 A 
ENDBRANCH   3  13
BRANCH   1  21
ATOM     19  C   UNL     1      -9.857   6.326 130.458  0.00  0.00    +0.000 C 
ATOM     20  O   UNL     1      -8.930   7.121 130.601  0.00  0.00    +0.000 OA
ATOM     21  N   UNL     1      -9.682   5.120 129.810  0.00  0.00    +0.000 N 
ATOM     22  H   UNL     1     -10.424   4.452 129.679  0.00  0.00    +0.000 HD
BRANCH  19  23
ATOM     23  C   UNL     1     -11.264   6.612 130.977  0.00  0.00    +0.000 C 
BRANCH  23  24
ATOM     24  C   UNL     1     -11.948   7.681 130.111  0.00  0.00    +0.000 C 
BRANCH  24  25
ATOM     25  C   UNL     1     -12.743   7.117 128.933  0.00  0.00    +0.000 C 
BRANCH  25  27
ATOM     26  C   UNL     1     -10.902   8.341 127.592  0.00  0.00    +0.000 C 
ATOM     27  C   UNL     1     -11.986   7.297 127.621  0.00  0.00    +0.000 C 
ATOM     28  O   UNL     1     -12.232   6.632 126.615  0.00  0.00    +0.000 OA
ENDBRANCH  25  27
ENDBRANCH  24  25
ENDBRANCH  23  24
ENDBRANCH  19  23
ENDBRANCH   1  21
BRANCH  10  29
ATOM     29  C   UNL     1      -5.867   2.347 131.146  0.00  0.00    +0.000 C 
BRANCH  29  30
ATOM     30  C   UNL     1      -5.912   0.870 130.723  0.00  0.00    +0.000 C 
ATOM     31  O   UNL     1      -6.712   0.052 131.196  0.00  0.00    +0.000 OA
ATOM     32  N   UNL     1      -4.998   0.450 129.783  0.00  0.00    +0.000 N 
ATOM     33  H   UNL     1      -4.093   0.904 129.723  0.00  0.00    +0.000 HD
BRANCH  32  34
ATOM     34  C   UNL     1      -5.194  -0.887 129.266  0.00  0.00    +0.000 C 
BRANCH  34  35
ATOM     35  C   UNL     1      -5.681  -0.951 127.829  0.00  0.00    +0.000 C 
BRANCH  35  36
ATOM     36  C   UNL     1      -6.894  -1.843 127.694  0.00  0.00    +0.000 A 
ATOM     37  C   UNL     1      -7.327  -2.584 128.798  0.00  0.00    +0.000 A 
ATOM     38  C   UNL     1      -8.401  -3.466 128.678  0.00  0.00    +0.000 A 
ATOM     39  C   UNL     1      -8.985  -3.693 127.433  0.00  0.00    +0.000 A 
ATOM     40  C   UNL     1      -8.578  -2.943 126.336  0.00  0.00    +0.000 A 
ATOM     41 CL   UNL     1      -9.248  -3.250 124.782  0.00  0.00    +0.000 Cl
ATOM     42  C   UNL     1      -7.595  -1.968 126.482  0.00  0.00    +0.000 A 
ENDBRANCH  35  36
ENDBRANCH  34  35
ENDBRANCH  32  34
ENDBRANCH  29  30
ENDBRANCH  10  29
TORSDOF 11
ENDMDL
MODEL 5
REMARK VINA RESULT:      -8.3      3.087      6.311
REMARK  Name = CHEMBL278802
REMARK  12 active torsions:
REMARK  status: ('A' for Active; 'I' for Inactive)
REMARK    1  A    between atoms: C_1  and  C_2
REMARK    2  A    between atoms: C_2  and  C_4
REMARK    3  A    between atoms: C_4  and  C_5
REMARK    4  A    between atoms: C_5  and  C_6
REMARK    5  A    between atoms: C_6  and  C_7
REMARK    6  A    between atoms: N_9  and  C_10
REMARK    7  A    between atoms: C_12  and  C_13
REMARK    8  A    between atoms: N_25  and  C_26
REMARK    9  A    between atoms: C_26  and  C_27
REMARK   10  A    between atoms: N_29  and  C_30
REMARK   11  A    between atoms: C_30  and  C_31
REMARK   12  A    between atoms: C_31  and  C_32
REMARK                            x       y       z     vdW  Elec       q    Type
REMARK                         _______ _______ _______ _____ _____    ______ ____
ROOT
ATOM      1  C   UNL     1      -7.915   0.305 130.629  0.00  0.00    +0.000 C 
ATOM      2  N   UNL     1      -7.426  -0.813 131.455  0.00  0.00    +0.000 NA
ATOM      3  C   UNL     1      -7.330  -1.989 130.910  0.00  0.00    +0.000 C 
ATOM      4  C   UNL     1      -7.761  -2.335 129.512  0.00  0.00    +0.000 A 
ATOM      5  C   UNL     1      -8.331  -3.605 129.289  0.00  0.00    +0.000 A 
ATOM      6  C   UNL     1      -8.688  -4.020 128.004  0.00  0.00    +0.000 A 
ATOM      7  C   UNL     1      -8.555  -3.145 126.938  0.00  0.00    +0.000 A 
ATOM      8  C   UNL     1      -8.057  -1.863 127.156  0.00  0.00    +0.000 A 
ATOM      9  C   UNL     1      -7.560  -1.477 128.415  0.00  0.00    +0.000 A 
ATOM     10  N   UNL     1      -6.740  -0.314 128.491  0.00  0.00    +0.000 N 
ATOM     11  C   UNL     1      -6.838   0.606 129.533  0.00  0.00    +0.000 C 
ATOM     12  O   UNL     1      -6.115   1.611 129.554  0.00  0.00    +0.000 OA
ENDROOT
BRANCH   3  13
ATOM     13  C   UNL     1      -6.739  -3.104 131.732  0.00  0.00    +0.000 A 
ATOM     14  C   UNL     1      -5.759  -3.947 131.197  0.00  0.00    +0.000 A 
ATOM     15  C   UNL     1      -5.297  -5.041 131.941  0.00  0.00    +0.000 A 
ATOM     16  C   UNL     1      -5.742  -5.240 133.248  0.00  0.00    +0.000 A 
ATOM     17  C   UNL     1      -6.634  -4.335 133.822  0.00  0.00    +0.000 A 
ATOM     18  C   UNL     1      -7.167  -3.296 133.053  0.00  0.00    +0.000 A 
ENDBRANCH   3  13
BRANCH   1  21
ATOM     19  C   UNL     1      -9.291   1.695 132.097  0.00  0.00    +0.000 C 
ATOM     20  O   UNL     1     -10.216   0.889 132.011  0.00  0.00    +0.000 OA
ATOM     21  N   UNL     1      -8.076   1.471 131.482  0.00  0.00    +0.000 N 
ATOM     22  H   UNL     1      -7.303   2.114 131.538  0.00  0.00    +0.000 HD
BRANCH  19  23
ATOM     23  C   UNL     1      -9.413   2.994 132.890  0.00  0.00    +0.000 C 
BRANCH  23  24
ATOM     24  C   UNL     1      -8.170   3.204 133.768  0.00  0.00    +0.000 C 
BRANCH  24  25
ATOM     25  C   UNL     1      -8.089   4.587 134.416  0.00  0.00    +0.000 C 
BRANCH  25  27
ATOM     26  C   UNL     1      -7.018   5.925 132.479  0.00  0.00    +0.000 C 
ATOM     27  C   UNL     1      -8.208   5.692 133.371  0.00  0.00    +0.000 C 
ATOM     28  O   UNL     1      -9.221   6.379 133.243  0.00  0.00    +0.000 OA
ENDBRANCH  25  27
ENDBRANCH  24  25
ENDBRANCH  23  24
ENDBRANCH  19  23
ENDBRANCH   1  21
BRANCH  10  29
ATOM     29  C   UNL     1      -5.730  -0.032 127.449  0.00  0.00    +0.000 C 
BRANCH  29  30
ATOM     30  C   UNL     1      -6.052   1.037 126.393  0.00  0.00    +0.000 C 
ATOM     31  O   UNL     1      -5.282   1.964 126.107  0.00  0.00    +0.000 OA
ATOM     32  N   UNL     1      -7.269   0.955 125.755  0.00  0.00    +0.000 N 
ATOM     33  H   UNL     1      -8.065   0.551 126.238  0.00  0.00    +0.000 HD
BRANCH  32  34
ATOM     34  C   UNL     1      -7.457   1.852 124.636  0.00  0.00    +0.000 C 
BRANCH  34  35
ATOM     35  C   UNL     1      -7.217   1.231 123.271  0.00  0.00    +0.000 C 
BRANCH  35  36
ATOM     36  C   UNL     1      -7.507  -0.253 123.279  0.00  0.00    +0.000 A 
ATOM     37  C   UNL     1      -8.829  -0.695 123.164  0.00  0.00    +0.000 A 
ATOM     38  C   UNL     1      -9.127  -2.055 123.240  0.00  0.00    +0.000 A 
ATOM     39  C   UNL     1      -8.123  -2.977 123.533  0.00  0.00    +0.000 A 
ATOM     40  C   UNL     1      -6.804  -2.550 123.624  0.00  0.00    +0.000 A 
ATOM     41 CL   UNL     1      -5.561  -3.665 124.041  0.00  0.00    +0.000 Cl
ATOM     42  C   UNL     1      -6.487  -1.211 123.419  0.00  0.00    +0.000 A 
ENDBRANCH  35  36
ENDBRANCH  34  35
ENDBRANCH  32  34
ENDBRANCH  29  30
ENDBRANCH  10  29
TORSDOF 11
ENDMDL
MODEL 6
REMARK VINA RESULT:      -8.3      3.350      6.966
REMARK  Name = CHEMBL278802
REMARK  12 active torsions:
REMARK  status: ('A' for Active; 'I' for Inactive)
REMARK    1  A    between atoms: C_1  and  C_2
REMARK    2  A    between atoms: C_2  and  C_4
REMARK    3  A    between atoms: C_4  and  C_5
REMARK    4  A    between atoms: C_5  and  C_6
REMARK    5  A    between atoms: C_6  and  C_7
REMARK    6  A    between atoms: N_9  and  C_10
REMARK    7  A    between atoms: C_12  and  C_13
REMARK    8  A    between atoms: N_25  and  C_26
REMARK    9  A    between atoms: C_26  and  C_27
REMARK   10  A    between atoms: N_29  and  C_30
REMARK   11  A    between atoms: C_30  and  C_31
REMARK   12  A    between atoms: C_31  and  C_32
REMARK                            x       y       z     vdW  Elec       q    Type
REMARK                         _______ _______ _______ _____ _____    ______ ____
ROOT
ATOM      1  C   UNL     1      -5.205   3.963 126.873  0.00  0.00    +0.000 C 
ATOM      2  N   UNL     1      -5.611   4.135 125.467  0.00  0.00    +0.000 NA
ATOM      3  C   UNL     1      -6.190   3.139 124.865  0.00  0.00    +0.000 C 
ATOM      4  C   UNL     1      -6.411   1.776 125.460  0.00  0.00    +0.000 A 
ATOM      5  C   UNL     1      -6.298   0.656 124.610  0.00  0.00    +0.000 A 
ATOM      6  C   UNL     1      -6.560  -0.633 125.078  0.00  0.00    +0.000 A 
ATOM      7  C   UNL     1      -6.860  -0.831 126.417  0.00  0.00    +0.000 A 
ATOM      8  C   UNL     1      -6.908   0.260 127.280  0.00  0.00    +0.000 A 
ATOM      9  C   UNL     1      -6.788   1.578 126.801  0.00  0.00    +0.000 A 
ATOM     10  N   UNL     1      -7.205   2.646 127.646  0.00  0.00    +0.000 N 
ATOM     11  C   UNL     1      -6.502   3.845 127.742  0.00  0.00    +0.000 C 
ATOM     12  O   UNL     1      -6.893   4.744 128.499  0.00  0.00    +0.000 OA
ENDROOT
BRANCH   3  13
ATOM     13  C   UNL     1      -6.688   3.354 123.460  0.00  0.00    +0.000 A 
ATOM     14  C   UNL     1      -8.034   3.150 123.137  0.00  0.00    +0.000 A 
ATOM     15  C   UNL     1      -8.456   3.255 121.806  0.00  0.00    +0.000 A 
ATOM     16  C   UNL     1      -7.559   3.653 120.814  0.00  0.00    +0.000 A 
ATOM     17  C   UNL     1      -6.244   3.965 121.153  0.00  0.00    +0.000 A 
ATOM     18  C   UNL     1      -5.795   3.773 122.464  0.00  0.00    +0.000 A 
ENDBRANCH   3  13
BRANCH   1  21
ATOM     19  C   UNL     1      -3.120   5.009 127.608  0.00  0.00    +0.000 C 
ATOM     20  O   UNL     1      -2.526   3.940 127.480  0.00  0.00    +0.000 OA
ATOM     21  N   UNL     1      -4.455   5.139 127.282  0.00  0.00    +0.000 N 
ATOM     22  H   UNL     1      -4.963   6.004 127.376  0.00  0.00    +0.000 HD
BRANCH  19  23
ATOM     23  C   UNL     1      -2.429   6.269 128.128  0.00  0.00    +0.000 C 
BRANCH  23  24
ATOM     24  C   UNL     1      -2.098   6.120 129.620  0.00  0.00    +0.000 C 
BRANCH  24  25
ATOM     25  C   UNL     1      -3.325   5.975 130.522  0.00  0.00    +0.000 C 
BRANCH  25  27
ATOM     26  C   UNL     1      -3.418   8.473 131.185  0.00  0.00    +0.000 C 
ATOM     27  C   UNL     1      -4.115   7.278 130.589  0.00  0.00    +0.000 C 
ATOM     28  O   UNL     1      -5.273   7.376 130.184  0.00  0.00    +0.000 OA
ENDBRANCH  25  27
ENDBRANCH  24  25
ENDBRANCH  23  24
ENDBRANCH  19  23
ENDBRANCH   1  21
BRANCH  10  29
ATOM     29  C   UNL     1      -8.427   2.526 128.469  0.00  0.00    +0.000 C 
BRANCH  29  30
ATOM     30  C   UNL     1      -8.333   2.857 129.967  0.00  0.00    +0.000 C 
ATOM     31  O   UNL     1      -7.536   2.306 130.736  0.00  0.00    +0.000 OA
ATOM     32  N   UNL     1      -9.200   3.805 130.464  0.00  0.00    +0.000 N 
ATOM     33  H   UNL     1     -10.112   3.928 130.036  0.00  0.00    +0.000 HD
BRANCH  32  34
ATOM     34  C   UNL     1      -8.954   4.233 131.824  0.00  0.00    +0.000 C 
BRANCH  34  35
ATOM     35  C   UNL     1      -8.800   5.733 132.004  0.00  0.00    +0.000 C 
BRANCH  35  36
ATOM     36  C   UNL     1      -9.937   6.489 131.354  0.00  0.00    +0.000 A 
ATOM     37  C   UNL     1     -11.221   6.402 131.903  0.00  0.00    +0.000 A 
ATOM     38  C   UNL     1     -12.298   7.033 131.281  0.00  0.00    +0.000 A 
ATOM     39  C   UNL     1     -12.123   7.669 130.053  0.00  0.00    +0.000 A 
ATOM     40  C   UNL     1     -10.847   7.781 129.513  0.00  0.00    +0.000 A 
ATOM     41 CL   UNL     1     -10.622   8.513 127.972  0.00  0.00    +0.000 Cl
ATOM     42  C   UNL     1      -9.751   7.266 130.197  0.00  0.00    +0.000 A 
ENDBRANCH  35  36
ENDBRANCH  34  35
ENDBRANCH  32  34
ENDBRANCH  29  30
ENDBRANCH  10  29
TORSDOF 11
ENDMDL
MODEL 7
REMARK VINA RESULT:      -8.2      3.118      7.499
REMARK  Name = CHEMBL278802
REMARK  12 active torsions:
REMARK  status: ('A' for Active; 'I' for Inactive)
REMARK    1  A    between atoms: C_1  and  C_2
REMARK    2  A    between atoms: C_2  and  C_4
REMARK    3  A    between atoms: C_4  and  C_5
REMARK    4  A    between atoms: C_5  and  C_6
REMARK    5  A    between atoms: C_6  and  C_7
REMARK    6  A    between atoms: N_9  and  C_10
REMARK    7  A    between atoms: C_12  and  C_13
REMARK    8  A    between atoms: N_25  and  C_26
REMARK    9  A    between atoms: C_26  and  C_27
REMARK   10  A    between atoms: N_29  and  C_30
REMARK   11  A    between atoms: C_30  and  C_31
REMARK   12  A    between atoms: C_31  and  C_32
REMARK                            x       y       z     vdW  Elec       q    Type
REMARK                         _______ _______ _______ _____ _____    ______ ____
ROOT
ATOM      1  C   UNL     1      -5.531   0.903 127.647  0.00  0.00    +0.000 C 
ATOM      2  N   UNL     1      -6.066  -0.079 126.687  0.00  0.00    +0.000 NA
ATOM      3  C   UNL     1      -6.792  -1.057 127.143  0.00  0.00    +0.000 C 
ATOM      4  C   UNL     1      -7.068  -1.328 128.595  0.00  0.00    +0.000 A 
ATOM      5  C   UNL     1      -7.144  -2.672 129.015  0.00  0.00    +0.000 A 
ATOM      6  C   UNL     1      -7.468  -2.998 130.334  0.00  0.00    +0.000 A 
ATOM      7  C   UNL     1      -7.642  -1.990 131.268  0.00  0.00    +0.000 A 
ATOM      8  C   UNL     1      -7.502  -0.660 130.881  0.00  0.00    +0.000 A 
ATOM      9  C   UNL     1      -7.317  -0.307 129.530  0.00  0.00    +0.000 A 
ATOM     10  N   UNL     1      -7.547   1.045 129.147  0.00  0.00    +0.000 N 
ATOM     11  C   UNL     1      -6.735   1.715 128.234  0.00  0.00    +0.000 C 
ATOM     12  O   UNL     1      -6.962   2.895 127.938  0.00  0.00    +0.000 OA
ENDROOT
BRANCH   3  13
ATOM     13  C   UNL     1      -7.414  -1.999 126.146  0.00  0.00    +0.000 A 
ATOM     14  C   UNL     1      -6.616  -2.774 125.297  0.00  0.00    +0.000 A 
ATOM     15  C   UNL     1      -7.213  -3.566 124.308  0.00  0.00    +0.000 A 
ATOM     16  C   UNL     1      -8.603  -3.657 124.225  0.00  0.00    +0.000 A 
ATOM     17  C   UNL     1      -9.398  -2.974 125.143  0.00  0.00    +0.000 A 
ATOM     18  C   UNL     1      -8.809  -2.111 126.073  0.00  0.00    +0.000 A 
ENDBRANCH   3  13
BRANCH   1  21
ATOM     19  C   UNL     1      -3.676   2.496 127.638  0.00  0.00    +0.000 C 
ATOM     20  O   UNL     1      -3.492   2.305 128.839  0.00  0.00    +0.000 OA
ATOM     21  N   UNL     1      -4.641   1.805 126.935  0.00  0.00    +0.000 N 
ATOM     22  H   UNL     1      -4.810   1.941 125.951  0.00  0.00    +0.000 HD
BRANCH  19  23
ATOM     23  C   UNL     1      -2.851   3.501 126.837  0.00  0.00    +0.000 C 
BRANCH  23  24
ATOM     24  C   UNL     1      -2.594   4.767 127.669  0.00  0.00    +0.000 C 
BRANCH  24  25
ATOM     25  C   UNL     1      -3.792   5.715 127.750  0.00  0.00    +0.000 C 
BRANCH  25  27
ATOM     26  C   UNL     1      -3.138   5.769 130.252  0.00  0.00    +0.000 C 
ATOM     27  C   UNL     1      -3.832   6.436 129.094  0.00  0.00    +0.000 C 
ATOM     28  O   UNL     1      -4.402   7.515 129.253  0.00  0.00    +0.000 OA
ENDBRANCH  25  27
ENDBRANCH  24  25
ENDBRANCH  23  24
ENDBRANCH  19  23
ENDBRANCH   1  21
BRANCH  10  29
ATOM     29  C   UNL     1      -8.681   1.808 129.709  0.00  0.00    +0.000 C 
BRANCH  29  30
ATOM     30  C   UNL     1      -8.376   2.946 130.697  0.00  0.00    +0.000 C 
ATOM     31  O   UNL     1      -7.841   2.765 131.798  0.00  0.00    +0.000 OA
ATOM     32  N   UNL     1      -8.739   4.222 130.329  0.00  0.00    +0.000 N 
ATOM     33  H   UNL     1      -9.538   4.363 129.720  0.00  0.00    +0.000 HD
BRANCH  32  34
ATOM     34  C   UNL     1      -8.264   5.286 131.187  0.00  0.00    +0.000 C 
BRANCH  34  35
ATOM     35  C   UNL     1      -9.319   5.897 132.092  0.00  0.00    +0.000 C 
BRANCH  35  36
ATOM     36  C   UNL     1     -10.372   6.635 131.296  0.00  0.00    +0.000 A 
ATOM     37  C   UNL     1     -11.702   6.609 131.727  0.00  0.00    +0.000 A 
ATOM     38  C   UNL     1     -12.701   7.223 130.972  0.00  0.00    +0.000 A 
ATOM     39  C   UNL     1     -12.398   7.779 129.730  0.00  0.00    +0.000 A 
ATOM     40  C   UNL     1     -11.075   7.832 129.305  0.00  0.00    +0.000 A 
ATOM     41 CL   UNL     1     -10.690   8.462 127.751  0.00  0.00    +0.000 Cl
ATOM     42  C   UNL     1     -10.060   7.336 130.117  0.00  0.00    +0.000 A 
ENDBRANCH  35  36
ENDBRANCH  34  35
ENDBRANCH  32  34
ENDBRANCH  29  30
ENDBRANCH  10  29
TORSDOF 11
ENDMDL
MODEL 8
REMARK VINA RESULT:      -8.1      1.349      2.495
REMARK  Name = CHEMBL278802
REMARK  12 active torsions:
REMARK  status: ('A' for Active; 'I' for Inactive)
REMARK    1  A    between atoms: C_1  and  C_2
REMARK    2  A    between atoms: C_2  and  C_4
REMARK    3  A    between atoms: C_4  and  C_5
REMARK    4  A    between atoms: C_5  and  C_6
REMARK    5  A    between atoms: C_6  and  C_7
REMARK    6  A    between atoms: N_9  and  C_10
REMARK    7  A    between atoms: C_12  and  C_13
REMARK    8  A    between atoms: N_25  and  C_26
REMARK    9  A    between atoms: C_26  and  C_27
REMARK   10  A    between atoms: N_29  and  C_30
REMARK   11  A    between atoms: C_30  and  C_31
REMARK   12  A    between atoms: C_31  and  C_32
REMARK                            x       y       z     vdW  Elec       q    Type
REMARK                         _______ _______ _______ _____ _____    ______ ____
ROOT
ATOM      1  C   UNL     1      -7.526   4.355 129.052  0.00  0.00    +0.000 C 
ATOM      2  N   UNL     1      -7.982   3.780 127.774  0.00  0.00    +0.000 NA
ATOM      3  C   UNL     1      -7.089   3.313 126.953  0.00  0.00    +0.000 C 
ATOM      4  C   UNL     1      -5.601   3.384 127.157  0.00  0.00    +0.000 A 
ATOM      5  C   UNL     1      -4.787   3.590 126.025  0.00  0.00    +0.000 A 
ATOM      6  C   UNL     1      -3.394   3.596 126.131  0.00  0.00    +0.000 A 
ATOM      7  C   UNL     1      -2.799   3.476 127.376  0.00  0.00    +0.000 A 
ATOM      8  C   UNL     1      -3.595   3.340 128.510  0.00  0.00    +0.000 A 
ATOM      9  C   UNL     1      -4.991   3.189 128.410  0.00  0.00    +0.000 A 
ATOM     10  N   UNL     1      -5.701   2.693 129.540  0.00  0.00    +0.000 N 
ATOM     11  C   UNL     1      -6.942   3.194 129.926  0.00  0.00    +0.000 C 
ATOM     12  O   UNL     1      -7.520   2.743 130.924  0.00  0.00    +0.000 OA
ENDROOT
BRANCH   3  13
ATOM     13  C   UNL     1      -7.569   2.641 125.694  0.00  0.00    +0.000 A 
ATOM     14  C   UNL     1      -8.227   3.372 124.698  0.00  0.00    +0.000 A 
ATOM     15  C   UNL     1      -8.757   2.710 123.582  0.00  0.00    +0.000 A 
ATOM     16  C   UNL     1      -8.552   1.340 123.415  0.00  0.00    +0.000 A 
ATOM     17  C   UNL     1      -7.800   0.632 124.350  0.00  0.00    +0.000 A 
ATOM     18  C   UNL     1      -7.348   1.269 125.511  0.00  0.00    +0.000 A 
ENDBRANCH   3  13
BRANCH   1  21
ATOM     19  C   UNL     1      -8.520   6.129 130.411  0.00  0.00    +0.000 C 
ATOM     20  O   UNL     1      -7.459   6.752 130.393  0.00  0.00    +0.000 OA
ATOM     21  N   UNL     1      -8.672   4.939 129.729  0.00  0.00    +0.000 N 
ATOM     22  H   UNL     1      -9.530   4.411 129.727  0.00  0.00    +0.000 HD
BRANCH  19  23
ATOM     23  C   UNL     1      -9.742   6.624 131.182  0.00  0.00    +0.000 C 
BRANCH  23  24
ATOM     24  C   UNL     1      -9.982   5.749 132.423  0.00  0.00    +0.000 C 
BRANCH  24  25
ATOM     25  C   UNL     1      -8.838   5.775 133.438  0.00  0.00    +0.000 C 
BRANCH  25  27
ATOM     26  C   UNL     1      -7.213   4.156 134.630  0.00  0.00    +0.000 C 
ATOM     27  C   UNL     1      -8.553   4.379 133.981  0.00  0.00    +0.000 C 
ATOM     28  O   UNL     1      -9.364   3.457 133.904  0.00  0.00    +0.000 OA
ENDBRANCH  25  27
ENDBRANCH  24  25
ENDBRANCH  23  24
ENDBRANCH  19  23
ENDBRANCH   1  21
BRANCH  10  29
ATOM     29  C   UNL     1      -5.141   1.601 130.365  0.00  0.00    +0.000 C 
BRANCH  29  30
ATOM     30  C   UNL     1      -5.167   0.172 129.798  0.00  0.00    +0.000 C 
ATOM     31  O   UNL     1      -4.322  -0.687 130.081  0.00  0.00    +0.000 OA
ATOM     32  N   UNL     1      -6.179  -0.145 128.919  0.00  0.00    +0.000 N 
ATOM     33  H   UNL     1      -6.577   0.578 128.328  0.00  0.00    +0.000 HD
BRANCH  32  34
ATOM     34  C   UNL     1      -6.289  -1.542 128.561  0.00  0.00    +0.000 C 
BRANCH  34  35
ATOM     35  C   UNL     1      -7.684  -1.991 128.162  0.00  0.00    +0.000 C 
BRANCH  35  36
ATOM     36  C   UNL     1      -7.746  -2.374 126.701  0.00  0.00    +0.000 A 
ATOM     37  C   UNL     1      -8.984  -2.674 126.122  0.00  0.00    +0.000 A 
ATOM     38  C   UNL     1      -9.058  -3.097 124.795  0.00  0.00    +0.000 A 
ATOM     39  C   UNL     1      -7.892  -3.322 124.066  0.00  0.00    +0.000 A 
ATOM     40  C   UNL     1      -6.660  -3.003 124.624  0.00  0.00    +0.000 A 
ATOM     41 CL   UNL     1      -5.209  -3.328 123.759  0.00  0.00    +0.000 Cl
ATOM     42  C   UNL     1      -6.592  -2.457 125.902  0.00  0.00    +0.000 A 
ENDBRANCH  35  36
ENDBRANCH  34  35
ENDBRANCH  32  34
ENDBRANCH  29  30
ENDBRANCH  10  29
TORSDOF 11
ENDMDL
MODEL 9
REMARK VINA RESULT:      -8.0      3.061      7.251
REMARK  Name = CHEMBL278802
REMARK  12 active torsions:
REMARK  status: ('A' for Active; 'I' for Inactive)
REMARK    1  A    between atoms: C_1  and  C_2
REMARK    2  A    between atoms: C_2  and  C_4
REMARK    3  A    between atoms: C_4  and  C_5
REMARK    4  A    between atoms: C_5  and  C_6
REMARK    5  A    between atoms: C_6  and  C_7
REMARK    6  A    between atoms: N_9  and  C_10
REMARK    7  A    between atoms: C_12  and  C_13
REMARK    8  A    between atoms: N_25  and  C_26
REMARK    9  A    between atoms: C_26  and  C_27
REMARK   10  A    between atoms: N_29  and  C_30
REMARK   11  A    between atoms: C_30  and  C_31
REMARK   12  A    between atoms: C_31  and  C_32
REMARK                            x       y       z     vdW  Elec       q    Type
REMARK                         _______ _______ _______ _____ _____    ______ ____
ROOT
ATOM      1  C   UNL     1      -5.455   0.778 128.064  0.00  0.00    +0.000 C 
ATOM      2  N   UNL     1      -5.967  -0.119 127.013  0.00  0.00    +0.000 NA
ATOM      3  C   UNL     1      -6.715  -1.122 127.367  0.00  0.00    +0.000 C 
ATOM      4  C   UNL     1      -7.041  -1.504 128.783  0.00  0.00    +0.000 A 
ATOM      5  C   UNL     1      -7.141  -2.876 129.093  0.00  0.00    +0.000 A 
ATOM      6  C   UNL     1      -7.510  -3.302 130.371  0.00  0.00    +0.000 A 
ATOM      7  C   UNL     1      -7.706  -2.369 131.376  0.00  0.00    +0.000 A 
ATOM      8  C   UNL     1      -7.542  -1.014 131.100  0.00  0.00    +0.000 A 
ATOM      9  C   UNL     1      -7.311  -0.558 129.788  0.00  0.00    +0.000 A 
ATOM     10  N   UNL     1      -7.517   0.823 129.506  0.00  0.00    +0.000 N 
ATOM     11  C   UNL     1      -6.670   1.554 128.675  0.00  0.00    +0.000 C 
ATOM     12  O   UNL     1      -6.878   2.756 128.467  0.00  0.00    +0.000 OA
ENDROOT
BRANCH   3  13
ATOM     13  C   UNL     1      -7.312  -1.976 126.280  0.00  0.00    +0.000 A 
ATOM     14  C   UNL     1      -8.699  -2.120 126.162  0.00  0.00    +0.000 A 
ATOM     15  C   UNL     1      -9.231  -3.000 125.210  0.00  0.00    +0.000 A 
ATOM     16  C   UNL     1      -8.389  -3.663 124.318  0.00  0.00    +0.000 A 
ATOM     17  C   UNL     1      -7.014  -3.433 124.361  0.00  0.00    +0.000 A 
ATOM     18  C   UNL     1      -6.471  -2.628 125.367  0.00  0.00    +0.000 A 
ENDBRANCH   3  13
BRANCH   1  21
ATOM     19  C   UNL     1      -3.689   2.458 128.260  0.00  0.00    +0.000 C 
ATOM     20  O   UNL     1      -3.632   2.272 129.475  0.00  0.00    +0.000 OA
ATOM     21  N   UNL     1      -4.535   1.723 127.454  0.00  0.00    +0.000 N 
ATOM     22  H   UNL     1      -4.599   1.855 126.458  0.00  0.00    +0.000 HD
BRANCH  19  23
ATOM     23  C   UNL     1      -2.828   3.504 127.554  0.00  0.00    +0.000 C 
BRANCH  23  24
ATOM     24  C   UNL     1      -3.560   4.056 126.322  0.00  0.00    +0.000 C 
BRANCH  24  25
ATOM     25  C   UNL     1      -4.746   4.964 126.653  0.00  0.00    +0.000 C 
BRANCH  25  27
ATOM     26  C   UNL     1      -5.491   4.147 124.315  0.00  0.00    +0.000 C 
ATOM     27  C   UNL     1      -5.849   4.833 125.608  0.00  0.00    +0.000 C 
ATOM     28  O   UNL     1      -6.988   5.261 125.786  0.00  0.00    +0.000 OA
ENDBRANCH  25  27
ENDBRANCH  24  25
ENDBRANCH  23  24
ENDBRANCH  19  23
ENDBRANCH   1  21
BRANCH  10  29
ATOM     29  C   UNL     1      -8.663   1.552 130.091  0.00  0.00    +0.000 C 
BRANCH  29  30
ATOM     30  C   UNL     1      -8.411   2.438 131.322  0.00  0.00    +0.000 C 
ATOM     31  O   UNL     1      -8.551   2.042 132.486  0.00  0.00    +0.000 OA
ATOM     32  N   UNL     1      -8.028   3.742 131.098  0.00  0.00    +0.000 N 
ATOM     33  H   UNL     1      -8.336   4.221 130.258  0.00  0.00    +0.000 HD
BRANCH  32  34
ATOM     34  C   UNL     1      -7.611   4.487 132.266  0.00  0.00    +0.000 C 
BRANCH  34  35
ATOM     35  C   UNL     1      -7.665   5.997 132.115  0.00  0.00    +0.000 C 
BRANCH  35  36
ATOM     36  C   UNL     1      -9.003   6.452 131.578  0.00  0.00    +0.000 A 
ATOM     37  C   UNL     1     -10.172   6.107 132.266  0.00  0.00    +0.000 A 
ATOM     38  C   UNL     1     -11.421   6.455 131.752  0.00  0.00    +0.000 A 
ATOM     39  C   UNL     1     -11.520   7.060 130.500  0.00  0.00    +0.000 A 
ATOM     40  C   UNL     1     -10.364   7.429 129.822  0.00  0.00    +0.000 A 
ATOM     41 CL   UNL     1     -10.467   8.123 128.252  0.00  0.00    +0.000 Cl
ATOM     42  C   UNL     1      -9.116   7.200 130.393  0.00  0.00    +0.000 A 
ENDBRANCH  35  36
ENDBRANCH  34  35
ENDBRANCH  32  34
ENDBRANCH  29  30
ENDBRANCH  10  29
TORSDOF 11
ENDMDL
