MODEL 1
REMARK VINA RESULT:      -8.9      0.000      0.000
REMARK  Name = CHEMBL26877
REMARK  7 active torsions:
REMARK  status: ('A' for Active; 'I' for Inactive)
REMARK    1  A    between atoms: C_1  and  O_2
REMARK    2  A    between atoms: O_2  and  C_3
REMARK    3  A    between atoms: C_6  and  C_7
REMARK    4  A    between atoms: C_7  and  C_8
REMARK    5  A    between atoms: C_13  and  N_14
REMARK    6  A    between atoms: C_27  and  O_28
REMARK    7  A    between atoms: O_28  and  C_29
REMARK                            x       y       z     vdW  Elec       q    Type
REMARK                         _______ _______ _______ _____ _____    ______ ____
ROOT
ATOM      1  C   UNL     1      -4.411   3.816 130.187  0.00  0.00    +0.000 C 
ATOM      2  O   UNL     1      -3.457   4.171 130.870  0.00  0.00    +0.000 OA
ATOM      3  N   UNL     1      -5.619   4.428 130.486  0.00  0.00    +0.000 N 
ATOM      4  C   UNL     1      -5.676   5.876 130.473  0.00  0.00    +0.000 C 
ATOM      5  C   UNL     1      -6.272   6.476 131.724  0.00  0.00    +0.000 C 
ATOM      6  C   UNL     1      -7.959   5.955 131.846  0.00  0.00    +0.000 C 
ATOM      7  C   UNL     1      -7.434   4.374 132.182  0.00  0.00    +0.000 C 
ATOM      8  C   UNL     1      -6.759   3.690 130.996  0.00  0.00    +0.000 C 
ENDROOT
BRANCH   6   9
ATOM      9  N   UNL     1      -9.115   6.900 130.769  0.00  0.00    +0.000 N 
ATOM     10  C   UNL     1     -10.105   6.427 131.688  0.00  0.00    +0.000 C 
ATOM     11  O   UNL     1     -10.133   6.446 132.951  0.00  0.00    +0.000 OA
ATOM     12  O   UNL     1     -11.014   5.643 131.163  0.00  0.00    +0.000 OA
ATOM     13  C   UNL     1     -11.976   6.608 131.019  0.00  0.00    +0.000 C 
ATOM     14  C   UNL     1     -11.678   6.796 129.607  0.00  0.00    +0.000 A 
ATOM     15  C   UNL     1     -12.986   6.753 128.845  0.00  0.00    +0.000 A 
ATOM     16  C   UNL     1     -13.144   7.109 127.549  0.00  0.00    +0.000 A 
ATOM     17  C   UNL     1     -12.016   7.794 127.161  0.00  0.00    +0.000 A 
ATOM     18  C   UNL     1     -10.611   7.836 128.034  0.00  0.00    +0.000 A 
ATOM     19  C   UNL     1     -10.276   7.075 129.331  0.00  0.00    +0.000 A 
ENDBRANCH   6   9
BRANCH   1  20
ATOM     20  C   UNL     1      -4.448   2.780 129.016  0.00  0.00    +0.000 C 
BRANCH  20  24
ATOM     21  C   UNL     1      -5.791   3.674 124.942  0.00  0.00    +0.000 A 
ATOM     22  C   UNL     1      -6.706   3.390 125.951  0.00  0.00    +0.000 A 
ATOM     23  C   UNL     1      -6.270   3.181 127.275  0.00  0.00    +0.000 A 
ATOM     24  C   UNL     1      -4.892   3.189 127.599  0.00  0.00    +0.000 A 
ATOM     25  C   UNL     1      -4.014   3.559 126.570  0.00  0.00    +0.000 A 
ATOM     26  C   UNL     1      -4.446   3.739 125.259  0.00  0.00    +0.000 A 
BRANCH  21  28
ATOM     27  C   UNL     1      -7.317   3.183 123.210  0.00  0.00    +0.000 C 
ATOM     28  O   UNL     1      -6.283   4.027 123.716  0.00  0.00    +0.000 OA
ENDBRANCH  21  28
BRANCH  25  29
ATOM     29  O   UNL     1      -2.759   3.923 126.921  0.00  0.00    +0.000 OA
ATOM     30  C   UNL     1      -1.639   3.139 126.558  0.00  0.00    +0.000 C 
ENDBRANCH  25  29
ENDBRANCH  20  24
ENDBRANCH   1  20
TORSDOF 5
ENDMDL
MODEL 2
REMARK VINA RESULT:      -8.8      1.018      1.754
REMARK  Name = CHEMBL26877
REMARK  7 active torsions:
REMARK  status: ('A' for Active; 'I' for Inactive)
REMARK    1  A    between atoms: C_1  and  O_2
REMARK    2  A    between atoms: O_2  and  C_3
REMARK    3  A    between atoms: C_6  and  C_7
REMARK    4  A    between atoms: C_7  and  C_8
REMARK    5  A    between atoms: C_13  and  N_14
REMARK    6  A    between atoms: C_27  and  O_28
REMARK    7  A    between atoms: O_28  and  C_29
REMARK                            x       y       z     vdW  Elec       q    Type
REMARK                         _______ _______ _______ _____ _____    ______ ____
ROOT
ATOM      1  C   UNL     1      -4.466   3.720 130.453  0.00  0.00    +0.000 C 
ATOM      2  O   UNL     1      -3.531   4.095 131.152  0.00  0.00    +0.000 OA
ATOM      3  N   UNL     1      -5.674   4.362 130.678  0.00  0.00    +0.000 N 
ATOM      4  C   UNL     1      -5.708   5.809 130.594  0.00  0.00    +0.000 C 
ATOM      5  C   UNL     1      -6.339   6.476 131.793  0.00  0.00    +0.000 C 
ATOM      6  C   UNL     1      -8.036   5.985 131.879  0.00  0.00    +0.000 C 
ATOM      7  C   UNL     1      -7.547   4.415 132.309  0.00  0.00    +0.000 C 
ATOM      8  C   UNL     1      -6.842   3.666 131.183  0.00  0.00    +0.000 C 
ENDROOT
BRANCH   6   9
ATOM      9  N   UNL     1      -9.139   6.892 130.717  0.00  0.00    +0.000 N 
ATOM     10  C   UNL     1     -10.173   6.448 131.603  0.00  0.00    +0.000 C 
ATOM     11  O   UNL     1     -10.261   6.509 132.861  0.00  0.00    +0.000 OA
ATOM     12  O   UNL     1     -11.055   5.646 131.061  0.00  0.00    +0.000 OA
ATOM     13  C   UNL     1     -12.009   6.604 130.839  0.00  0.00    +0.000 C 
ATOM     14  C   UNL     1     -11.644   6.746 129.438  0.00  0.00    +0.000 A 
ATOM     15  C   UNL     1     -12.914   6.675 128.616  0.00  0.00    +0.000 A 
ATOM     16  C   UNL     1     -13.009   6.989 127.302  0.00  0.00    +0.000 A 
ATOM     17  C   UNL     1     -11.864   7.662 126.946  0.00  0.00    +0.000 A 
ATOM     18  C   UNL     1     -10.502   7.735 127.884  0.00  0.00    +0.000 A 
ATOM     19  C   UNL     1     -10.230   7.018 129.220  0.00  0.00    +0.000 A 
ENDBRANCH   6   9
BRANCH   1  20
ATOM     20  C   UNL     1      -4.477   2.629 129.332  0.00  0.00    +0.000 C 
BRANCH  20  24
ATOM     21  C   UNL     1      -5.209   3.932 125.213  0.00  0.00    +0.000 A 
ATOM     22  C   UNL     1      -3.915   3.860 125.721  0.00  0.00    +0.000 A 
ATOM     23  C   UNL     1      -3.684   3.365 127.021  0.00  0.00    +0.000 A 
ATOM     24  C   UNL     1      -4.759   2.994 127.863  0.00  0.00    +0.000 A 
ATOM     25  C   UNL     1      -6.036   3.006 127.282  0.00  0.00    +0.000 A 
ATOM     26  C   UNL     1      -6.263   3.519 126.008  0.00  0.00    +0.000 A 
BRANCH  21  28
ATOM     27  C   UNL     1      -6.440   3.620 123.224  0.00  0.00    +0.000 C 
ATOM     28  O   UNL     1      -5.359   4.265 123.895  0.00  0.00    +0.000 OA
ENDBRANCH  21  28
BRANCH  25  29
ATOM     29  O   UNL     1      -7.019   2.329 127.920  0.00  0.00    +0.000 OA
ATOM     30  C   UNL     1      -8.038   1.664 127.200  0.00  0.00    +0.000 C 
ENDBRANCH  25  29
ENDBRANCH  20  24
ENDBRANCH   1  20
TORSDOF 5
ENDMDL
MODEL 3
REMARK VINA RESULT:      -8.5      3.460      8.199
REMARK  Name = CHEMBL26877
REMARK  7 active torsions:
REMARK  status: ('A' for Active; 'I' for Inactive)
REMARK    1  A    between atoms: C_1  and  O_2
REMARK    2  A    between atoms: O_2  and  C_3
REMARK    3  A    between atoms: C_6  and  C_7
REMARK    4  A    between atoms: C_7  and  C_8
REMARK    5  A    between atoms: C_13  and  N_14
REMARK    6  A    between atoms: C_27  and  O_28
REMARK    7  A    between atoms: O_28  and  C_29
REMARK                            x       y       z     vdW  Elec       q    Type
REMARK                         _______ _______ _______ _____ _____    ______ ____
ROOT
ATOM      1  C   UNL     1      -5.192   4.786 127.650  0.00  0.00    +0.000 C 
ATOM      2  O   UNL     1      -4.591   5.775 127.244  0.00  0.00    +0.000 OA
ATOM      3  N   UNL     1      -5.830   4.034 126.675  0.00  0.00    +0.000 N 
ATOM      4  C   UNL     1      -5.046   3.554 125.555  0.00  0.00    +0.000 C 
ATOM      5  C   UNL     1      -5.648   3.869 124.207  0.00  0.00    +0.000 C 
ATOM      6  C   UNL     1      -7.196   3.024 124.073  0.00  0.00    +0.000 C 
ATOM      7  C   UNL     1      -7.855   4.074 125.236  0.00  0.00    +0.000 C 
ATOM      8  C   UNL     1      -7.272   3.880 126.633  0.00  0.00    +0.000 C 
ENDROOT
BRANCH   6   9
ATOM      9  N   UNL     1      -7.042   1.238 123.655  0.00  0.00    +0.000 N 
ATOM     10  C   UNL     1      -8.409   1.378 123.253  0.00  0.00    +0.000 C 
ATOM     11  O   UNL     1      -8.966   2.236 122.513  0.00  0.00    +0.000 OA
ATOM     12  O   UNL     1      -9.260   0.654 123.937  0.00  0.00    +0.000 OA
ATOM     13  C   UNL     1      -9.361  -0.360 123.021  0.00  0.00    +0.000 C 
ATOM     14  C   UNL     1      -8.432  -1.209 123.751  0.00  0.00    +0.000 A 
ATOM     15  C   UNL     1      -9.064  -2.579 123.889  0.00  0.00    +0.000 A 
ATOM     16  C   UNL     1      -8.419  -3.694 124.308  0.00  0.00    +0.000 A 
ATOM     17  C   UNL     1      -7.069  -3.436 124.276  0.00  0.00    +0.000 A 
ATOM     18  C   UNL     1      -6.417  -1.925 124.100  0.00  0.00    +0.000 A 
ATOM     19  C   UNL     1      -7.155  -0.574 124.043  0.00  0.00    +0.000 A 
ENDBRANCH   6   9
BRANCH   1  20
ATOM     20  C   UNL     1      -5.322   4.250 129.113  0.00  0.00    +0.000 C 
BRANCH  20  24
ATOM     21  C   UNL     1      -8.389   6.017 131.695  0.00  0.00    +0.000 A 
ATOM     22  C   UNL     1      -8.599   4.791 131.071  0.00  0.00    +0.000 A 
ATOM     23  C   UNL     1      -7.577   4.194 130.306  0.00  0.00    +0.000 A 
ATOM     24  C   UNL     1      -6.341   4.851 130.099  0.00  0.00    +0.000 A 
ATOM     25  C   UNL     1      -6.144   6.043 130.812  0.00  0.00    +0.000 A 
ATOM     26  C   UNL     1      -7.165   6.642 131.546  0.00  0.00    +0.000 A 
BRANCH  21  28
ATOM     27  C   UNL     1     -10.695   6.163 132.175  0.00  0.00    +0.000 C 
ATOM     28  O   UNL     1      -9.354   6.468 132.554  0.00  0.00    +0.000 OA
ENDBRANCH  21  28
BRANCH  25  29
ATOM     29  O   UNL     1      -4.876   6.500 130.925  0.00  0.00    +0.000 OA
ATOM     30  C   UNL     1      -4.459   7.675 130.258  0.00  0.00    +0.000 C 
ENDBRANCH  25  29
ENDBRANCH  20  24
ENDBRANCH   1  20
TORSDOF 5
ENDMDL
MODEL 4
REMARK VINA RESULT:      -8.4      3.534      8.341
REMARK  Name = CHEMBL26877
REMARK  7 active torsions:
REMARK  status: ('A' for Active; 'I' for Inactive)
REMARK    1  A    between atoms: C_1  and  O_2
REMARK    2  A    between atoms: O_2  and  C_3
REMARK    3  A    between atoms: C_6  and  C_7
REMARK    4  A    between atoms: C_7  and  C_8
REMARK    5  A    between atoms: C_13  and  N_14
REMARK    6  A    between atoms: C_27  and  O_28
REMARK    7  A    between atoms: O_28  and  C_29
REMARK                            x       y       z     vdW  Elec       q    Type
REMARK                         _______ _______ _______ _____ _____    ______ ____
ROOT
ATOM      1  C   UNL     1      -5.464   4.633 127.926  0.00  0.00    +0.000 C 
ATOM      2  O   UNL     1      -4.781   5.598 127.603  0.00  0.00    +0.000 OA
ATOM      3  N   UNL     1      -6.020   3.917 126.876  0.00  0.00    +0.000 N 
ATOM      4  C   UNL     1      -5.135   3.414 125.845  0.00  0.00    +0.000 C 
ATOM      5  C   UNL     1      -5.568   3.766 124.442  0.00  0.00    +0.000 C 
ATOM      6  C   UNL     1      -7.126   2.990 124.124  0.00  0.00    +0.000 C 
ATOM      7  C   UNL     1      -7.867   4.056 125.220  0.00  0.00    +0.000 C 
ATOM      8  C   UNL     1      -7.452   3.825 126.671  0.00  0.00    +0.000 C 
ENDROOT
BRANCH   6   9
ATOM      9  N   UNL     1      -6.999   1.202 123.702  0.00  0.00    +0.000 N 
ATOM     10  C   UNL     1      -8.360   1.367 123.289  0.00  0.00    +0.000 C 
ATOM     11  O   UNL     1      -8.896   2.238 122.547  0.00  0.00    +0.000 OA
ATOM     12  O   UNL     1      -9.230   0.657 123.964  0.00  0.00    +0.000 OA
ATOM     13  C   UNL     1      -9.341  -0.352 123.043  0.00  0.00    +0.000 C 
ATOM     14  C   UNL     1      -8.434  -1.220 123.779  0.00  0.00    +0.000 A 
ATOM     15  C   UNL     1      -9.090  -2.579 123.907  0.00  0.00    +0.000 A 
ATOM     16  C   UNL     1      -8.469  -3.706 124.328  0.00  0.00    +0.000 A 
ATOM     17  C   UNL     1      -7.114  -3.472 124.308  0.00  0.00    +0.000 A 
ATOM     18  C   UNL     1      -6.435  -1.973 124.143  0.00  0.00    +0.000 A 
ATOM     19  C   UNL     1      -7.147  -0.609 124.083  0.00  0.00    +0.000 A 
ENDBRANCH   6   9
BRANCH   1  20
ATOM     20  C   UNL     1      -5.780   4.090 129.359  0.00  0.00    +0.000 C 
BRANCH  20  24
ATOM     21  C   UNL     1      -8.893   5.738 131.964  0.00  0.00    +0.000 A 
ATOM     22  C   UNL     1      -7.816   6.519 131.554  0.00  0.00    +0.000 A 
ATOM     23  C   UNL     1      -6.862   6.004 130.654  0.00  0.00    +0.000 A 
ATOM     24  C   UNL     1      -6.936   4.667 130.197  0.00  0.00    +0.000 A 
ATOM     25  C   UNL     1      -8.079   3.945 130.570  0.00  0.00    +0.000 A 
ATOM     26  C   UNL     1      -9.006   4.448 131.480  0.00  0.00    +0.000 A 
BRANCH  21  28
ATOM     27  C   UNL     1     -11.153   6.406 132.084  0.00  0.00    +0.000 C 
ATOM     28  O   UNL     1      -9.871   6.340 132.707  0.00  0.00    +0.000 OA
ENDBRANCH  21  28
BRANCH  25  29
ATOM     29  O   UNL     1      -8.360   2.818 129.876  0.00  0.00    +0.000 OA
ATOM     30  C   UNL     1      -8.583   1.587 130.536  0.00  0.00    +0.000 C 
ENDBRANCH  25  29
ENDBRANCH  20  24
ENDBRANCH   1  20
TORSDOF 5
ENDMDL
MODEL 5
REMARK VINA RESULT:      -8.3      2.819      3.623
REMARK  Name = CHEMBL26877
REMARK  7 active torsions:
REMARK  status: ('A' for Active; 'I' for Inactive)
REMARK    1  A    between atoms: C_1  and  O_2
REMARK    2  A    between atoms: O_2  and  C_3
REMARK    3  A    between atoms: C_6  and  C_7
REMARK    4  A    between atoms: C_7  and  C_8
REMARK    5  A    between atoms: C_13  and  N_14
REMARK    6  A    between atoms: C_27  and  O_28
REMARK    7  A    between atoms: O_28  and  C_29
REMARK                            x       y       z     vdW  Elec       q    Type
REMARK                         _______ _______ _______ _____ _____    ______ ____
ROOT
ATOM      1  C   UNL     1      -5.146   2.363 127.677  0.00  0.00    +0.000 C 
ATOM      2  O   UNL     1      -4.203   2.000 128.372  0.00  0.00    +0.000 OA
ATOM      3  N   UNL     1      -6.182   2.986 128.356  0.00  0.00    +0.000 N 
ATOM      4  C   UNL     1      -5.869   4.136 129.182  0.00  0.00    +0.000 C 
ATOM      5  C   UNL     1      -6.413   4.045 130.587  0.00  0.00    +0.000 C 
ATOM      6  C   UNL     1      -8.179   4.012 130.504  0.00  0.00    +0.000 C 
ATOM      7  C   UNL     1      -8.107   2.452 129.834  0.00  0.00    +0.000 C 
ATOM      8  C   UNL     1      -7.515   2.419 128.428  0.00  0.00    +0.000 C 
ENDROOT
BRANCH   6   9
ATOM      9  N   UNL     1      -8.949   5.665 130.248  0.00  0.00    +0.000 N 
ATOM     10  C   UNL     1      -9.745   5.293 131.378  0.00  0.00    +0.000 C 
ATOM     11  O   UNL     1      -9.411   4.831 132.505  0.00  0.00    +0.000 OA
ATOM     12  O   UNL     1     -11.028   5.188 131.136  0.00  0.00    +0.000 OA
ATOM     13  C   UNL     1     -11.372   6.422 131.623  0.00  0.00    +0.000 C 
ATOM     14  C   UNL     1     -11.421   7.012 130.294  0.00  0.00    +0.000 A 
ATOM     15  C   UNL     1     -12.725   7.772 130.170  0.00  0.00    +0.000 A 
ATOM     16  C   UNL     1     -13.032   8.633 129.172  0.00  0.00    +0.000 A 
ATOM     17  C   UNL     1     -11.871   8.925 128.496  0.00  0.00    +0.000 A 
ATOM     18  C   UNL     1     -10.457   8.083 128.676  0.00  0.00    +0.000 A 
ATOM     19  C   UNL     1     -10.208   6.815 129.513  0.00  0.00    +0.000 A 
ENDBRANCH   6   9
BRANCH   1  20
ATOM     20  C   UNL     1      -5.330   2.234 126.130  0.00  0.00    +0.000 C 
BRANCH  20  24
ATOM     21  C   UNL     1      -6.596  -1.482 124.185  0.00  0.00    +0.000 A 
ATOM     22  C   UNL     1      -5.645  -1.495 125.201  0.00  0.00    +0.000 A 
ATOM     23  C   UNL     1      -5.302  -0.305 125.874  0.00  0.00    +0.000 A 
ATOM     24  C   UNL     1      -5.862   0.937 125.492  0.00  0.00    +0.000 A 
ATOM     25  C   UNL     1      -6.874   0.891 124.521  0.00  0.00    +0.000 A 
ATOM     26  C   UNL     1      -7.191  -0.283 123.841  0.00  0.00    +0.000 A 
BRANCH  21  28
ATOM     27  C   UNL     1      -8.419  -2.885 123.658  0.00  0.00    +0.000 C 
ATOM     28  O   UNL     1      -7.006  -2.686 123.681  0.00  0.00    +0.000 OA
ENDBRANCH  21  28
BRANCH  25  29
ATOM     29  O   UNL     1      -7.667   1.978 124.394  0.00  0.00    +0.000 OA
ATOM     30  C   UNL     1      -9.025   1.945 124.788  0.00  0.00    +0.000 C 
ENDBRANCH  25  29
ENDBRANCH  20  24
ENDBRANCH   1  20
TORSDOF 5
ENDMDL
MODEL 6
REMARK VINA RESULT:      -8.3      3.756      8.475
REMARK  Name = CHEMBL26877
REMARK  7 active torsions:
REMARK  status: ('A' for Active; 'I' for Inactive)
REMARK    1  A    between atoms: C_1  and  O_2
REMARK    2  A    between atoms: O_2  and  C_3
REMARK    3  A    between atoms: C_6  and  C_7
REMARK    4  A    between atoms: C_7  and  C_8
REMARK    5  A    between atoms: C_13  and  N_14
REMARK    6  A    between atoms: C_27  and  O_28
REMARK    7  A    between atoms: O_28  and  C_29
REMARK                            x       y       z     vdW  Elec       q    Type
REMARK                         _______ _______ _______ _____ _____    ______ ____
ROOT
ATOM      1  C   UNL     1      -5.033   5.001 127.468  0.00  0.00    +0.000 C 
ATOM      2  O   UNL     1      -4.545   6.023 126.998  0.00  0.00    +0.000 OA
ATOM      3  N   UNL     1      -5.727   4.203 126.571  0.00  0.00    +0.000 N 
ATOM      4  C   UNL     1      -5.043   3.766 125.370  0.00  0.00    +0.000 C 
ATOM      5  C   UNL     1      -5.811   4.033 124.098  0.00  0.00    +0.000 C 
ATOM      6  C   UNL     1      -7.308   3.091 124.138  0.00  0.00    +0.000 C 
ATOM      7  C   UNL     1      -7.898   4.105 125.368  0.00  0.00    +0.000 C 
ATOM      8  C   UNL     1      -7.151   3.958 126.691  0.00  0.00    +0.000 C 
ENDROOT
BRANCH   6   9
ATOM      9  N   UNL     1      -7.088   1.315 123.705  0.00  0.00    +0.000 N 
ATOM     10  C   UNL     1      -8.452   1.415 123.280  0.00  0.00    +0.000 C 
ATOM     11  O   UNL     1      -9.024   2.262 122.540  0.00  0.00    +0.000 OA
ATOM     12  O   UNL     1      -9.290   0.656 123.942  0.00  0.00    +0.000 OA
ATOM     13  C   UNL     1      -9.342  -0.351 123.014  0.00  0.00    +0.000 C 
ATOM     14  C   UNL     1      -8.398  -1.177 123.752  0.00  0.00    +0.000 A 
ATOM     15  C   UNL     1      -8.986  -2.568 123.866  0.00  0.00    +0.000 A 
ATOM     16  C   UNL     1      -8.313  -3.665 124.284  0.00  0.00    +0.000 A 
ATOM     17  C   UNL     1      -6.971  -3.363 124.279  0.00  0.00    +0.000 A 
ATOM     18  C   UNL     1      -6.367  -1.830 124.130  0.00  0.00    +0.000 A 
ATOM     19  C   UNL     1      -7.147  -0.503 124.073  0.00  0.00    +0.000 A 
ENDBRANCH   6   9
BRANCH   1  20
ATOM     20  C   UNL     1      -4.964   4.468 128.937  0.00  0.00    +0.000 C 
BRANCH  20  24
ATOM     21  C   UNL     1      -2.856   6.455 132.224  0.00  0.00    +0.000 A 
ATOM     22  C   UNL     1      -2.211   5.514 131.427  0.00  0.00    +0.000 A 
ATOM     23  C   UNL     1      -2.874   4.938 130.324  0.00  0.00    +0.000 A 
ATOM     24  C   UNL     1      -4.224   5.250 130.039  0.00  0.00    +0.000 A 
ATOM     25  C   UNL     1      -4.806   6.262 130.817  0.00  0.00    +0.000 A 
ATOM     26  C   UNL     1      -4.157   6.810 131.921  0.00  0.00    +0.000 A 
BRANCH  21  28
ATOM     27  C   UNL     1      -1.966   8.504 132.986  0.00  0.00    +0.000 C 
ATOM     28  O   UNL     1      -2.114   7.097 133.177  0.00  0.00    +0.000 OA
ENDBRANCH  21  28
BRANCH  25  29
ATOM     29  O   UNL     1      -5.942   6.830 130.353  0.00  0.00    +0.000 OA
ATOM     30  C   UNL     1      -7.122   6.851 131.133  0.00  0.00    +0.000 C 
ENDBRANCH  25  29
ENDBRANCH  20  24
ENDBRANCH   1  20
TORSDOF 5
ENDMDL
MODEL 7
REMARK VINA RESULT:      -8.0      3.590      8.098
REMARK  Name = CHEMBL26877
REMARK  7 active torsions:
REMARK  status: ('A' for Active; 'I' for Inactive)
REMARK    1  A    between atoms: C_1  and  O_2
REMARK    2  A    between atoms: O_2  and  C_3
REMARK    3  A    between atoms: C_6  and  C_7
REMARK    4  A    between atoms: C_7  and  C_8
REMARK    5  A    between atoms: C_13  and  N_14
REMARK    6  A    between atoms: C_27  and  O_28
REMARK    7  A    between atoms: O_28  and  C_29
REMARK                            x       y       z     vdW  Elec       q    Type
REMARK                         _______ _______ _______ _____ _____    ______ ____
ROOT
ATOM      1  C   UNL     1      -6.559   5.627 130.190  0.00  0.00    +0.000 C 
ATOM      2  O   UNL     1      -5.616   6.361 129.915  0.00  0.00    +0.000 OA
ATOM      3  N   UNL     1      -6.668   4.481 129.418  0.00  0.00    +0.000 N 
ATOM      4  C   UNL     1      -5.524   3.595 129.339  0.00  0.00    +0.000 C 
ATOM      5  C   UNL     1      -5.126   3.233 127.928  0.00  0.00    +0.000 C 
ATOM      6  C   UNL     1      -6.454   2.328 127.186  0.00  0.00    +0.000 C 
ATOM      7  C   UNL     1      -7.387   3.748 127.155  0.00  0.00    +0.000 C 
ATOM      8  C   UNL     1      -7.798   4.239 128.541  0.00  0.00    +0.000 C 
ENDROOT
BRANCH   6   9
ATOM      9  N   UNL     1      -6.525   0.558 127.686  0.00  0.00    +0.000 N 
ATOM     10  C   UNL     1      -6.670   0.332 126.279  0.00  0.00    +0.000 C 
ATOM     11  O   UNL     1      -6.000   0.769 125.302  0.00  0.00    +0.000 OA
ATOM     12  O   UNL     1      -7.806  -0.216 125.924  0.00  0.00    +0.000 OA
ATOM     13  C   UNL     1      -7.325  -1.495 125.821  0.00  0.00    +0.000 C 
ATOM     14  C   UNL     1      -7.838  -1.871 127.130  0.00  0.00    +0.000 A 
ATOM     15  C   UNL     1      -8.589  -3.177 126.978  0.00  0.00    +0.000 A 
ATOM     16  C   UNL     1      -9.015  -3.953 128.003  0.00  0.00    +0.000 A 
ATOM     17  C   UNL     1      -8.386  -3.521 129.147  0.00  0.00    +0.000 A 
ATOM     18  C   UNL     1      -7.555  -2.095 129.266  0.00  0.00    +0.000 A 
ATOM     19  C   UNL     1      -7.416  -0.986 128.206  0.00  0.00    +0.000 A 
ENDBRANCH   6   9
BRANCH   1  20
ATOM     20  C   UNL     1      -7.644   5.801 131.302  0.00  0.00    +0.000 C 
BRANCH  20  24
ATOM     21  C   UNL     1     -11.779   6.976 130.454  0.00  0.00    +0.000 A 
ATOM     22  C   UNL     1     -10.709   7.668 129.893  0.00  0.00    +0.000 A 
ATOM     23  C   UNL     1      -9.386   7.235 130.109  0.00  0.00    +0.000 A 
ATOM     24  C   UNL     1      -9.107   6.132 130.950  0.00  0.00    +0.000 A 
ATOM     25  C   UNL     1     -10.216   5.417 131.426  0.00  0.00    +0.000 A 
ATOM     26  C   UNL     1     -11.521   5.863 131.232  0.00  0.00    +0.000 A 
BRANCH  21  28
ATOM     27  C   UNL     1     -13.275   7.369 128.671  0.00  0.00    +0.000 C 
ATOM     28  O   UNL     1     -13.042   7.344 130.079  0.00  0.00    +0.000 OA
ENDBRANCH  21  28
BRANCH  25  29
ATOM     29  O   UNL     1      -9.995   4.177 131.919  0.00  0.00    +0.000 OA
ATOM     30  C   UNL     1     -10.102   3.031 131.096  0.00  0.00    +0.000 C 
ENDBRANCH  25  29
ENDBRANCH  20  24
ENDBRANCH   1  20
TORSDOF 5
ENDMDL
MODEL 8
REMARK VINA RESULT:      -7.8      3.581      7.818
REMARK  Name = CHEMBL26877
REMARK  7 active torsions:
REMARK  status: ('A' for Active; 'I' for Inactive)
REMARK    1  A    between atoms: C_1  and  O_2
REMARK    2  A    between atoms: O_2  and  C_3
REMARK    3  A    between atoms: C_6  and  C_7
REMARK    4  A    between atoms: C_7  and  C_8
REMARK    5  A    between atoms: C_13  and  N_14
REMARK    6  A    between atoms: C_27  and  O_28
REMARK    7  A    between atoms: O_28  and  C_29
REMARK                            x       y       z     vdW  Elec       q    Type
REMARK                         _______ _______ _______ _____ _____    ______ ____
ROOT
ATOM      1  C   UNL     1      -9.100   4.075 132.940  0.00  0.00    +0.000 C 
ATOM      2  O   UNL     1      -9.546   3.712 134.023  0.00  0.00    +0.000 OA
ATOM      3  N   UNL     1      -8.600   3.065 132.133  0.00  0.00    +0.000 N 
ATOM      4  C   UNL     1      -9.466   1.945 131.819  0.00  0.00    +0.000 C 
ATOM      5  C   UNL     1      -8.841   0.596 132.084  0.00  0.00    +0.000 C 
ATOM      6  C   UNL     1      -7.445   0.405 131.015  0.00  0.00    +0.000 C 
ATOM      7  C   UNL     1      -6.614   1.588 131.909  0.00  0.00    +0.000 C 
ATOM      8  C   UNL     1      -7.201   2.989 131.759  0.00  0.00    +0.000 C 
ENDROOT
BRANCH   6   9
ATOM      9  N   UNL     1      -7.880  -0.067 129.289  0.00  0.00    +0.000 N 
ATOM     10  C   UNL     1      -6.903  -1.094 129.493  0.00  0.00    +0.000 C 
ATOM     11  O   UNL     1      -6.757  -1.915 130.441  0.00  0.00    +0.000 OA
ATOM     12  O   UNL     1      -5.860  -1.024 128.704  0.00  0.00    +0.000 OA
ATOM     13  C   UNL     1      -6.290  -1.967 127.808  0.00  0.00    +0.000 C 
ATOM     14  C   UNL     1      -6.760  -0.962 126.866  0.00  0.00    +0.000 A 
ATOM     15  C   UNL     1      -6.216  -1.317 125.497  0.00  0.00    +0.000 A 
ATOM     16  C   UNL     1      -6.613  -0.752 124.333  0.00  0.00    +0.000 A 
ATOM     17  C   UNL     1      -7.777  -0.060 124.575  0.00  0.00    +0.000 A 
ATOM     18  C   UNL     1      -8.350   0.288 126.089  0.00  0.00    +0.000 A 
ATOM     19  C   UNL     1      -7.677   0.009 127.446  0.00  0.00    +0.000 A 
ENDBRANCH   6   9
BRANCH   1  20
ATOM     20  C   UNL     1      -9.034   5.518 132.340  0.00  0.00    +0.000 C 
BRANCH  20  24
ATOM     21  C   UNL     1     -12.343   6.813 129.776  0.00  0.00    +0.000 A 
ATOM     22  C   UNL     1     -12.425   6.924 131.161  0.00  0.00    +0.000 A 
ATOM     23  C   UNL     1     -11.326   6.578 131.973  0.00  0.00    +0.000 A 
ATOM     24  C   UNL     1     -10.140   6.049 131.410  0.00  0.00    +0.000 A 
ATOM     25  C   UNL     1     -10.072   6.032 130.009  0.00  0.00    +0.000 A 
ATOM     26  C   UNL     1     -11.168   6.350 129.212  0.00  0.00    +0.000 A 
BRANCH  21  28
ATOM     27  C   UNL     1     -13.079   7.550 127.658  0.00  0.00    +0.000 C 
ATOM     28  O   UNL     1     -13.376   7.315 129.034  0.00  0.00    +0.000 OA
ENDBRANCH  21  28
BRANCH  25  29
ATOM     29  O   UNL     1      -8.851   5.880 129.445  0.00  0.00    +0.000 OA
ATOM     30  C   UNL     1      -8.488   4.677 128.796  0.00  0.00    +0.000 C 
ENDBRANCH  25  29
ENDBRANCH  20  24
ENDBRANCH   1  20
TORSDOF 5
ENDMDL
MODEL 9
REMARK VINA RESULT:      -7.8      4.388      8.870
REMARK  Name = CHEMBL26877
REMARK  7 active torsions:
REMARK  status: ('A' for Active; 'I' for Inactive)
REMARK    1  A    between atoms: C_1  and  O_2
REMARK    2  A    between atoms: O_2  and  C_3
REMARK    3  A    between atoms: C_6  and  C_7
REMARK    4  A    between atoms: C_7  and  C_8
REMARK    5  A    between atoms: C_13  and  N_14
REMARK    6  A    between atoms: C_27  and  O_28
REMARK    7  A    between atoms: O_28  and  C_29
REMARK                            x       y       z     vdW  Elec       q    Type
REMARK                         _______ _______ _______ _____ _____    ______ ____
ROOT
ATOM      1  C   UNL     1      -6.510   4.350 126.292  0.00  0.00    +0.000 C 
ATOM      2  O   UNL     1      -6.464   5.444 125.740  0.00  0.00    +0.000 OA
ATOM      3  N   UNL     1      -6.940   3.299 125.497  0.00  0.00    +0.000 N 
ATOM      4  C   UNL     1      -6.245   3.053 124.249  0.00  0.00    +0.000 C 
ATOM      5  C   UNL     1      -7.159   2.942 123.052  0.00  0.00    +0.000 C 
ATOM      6  C   UNL     1      -8.206   1.533 123.275  0.00  0.00    +0.000 C 
ATOM      7  C   UNL     1      -9.020   2.351 124.523  0.00  0.00    +0.000 C 
ATOM      8  C   UNL     1      -8.165   2.571 125.768  0.00  0.00    +0.000 C 
ENDROOT
BRANCH   6   9
ATOM      9  N   UNL     1      -7.396  -0.073 122.883  0.00  0.00    +0.000 N 
ATOM     10  C   UNL     1      -8.622  -0.628 123.374  0.00  0.00    +0.000 C 
ATOM     11  O   UNL     1      -9.821  -0.350 123.095  0.00  0.00    +0.000 OA
ATOM     12  O   UNL     1      -8.498  -1.373 124.445  0.00  0.00    +0.000 OA
ATOM     13  C   UNL     1      -8.512  -2.576 123.790  0.00  0.00    +0.000 C 
ATOM     14  C   UNL     1      -7.063  -2.701 123.839  0.00  0.00    +0.000 A 
ATOM     15  C   UNL     1      -6.732  -4.086 124.353  0.00  0.00    +0.000 A 
ATOM     16  C   UNL     1      -5.503  -4.653 124.327  0.00  0.00    +0.000 A 
ATOM     17  C   UNL     1      -4.711  -3.901 123.491  0.00  0.00    +0.000 A 
ATOM     18  C   UNL     1      -5.119  -2.398 122.931  0.00  0.00    +0.000 A 
ATOM     19  C   UNL     1      -6.352  -1.551 123.298  0.00  0.00    +0.000 A 
ENDBRANCH   6   9
BRANCH   1  20
ATOM     20  C   UNL     1      -6.133   3.979 127.764  0.00  0.00    +0.000 C 
BRANCH  20  24
ATOM     21  C   UNL     1      -3.272   6.479 129.946  0.00  0.00    +0.000 A 
ATOM     22  C   UNL     1      -4.513   6.165 130.495  0.00  0.00    +0.000 A 
ATOM     23  C   UNL     1      -5.394   5.297 129.820  0.00  0.00    +0.000 A 
ATOM     24  C   UNL     1      -5.072   4.776 128.544  0.00  0.00    +0.000 A 
ATOM     25  C   UNL     1      -3.781   5.052 128.068  0.00  0.00    +0.000 A 
ATOM     26  C   UNL     1      -2.924   5.931 128.726  0.00  0.00    +0.000 A 
BRANCH  21  28
ATOM     27  C   UNL     1      -1.323   6.436 131.276  0.00  0.00    +0.000 C 
ATOM     28  O   UNL     1      -2.397   7.192 130.718  0.00  0.00    +0.000 OA
ENDBRANCH  21  28
BRANCH  25  29
ATOM     29  O   UNL     1      -3.316   4.294 127.049  0.00  0.00    +0.000 OA
ATOM     30  C   UNL     1      -2.172   3.477 127.206  0.00  0.00    +0.000 C 
ENDBRANCH  25  29
ENDBRANCH  20  24
ENDBRANCH   1  20
TORSDOF 5
ENDMDL
