MODEL 1
REMARK VINA RESULT:      -9.3      0.000      0.000
REMARK  Name = CHEMBL2113216
REMARK  11 active torsions:
REMARK  status: ('A' for Active; 'I' for Inactive)
REMARK    1  A    between atoms: C_1  and  C_2
REMARK    2  A    between atoms: C_2  and  C_3
REMARK    3  A    between atoms: C_3  and  O_4
REMARK    4  A    between atoms: O_4  and  C_5
REMARK    5  A    between atoms: C_8  and  S_9
REMARK    6  A    between atoms: S_9  and  N_12
REMARK    7  A    between atoms: N_12  and  C_13
REMARK    8  A    between atoms: N_12  and  C_28
REMARK    9  A    between atoms: C_13  and  C_14
REMARK   10  A    between atoms: N_16  and  N_17
REMARK   11  A    between atoms: C_31  and  C_32
REMARK                            x       y       z     vdW  Elec       q    Type
REMARK                         _______ _______ _______ _____ _____    ______ ____
ROOT
ATOM      1  N   UNL     1      -6.701   2.939 128.592  0.00  0.00    +0.000 N 
ENDROOT
BRANCH   1   2
ATOM      2  C   UNL     1      -5.415   3.722 128.743  0.00  0.00    +0.000 A 
ATOM      3  C   UNL     1      -5.465   4.957 129.424  0.00  0.00    +0.000 A 
ATOM      4  C   UNL     1      -4.408   5.888 129.391  0.00  0.00    +0.000 A 
ATOM      5  C   UNL     1      -3.204   5.571 128.766  0.00  0.00    +0.000 A 
ATOM      6  C   UNL     1      -2.016   6.486 128.875  0.00  0.00    +0.000 C 
ATOM      7  C   UNL     1      -3.116   4.348 128.095  0.00  0.00    +0.000 A 
ATOM      8  C   UNL     1      -4.210   3.446 128.070  0.00  0.00    +0.000 A 
ENDBRANCH   1   2
BRANCH   1   9
ATOM      9  S   UNL     1      -7.664   3.249 127.137  0.00  0.00    +0.000 S 
ATOM     10  O   UNL     1      -8.065   4.646 127.233  0.00  0.00    +0.000 OA
ATOM     11  O   UNL     1      -8.704   2.238 127.069  0.00  0.00    +0.000 OA
BRANCH   9  15
ATOM     12  C   UNL     1      -6.206   3.275 122.731  0.00  0.00    +0.000 A 
ATOM     13  C   UNL     1      -5.742   4.274 123.594  0.00  0.00    +0.000 A 
ATOM     14  C   UNL     1      -6.098   4.250 124.979  0.00  0.00    +0.000 A 
ATOM     15  C   UNL     1      -6.786   3.143 125.522  0.00  0.00    +0.000 A 
ATOM     16  C   UNL     1      -6.938   2.063 124.686  0.00  0.00    +0.000 A 
ATOM     17  C   UNL     1      -6.913   2.242 123.302  0.00  0.00    +0.000 A 
BRANCH  12  18
ATOM     18  O   UNL     1      -5.812   3.221 121.418  0.00  0.00    +0.000 OA
BRANCH  18  19
ATOM     19  C   UNL     1      -5.540   4.482 120.772  0.00  0.00    +0.000 C 
BRANCH  19  21
ATOM     20  C   UNL     1      -7.811   4.192 119.741  0.00  0.00    +0.000 C 
ATOM     21  C   UNL     1      -6.365   4.597 119.497  0.00  0.00    +0.000 C 
ENDBRANCH  19  21
ENDBRANCH  18  19
ENDBRANCH  12  18
ENDBRANCH   9  15
ENDBRANCH   1   9
BRANCH   1  22
ATOM     22  C   UNL     1      -7.217   2.405 129.934  0.00  0.00    +0.000 C 
BRANCH  22  23
ATOM     23  C   UNL     1      -8.604   2.707 130.516  0.00  0.00    +0.000 C 
ATOM     24  O   UNL     1      -8.968   1.998 131.497  0.00  0.00    +0.000 OA
ATOM     25  N   UNL     1      -9.396   3.752 129.941  0.00  0.00    +0.000 N 
ATOM     26  H   UNL     1      -9.028   4.236 129.115  0.00  0.00    +0.000 HD
BRANCH  25  27
ATOM     27  N   UNL     1     -10.909   3.868 129.963  0.00  0.00    +0.000 NA
ATOM     28  C   UNL     1     -11.354   5.111 130.137  0.00  0.00    +0.000 C 
ATOM     29  C   UNL     1     -10.636   6.036 131.048  0.00  0.00    +0.000 C 
ATOM     30  O   UNL     1      -9.576   6.403 130.559  0.00  0.00    +0.000 OA
ATOM     31  N   UNL     1     -11.616   6.806 131.674  0.00  0.00    +0.000 N 
ATOM     32  C   UNL     1     -12.384   7.227 130.574  0.00  0.00    +0.000 A 
ATOM     33  C   UNL     1     -12.730   8.592 130.530  0.00  0.00    +0.000 A 
ATOM     34  C   UNL     1     -13.034   9.169 129.320  0.00  0.00    +0.000 A 
ATOM     35  C   UNL     1     -12.953   8.339 128.195  0.00  0.00    +0.000 A 
ATOM     36  C   UNL     1     -12.614   6.903 128.272  0.00  0.00    +0.000 A 
ATOM     37  C   UNL     1     -12.330   6.279 129.515  0.00  0.00    +0.000 A 
ATOM     38  H   UNL     1     -12.261   6.269 132.255  0.00  0.00    +0.000 HD
ENDBRANCH  25  27
ENDBRANCH  22  23
ENDBRANCH   1  22
TORSDOF 9
ENDMDL
MODEL 2
REMARK VINA RESULT:      -9.3      3.373      4.550
REMARK  Name = CHEMBL2113216
REMARK  11 active torsions:
REMARK  status: ('A' for Active; 'I' for Inactive)
REMARK    1  A    between atoms: C_1  and  C_2
REMARK    2  A    between atoms: C_2  and  C_3
REMARK    3  A    between atoms: C_3  and  O_4
REMARK    4  A    between atoms: O_4  and  C_5
REMARK    5  A    between atoms: C_8  and  S_9
REMARK    6  A    between atoms: S_9  and  N_12
REMARK    7  A    between atoms: N_12  and  C_13
REMARK    8  A    between atoms: N_12  and  C_28
REMARK    9  A    between atoms: C_13  and  C_14
REMARK   10  A    between atoms: N_16  and  N_17
REMARK   11  A    between atoms: C_31  and  C_32
REMARK                            x       y       z     vdW  Elec       q    Type
REMARK                         _______ _______ _______ _____ _____    ______ ____
ROOT
ATOM      1  N   UNL     1      -7.467   1.407 129.412  0.00  0.00    +0.000 N 
ENDROOT
BRANCH   1   2
ATOM      2  C   UNL     1      -6.762   0.072 129.525  0.00  0.00    +0.000 A 
ATOM      3  C   UNL     1      -5.407   0.068 129.918  0.00  0.00    +0.000 A 
ATOM      4  C   UNL     1      -4.583  -1.068 129.796  0.00  0.00    +0.000 A 
ATOM      5  C   UNL     1      -5.113  -2.288 129.382  0.00  0.00    +0.000 A 
ATOM      6  C   UNL     1      -4.283  -3.540 129.416  0.00  0.00    +0.000 C 
ATOM      7  C   UNL     1      -6.458  -2.322 129.001  0.00  0.00    +0.000 A 
ATOM      8  C   UNL     1      -7.264  -1.156 129.057  0.00  0.00    +0.000 A 
ENDBRANCH   1   2
BRANCH   1   9
ATOM      9  S   UNL     1      -7.212   2.326 127.917  0.00  0.00    +0.000 S 
ATOM     10  O   UNL     1      -6.020   3.126 128.159  0.00  0.00    +0.000 OA
ATOM     11  O   UNL     1      -8.450   3.014 127.603  0.00  0.00    +0.000 OA
BRANCH   9  15
ATOM     12  C   UNL     1      -6.376  -0.813 124.604  0.00  0.00    +0.000 A 
ATOM     13  C   UNL     1      -7.550  -0.057 124.525  0.00  0.00    +0.000 A 
ATOM     14  C   UNL     1      -7.801   0.981 125.477  0.00  0.00    +0.000 A 
ATOM     15  C   UNL     1      -6.806   1.357 126.406  0.00  0.00    +0.000 A 
ATOM     16  C   UNL     1      -5.570   0.783 126.225  0.00  0.00    +0.000 A 
ATOM     17  C   UNL     1      -5.458  -0.437 125.556  0.00  0.00    +0.000 A 
BRANCH  12  18
ATOM     18  O   UNL     1      -6.065  -1.755 123.656  0.00  0.00    +0.000 OA
BRANCH  18  19
ATOM     19  C   UNL     1      -5.878  -3.108 124.125  0.00  0.00    +0.000 C 
BRANCH  19  21
ATOM     20  C   UNL     1      -4.363  -4.983 123.422  0.00  0.00    +0.000 C 
ATOM     21  C   UNL     1      -4.435  -3.538 123.894  0.00  0.00    +0.000 C 
ENDBRANCH  19  21
ENDBRANCH  18  19
ENDBRANCH  12  18
ENDBRANCH   9  15
ENDBRANCH   1   9
BRANCH   1  22
ATOM     22  C   UNL     1      -7.855   1.977 130.782  0.00  0.00    +0.000 C 
BRANCH  22  23
ATOM     23  C   UNL     1      -9.249   2.511 131.139  0.00  0.00    +0.000 C 
ATOM     24  O   UNL     1      -9.785   2.028 132.177  0.00  0.00    +0.000 OA
ATOM     25  N   UNL     1      -9.855   3.505 130.308  0.00  0.00    +0.000 N 
ATOM     26  H   UNL     1      -9.356   3.794 129.460  0.00  0.00    +0.000 HD
BRANCH  25  27
ATOM     27  N   UNL     1     -11.340   3.768 130.134  0.00  0.00    +0.000 NA
ATOM     28  C   UNL     1     -11.681   5.049 130.256  0.00  0.00    +0.000 C 
ATOM     29  C   UNL     1     -11.001   5.906 131.259  0.00  0.00    +0.000 C 
ATOM     30  O   UNL     1      -9.855   6.165 130.914  0.00  0.00    +0.000 OA
ATOM     31  N   UNL     1     -11.974   6.772 131.757  0.00  0.00    +0.000 N 
ATOM     32  C   UNL     1     -12.549   7.258 130.570  0.00  0.00    +0.000 A 
ATOM     33  C   UNL     1     -12.752   8.650 130.490  0.00  0.00    +0.000 A 
ATOM     34  C   UNL     1     -12.839   9.246 129.254  0.00  0.00    +0.000 A 
ATOM     35  C   UNL     1     -12.694   8.405 128.144  0.00  0.00    +0.000 A 
ATOM     36  C   UNL     1     -12.508   6.943 128.256  0.00  0.00    +0.000 A 
ATOM     37  C   UNL     1     -12.450   6.303 129.521  0.00  0.00    +0.000 A 
ATOM     38  H   UNL     1     -12.738   6.304 132.247  0.00  0.00    +0.000 HD
ENDBRANCH  25  27
ENDBRANCH  22  23
ENDBRANCH   1  22
TORSDOF 9
ENDMDL
MODEL 3
REMARK VINA RESULT:      -9.3      2.548      3.404
REMARK  Name = CHEMBL2113216
REMARK  11 active torsions:
REMARK  status: ('A' for Active; 'I' for Inactive)
REMARK    1  A    between atoms: C_1  and  C_2
REMARK    2  A    between atoms: C_2  and  C_3
REMARK    3  A    between atoms: C_3  and  O_4
REMARK    4  A    between atoms: O_4  and  C_5
REMARK    5  A    between atoms: C_8  and  S_9
REMARK    6  A    between atoms: S_9  and  N_12
REMARK    7  A    between atoms: N_12  and  C_13
REMARK    8  A    between atoms: N_12  and  C_28
REMARK    9  A    between atoms: C_13  and  C_14
REMARK   10  A    between atoms: N_16  and  N_17
REMARK   11  A    between atoms: C_31  and  C_32
REMARK                            x       y       z     vdW  Elec       q    Type
REMARK                         _______ _______ _______ _____ _____    ______ ____
ROOT
ATOM      1  N   UNL     1      -6.569   3.639 129.468  0.00  0.00    +0.000 N 
ENDROOT
BRANCH   1   2
ATOM      2  C   UNL     1      -5.643   4.645 130.115  0.00  0.00    +0.000 A 
ATOM      3  C   UNL     1      -6.202   5.850 130.594  0.00  0.00    +0.000 A 
ATOM      4  C   UNL     1      -5.416   6.960 130.962  0.00  0.00    +0.000 A 
ATOM      5  C   UNL     1      -4.026   6.871 130.976  0.00  0.00    +0.000 A 
ATOM      6  C   UNL     1      -3.188   7.989 131.531  0.00  0.00    +0.000 C 
ATOM      7  C   UNL     1      -3.440   5.684 130.524  0.00  0.00    +0.000 A 
ATOM      8  C   UNL     1      -4.238   4.595 130.085  0.00  0.00    +0.000 A 
ENDBRANCH   1   2
BRANCH   1   9
ATOM      9  S   UNL     1      -7.147   4.014 127.835  0.00  0.00    +0.000 S 
ATOM     10  O   UNL     1      -6.012   4.627 127.159  0.00  0.00    +0.000 OA
ATOM     11  O   UNL     1      -8.370   4.785 127.963  0.00  0.00    +0.000 OA
BRANCH   9  15
ATOM     12  C   UNL     1      -9.004   0.392 125.606  0.00  0.00    +0.000 A 
ATOM     13  C   UNL     1      -8.985   1.633 124.962  0.00  0.00    +0.000 A 
ATOM     14  C   UNL     1      -8.343   2.753 125.579  0.00  0.00    +0.000 A 
ATOM     15  C   UNL     1      -7.592   2.585 126.762  0.00  0.00    +0.000 A 
ATOM     16  C   UNL     1      -7.398   1.287 127.169  0.00  0.00    +0.000 A 
ATOM     17  C   UNL     1      -8.295   0.291 126.781  0.00  0.00    +0.000 A 
BRANCH  12  18
ATOM     18  O   UNL     1      -9.533  -0.722 125.004  0.00  0.00    +0.000 OA
BRANCH  18  19
ATOM     19  C   UNL     1      -9.183  -1.998 125.580  0.00  0.00    +0.000 C 
BRANCH  19  21
ATOM     20  C   UNL     1      -9.540  -3.316 123.473  0.00  0.00    +0.000 C 
ATOM     21  C   UNL     1      -8.530  -2.878 124.523  0.00  0.00    +0.000 C 
ENDBRANCH  19  21
ENDBRANCH  18  19
ENDBRANCH  12  18
ENDBRANCH   9  15
ENDBRANCH   1   9
BRANCH   1  22
ATOM     22  C   UNL     1      -7.260   2.738 130.499  0.00  0.00    +0.000 C 
BRANCH  22  23
ATOM     23  C   UNL     1      -8.774   2.704 130.750  0.00  0.00    +0.000 C 
ATOM     24  O   UNL     1      -9.263   1.588 131.086  0.00  0.00    +0.000 OA
ATOM     25  N   UNL     1      -9.538   3.906 130.603  0.00  0.00    +0.000 N 
ATOM     26  H   UNL     1      -9.052   4.749 130.278  0.00  0.00    +0.000 HD
BRANCH  25  27
ATOM     27  N   UNL     1     -11.014   4.013 130.268  0.00  0.00    +0.000 NA
ATOM     28  C   UNL     1     -11.492   5.255 130.323  0.00  0.00    +0.000 C 
ATOM     29  C   UNL     1     -11.012   6.190 131.370  0.00  0.00    +0.000 C 
ATOM     30  O   UNL     1      -9.868   6.560 131.140  0.00  0.00    +0.000 OA
ATOM     31  N   UNL     1     -12.115   6.959 131.742  0.00  0.00    +0.000 N 
ATOM     32  C   UNL     1     -12.605   7.368 130.490  0.00  0.00    +0.000 A 
ATOM     33  C   UNL     1     -12.936   8.730 130.355  0.00  0.00    +0.000 A 
ATOM     34  C   UNL     1     -12.950   9.298 129.102  0.00  0.00    +0.000 A 
ATOM     35  C   UNL     1     -12.605   8.460 128.034  0.00  0.00    +0.000 A 
ATOM     36  C   UNL     1     -12.287   7.026 128.201  0.00  0.00    +0.000 A 
ATOM     37  C   UNL     1     -12.300   6.413 129.480  0.00  0.00    +0.000 A 
ATOM     38  H   UNL     1     -12.875   6.423 132.160  0.00  0.00    +0.000 HD
ENDBRANCH  25  27
ENDBRANCH  22  23
ENDBRANCH   1  22
TORSDOF 9
ENDMDL
MODEL 4
REMARK VINA RESULT:      -9.1      3.267      4.382
REMARK  Name = CHEMBL2113216
REMARK  11 active torsions:
REMARK  status: ('A' for Active; 'I' for Inactive)
REMARK    1  A    between atoms: C_1  and  C_2
REMARK    2  A    between atoms: C_2  and  C_3
REMARK    3  A    between atoms: C_3  and  O_4
REMARK    4  A    between atoms: O_4  and  C_5
REMARK    5  A    between atoms: C_8  and  S_9
REMARK    6  A    between atoms: S_9  and  N_12
REMARK    7  A    between atoms: N_12  and  C_13
REMARK    8  A    between atoms: N_12  and  C_28
REMARK    9  A    between atoms: C_13  and  C_14
REMARK   10  A    between atoms: N_16  and  N_17
REMARK   11  A    between atoms: C_31  and  C_32
REMARK                            x       y       z     vdW  Elec       q    Type
REMARK                         _______ _______ _______ _____ _____    ______ ____
ROOT
ATOM      1  N   UNL     1      -6.007   2.748 129.939  0.00  0.00    +0.000 N 
ENDROOT
BRANCH   1   2
ATOM      2  C   UNL     1      -4.926   3.043 128.923  0.00  0.00    +0.000 A 
ATOM      3  C   UNL     1      -4.990   2.386 127.676  0.00  0.00    +0.000 A 
ATOM      4  C   UNL     1      -3.913   2.370 126.767  0.00  0.00    +0.000 A 
ATOM      5  C   UNL     1      -2.761   3.112 127.020  0.00  0.00    +0.000 A 
ATOM      6  C   UNL     1      -1.683   3.238 125.980  0.00  0.00    +0.000 C 
ATOM      7  C   UNL     1      -2.673   3.788 128.240  0.00  0.00    +0.000 A 
ATOM      8  C   UNL     1      -3.732   3.740 129.183  0.00  0.00    +0.000 A 
ENDBRANCH   1   2
BRANCH   1   9
ATOM      9  S   UNL     1      -6.053   1.108 130.610  0.00  0.00    +0.000 S 
ATOM     10  O   UNL     1      -7.253   1.065 131.434  0.00  0.00    +0.000 OA
ATOM     11  O   UNL     1      -4.774   0.852 131.245  0.00  0.00    +0.000 OA
BRANCH   9  15
ATOM     12  C   UNL     1      -6.439  -1.767 126.988  0.00  0.00    +0.000 A 
ATOM     13  C   UNL     1      -5.305  -1.866 127.800  0.00  0.00    +0.000 A 
ATOM     14  C   UNL     1      -5.190  -1.059 128.976  0.00  0.00    +0.000 A 
ATOM     15  C   UNL     1      -6.279  -0.273 129.413  0.00  0.00    +0.000 A 
ATOM     16  C   UNL     1      -7.462  -0.461 128.740  0.00  0.00    +0.000 A 
ATOM     17  C   UNL     1      -7.453  -0.951 127.433  0.00  0.00    +0.000 A 
BRANCH  12  18
ATOM     18  O   UNL     1      -6.619  -2.588 125.903  0.00  0.00    +0.000 OA
BRANCH  18  19
ATOM     19  C   UNL     1      -5.694  -2.424 124.807  0.00  0.00    +0.000 C 
BRANCH  19  21
ATOM     20  C   UNL     1      -4.300  -4.224 123.749  0.00  0.00    +0.000 C 
ATOM     21  C   UNL     1      -5.705  -3.671 123.933  0.00  0.00    +0.000 C 
ENDBRANCH  19  21
ENDBRANCH  18  19
ENDBRANCH  12  18
ENDBRANCH   9  15
ENDBRANCH   1   9
BRANCH   1  22
ATOM     22  C   UNL     1      -7.182   3.729 129.840  0.00  0.00    +0.000 C 
BRANCH  22  23
ATOM     23  C   UNL     1      -8.625   3.329 129.505  0.00  0.00    +0.000 C 
ATOM     24  O   UNL     1      -8.803   2.750 128.395  0.00  0.00    +0.000 OA
ATOM     25  N   UNL     1      -9.669   3.617 130.440  0.00  0.00    +0.000 N 
ATOM     26  H   UNL     1      -9.425   4.135 131.291  0.00  0.00    +0.000 HD
BRANCH  25  27
ATOM     27  N   UNL     1     -11.141   3.819 130.130  0.00  0.00    +0.000 NA
ATOM     28  C   UNL     1     -11.550   5.081 130.249  0.00  0.00    +0.000 C 
ATOM     29  C   UNL     1     -11.009   5.938 131.332  0.00  0.00    +0.000 C 
ATOM     30  O   UNL     1      -9.849   6.256 131.105  0.00  0.00    +0.000 OA
ATOM     31  N   UNL     1     -12.064   6.747 131.754  0.00  0.00    +0.000 N 
ATOM     32  C   UNL     1     -12.544   7.240 130.529  0.00  0.00    +0.000 A 
ATOM     33  C   UNL     1     -12.803   8.624 130.462  0.00  0.00    +0.000 A 
ATOM     34  C   UNL     1     -12.799   9.250 129.238  0.00  0.00    +0.000 A 
ATOM     35  C   UNL     1     -12.510   8.446 128.128  0.00  0.00    +0.000 A 
ATOM     36  C   UNL     1     -12.269   6.991 128.222  0.00  0.00    +0.000 A 
ATOM     37  C   UNL     1     -12.302   6.319 129.472  0.00  0.00    +0.000 A 
ATOM     38  H   UNL     1     -12.849   6.233 132.157  0.00  0.00    +0.000 HD
ENDBRANCH  25  27
ENDBRANCH  22  23
ENDBRANCH   1  22
TORSDOF 9
ENDMDL
MODEL 5
REMARK VINA RESULT:      -9.0      3.166      4.746
REMARK  Name = CHEMBL2113216
REMARK  11 active torsions:
REMARK  status: ('A' for Active; 'I' for Inactive)
REMARK    1  A    between atoms: C_1  and  C_2
REMARK    2  A    between atoms: C_2  and  C_3
REMARK    3  A    between atoms: C_3  and  O_4
REMARK    4  A    between atoms: O_4  and  C_5
REMARK    5  A    between atoms: C_8  and  S_9
REMARK    6  A    between atoms: S_9  and  N_12
REMARK    7  A    between atoms: N_12  and  C_13
REMARK    8  A    between atoms: N_12  and  C_28
REMARK    9  A    between atoms: C_13  and  C_14
REMARK   10  A    between atoms: N_16  and  N_17
REMARK   11  A    between atoms: C_31  and  C_32
REMARK                            x       y       z     vdW  Elec       q    Type
REMARK                         _______ _______ _______ _____ _____    ______ ____
ROOT
ATOM      1  N   UNL     1      -6.991   1.165 129.747  0.00  0.00    +0.000 N 
ENDROOT
BRANCH   1   2
ATOM      2  C   UNL     1      -7.250   1.584 128.316  0.00  0.00    +0.000 A 
ATOM      3  C   UNL     1      -8.485   1.228 127.734  0.00  0.00    +0.000 A 
ATOM      4  C   UNL     1      -8.729   1.321 126.349  0.00  0.00    +0.000 A 
ATOM      5  C   UNL     1      -7.781   1.885 125.499  0.00  0.00    +0.000 A 
ATOM      6  C   UNL     1      -8.101   2.145 124.053  0.00  0.00    +0.000 C 
ATOM      7  C   UNL     1      -6.551   2.263 126.047  0.00  0.00    +0.000 A 
ATOM      8  C   UNL     1      -6.285   2.099 127.431  0.00  0.00    +0.000 A 
ENDBRANCH   1   2
BRANCH   1   9
ATOM      9  S   UNL     1      -6.811  -0.571 130.056  0.00  0.00    +0.000 S 
ATOM     10  O   UNL     1      -8.002  -0.952 130.802  0.00  0.00    +0.000 OA
ATOM     11  O   UNL     1      -5.515  -0.780 130.677  0.00  0.00    +0.000 OA
BRANCH   9  15
ATOM     12  C   UNL     1      -7.263  -2.710 125.963  0.00  0.00    +0.000 A 
ATOM     13  C   UNL     1      -6.004  -2.217 126.323  0.00  0.00    +0.000 A 
ATOM     14  C   UNL     1      -5.804  -1.630 127.612  0.00  0.00    +0.000 A 
ATOM     15  C   UNL     1      -6.823  -1.682 128.588  0.00  0.00    +0.000 A 
ATOM     16  C   UNL     1      -7.917  -2.450 128.272  0.00  0.00    +0.000 A 
ATOM     17  C   UNL     1      -8.236  -2.696 126.935  0.00  0.00    +0.000 A 
BRANCH  12  18
ATOM     18  O   UNL     1      -7.467  -3.357 124.770  0.00  0.00    +0.000 OA
BRANCH  18  19
ATOM     19  C   UNL     1      -8.318  -2.694 123.812  0.00  0.00    +0.000 C 
BRANCH  19  21
ATOM     20  C   UNL     1      -6.358  -1.846 122.491  0.00  0.00    +0.000 C 
ATOM     21  C   UNL     1      -7.612  -1.461 123.262  0.00  0.00    +0.000 C 
ENDBRANCH  19  21
ENDBRANCH  18  19
ENDBRANCH  12  18
ENDBRANCH   9  15
ENDBRANCH   1   9
BRANCH   1  22
ATOM     22  C   UNL     1      -7.435   2.233 130.754  0.00  0.00    +0.000 C 
BRANCH  22  23
ATOM     23  C   UNL     1      -8.897   2.584 131.062  0.00  0.00    +0.000 C 
ATOM     24  O   UNL     1      -9.464   1.894 131.957  0.00  0.00    +0.000 OA
ATOM     25  N   UNL     1      -9.529   3.651 130.346  0.00  0.00    +0.000 N 
ATOM     26  H   UNL     1      -8.995   4.116 129.605  0.00  0.00    +0.000 HD
BRANCH  25  27
ATOM     27  N   UNL     1     -11.014   3.816 130.080  0.00  0.00    +0.000 NA
ATOM     28  C   UNL     1     -11.462   5.057 130.265  0.00  0.00    +0.000 C 
ATOM     29  C   UNL     1     -10.922   5.884 131.372  0.00  0.00    +0.000 C 
ATOM     30  O   UNL     1      -9.779   6.251 131.132  0.00  0.00    +0.000 OA
ATOM     31  N   UNL     1     -11.993   6.637 131.854  0.00  0.00    +0.000 N 
ATOM     32  C   UNL     1     -12.519   7.166 130.663  0.00  0.00    +0.000 A 
ATOM     33  C   UNL     1     -12.825   8.542 130.664  0.00  0.00    +0.000 A 
ATOM     34  C   UNL     1     -12.872   9.221 129.469  0.00  0.00    +0.000 A 
ATOM     35  C   UNL     1     -12.585   8.477 128.318  0.00  0.00    +0.000 A 
ATOM     36  C   UNL     1     -12.294   7.028 128.342  0.00  0.00    +0.000 A 
ATOM     37  C   UNL     1     -12.273   6.302 129.561  0.00  0.00    +0.000 A 
ATOM     38  H   UNL     1     -12.749   6.079 132.252  0.00  0.00    +0.000 HD
ENDBRANCH  25  27
ENDBRANCH  22  23
ENDBRANCH   1  22
TORSDOF 9
ENDMDL
MODEL 6
REMARK VINA RESULT:      -8.9      4.309      6.953
REMARK  Name = CHEMBL2113216
REMARK  11 active torsions:
REMARK  status: ('A' for Active; 'I' for Inactive)
REMARK    1  A    between atoms: C_1  and  C_2
REMARK    2  A    between atoms: C_2  and  C_3
REMARK    3  A    between atoms: C_3  and  O_4
REMARK    4  A    between atoms: O_4  and  C_5
REMARK    5  A    between atoms: C_8  and  S_9
REMARK    6  A    between atoms: S_9  and  N_12
REMARK    7  A    between atoms: N_12  and  C_13
REMARK    8  A    between atoms: N_12  and  C_28
REMARK    9  A    between atoms: C_13  and  C_14
REMARK   10  A    between atoms: N_16  and  N_17
REMARK   11  A    between atoms: C_31  and  C_32
REMARK                            x       y       z     vdW  Elec       q    Type
REMARK                         _______ _______ _______ _____ _____    ______ ____
ROOT
ATOM      1  N   UNL     1      -6.506   3.562 131.361  0.00  0.00    +0.000 N 
ENDROOT
BRANCH   1   2
ATOM      2  C   UNL     1      -6.910   4.276 132.633  0.00  0.00    +0.000 A 
ATOM      3  C   UNL     1      -6.078   5.313 133.105  0.00  0.00    +0.000 A 
ATOM      4  C   UNL     1      -6.200   5.858 134.399  0.00  0.00    +0.000 A 
ATOM      5  C   UNL     1      -7.241   5.466 135.238  0.00  0.00    +0.000 A 
ATOM      6  C   UNL     1      -7.481   6.165 136.547  0.00  0.00    +0.000 C 
ATOM      7  C   UNL     1      -8.094   4.451 134.793  0.00  0.00    +0.000 A 
ATOM      8  C   UNL     1      -7.920   3.855 133.517  0.00  0.00    +0.000 A 
ENDBRANCH   1   2
BRANCH   1   9
ATOM      9  S   UNL     1      -4.978   2.662 131.397  0.00  0.00    +0.000 S 
ATOM     10  O   UNL     1      -4.915   1.966 130.119  0.00  0.00    +0.000 OA
ATOM     11  O   UNL     1      -4.958   1.871 132.613  0.00  0.00    +0.000 OA
BRANCH   9  15
ATOM     12  C   UNL     1      -1.592   5.806 131.823  0.00  0.00    +0.000 A 
ATOM     13  C   UNL     1      -1.659   4.767 132.757  0.00  0.00    +0.000 A 
ATOM     14  C   UNL     1      -2.633   3.729 132.609  0.00  0.00    +0.000 A 
ATOM     15  C   UNL     1      -3.430   3.657 131.445  0.00  0.00    +0.000 A 
ATOM     16  C   UNL     1      -3.097   4.528 130.436  0.00  0.00    +0.000 A 
ATOM     17  C   UNL     1      -2.422   5.714 130.730  0.00  0.00    +0.000 A 
BRANCH  12  18
ATOM     18  O   UNL     1      -0.615   6.767 131.888  0.00  0.00    +0.000 OA
BRANCH  18  19
ATOM     19  C   UNL     1      -0.302   7.285 133.198  0.00  0.00    +0.000 C 
BRANCH  19  21
ATOM     20  C   UNL     1      -2.085   9.001 133.628  0.00  0.00    +0.000 C 
ATOM     21  C   UNL     1      -0.628   8.772 133.255  0.00  0.00    +0.000 C 
ENDBRANCH  19  21
ENDBRANCH  18  19
ENDBRANCH  12  18
ENDBRANCH   9  15
ENDBRANCH   1   9
BRANCH   1  22
ATOM     22  C   UNL     1      -7.195   4.145 130.122  0.00  0.00    +0.000 C 
BRANCH  22  23
ATOM     23  C   UNL     1      -8.590   3.736 129.628  0.00  0.00    +0.000 C 
ATOM     24  O   UNL     1      -8.673   3.373 128.420  0.00  0.00    +0.000 OA
ATOM     25  N   UNL     1      -9.697   3.778 130.534  0.00  0.00    +0.000 N 
ATOM     26  H   UNL     1      -9.531   4.135 131.481  0.00  0.00    +0.000 HD
BRANCH  25  27
ATOM     27  N   UNL     1     -11.162   3.953 130.177  0.00  0.00    +0.000 NA
ATOM     28  C   UNL     1     -11.595   5.209 130.270  0.00  0.00    +0.000 C 
ATOM     29  C   UNL     1     -11.101   6.086 131.360  0.00  0.00    +0.000 C 
ATOM     30  O   UNL     1      -9.940   6.421 131.165  0.00  0.00    +0.000 OA
ATOM     31  N   UNL     1     -12.182   6.882 131.741  0.00  0.00    +0.000 N 
ATOM     32  C   UNL     1     -12.632   7.354 130.496  0.00  0.00    +0.000 A 
ATOM     33  C   UNL     1     -12.910   8.733 130.406  0.00  0.00    +0.000 A 
ATOM     34  C   UNL     1     -12.879   9.346 129.176  0.00  0.00    +0.000 A 
ATOM     35  C   UNL     1     -12.543   8.536 128.084  0.00  0.00    +0.000 A 
ATOM     36  C   UNL     1     -12.282   7.086 128.201  0.00  0.00    +0.000 A 
ATOM     37  C   UNL     1     -12.343   6.427 129.457  0.00  0.00    +0.000 A 
ATOM     38  H   UNL     1     -12.970   6.359 132.124  0.00  0.00    +0.000 HD
ENDBRANCH  25  27
ENDBRANCH  22  23
ENDBRANCH   1  22
TORSDOF 9
ENDMDL
MODEL 7
REMARK VINA RESULT:      -8.9      4.859      8.103
REMARK  Name = CHEMBL2113216
REMARK  11 active torsions:
REMARK  status: ('A' for Active; 'I' for Inactive)
REMARK    1  A    between atoms: C_1  and  C_2
REMARK    2  A    between atoms: C_2  and  C_3
REMARK    3  A    between atoms: C_3  and  O_4
REMARK    4  A    between atoms: O_4  and  C_5
REMARK    5  A    between atoms: C_8  and  S_9
REMARK    6  A    between atoms: S_9  and  N_12
REMARK    7  A    between atoms: N_12  and  C_13
REMARK    8  A    between atoms: N_12  and  C_28
REMARK    9  A    between atoms: C_13  and  C_14
REMARK   10  A    between atoms: N_16  and  N_17
REMARK   11  A    between atoms: C_31  and  C_32
REMARK                            x       y       z     vdW  Elec       q    Type
REMARK                         _______ _______ _______ _____ _____    ______ ____
ROOT
ATOM      1  N   UNL     1      -8.034   2.108 123.663  0.00  0.00    +0.000 N 
ENDROOT
BRANCH   1   2
ATOM      2  C   UNL     1      -7.646   2.935 122.456  0.00  0.00    +0.000 A 
ATOM      3  C   UNL     1      -8.672   3.361 121.586  0.00  0.00    +0.000 A 
ATOM      4  C   UNL     1      -8.413   3.894 120.308  0.00  0.00    +0.000 A 
ATOM      5  C   UNL     1      -7.105   4.132 119.891  0.00  0.00    +0.000 A 
ATOM      6  C   UNL     1      -6.827   4.858 118.604  0.00  0.00    +0.000 C 
ATOM      7  C   UNL     1      -6.065   3.736 120.737  0.00  0.00    +0.000 A 
ATOM      8  C   UNL     1      -6.333   3.132 121.993  0.00  0.00    +0.000 A 
ENDBRANCH   1   2
BRANCH   1   9
ATOM      9  S   UNL     1      -8.004   2.922 125.238  0.00  0.00    +0.000 S 
ATOM     10  O   UNL     1      -8.936   2.175 126.072  0.00  0.00    +0.000 OA
ATOM     11  O   UNL     1      -8.261   4.332 125.013  0.00  0.00    +0.000 OA
BRANCH   9  15
ATOM     12  C   UNL     1      -4.098   3.653 127.633  0.00  0.00    +0.000 A 
ATOM     13  C   UNL     1      -5.200   3.111 128.303  0.00  0.00    +0.000 A 
ATOM     14  C   UNL     1      -6.393   2.789 127.581  0.00  0.00    +0.000 A 
ATOM     15  C   UNL     1      -6.419   2.867 126.172  0.00  0.00    +0.000 A 
ATOM     16  C   UNL     1      -5.212   3.109 125.562  0.00  0.00    +0.000 A 
ATOM     17  C   UNL     1      -4.191   3.753 126.264  0.00  0.00    +0.000 A 
BRANCH  12  18
ATOM     18  O   UNL     1      -2.911   3.891 128.279  0.00  0.00    +0.000 OA
BRANCH  18  19
ATOM     19  C   UNL     1      -2.902   4.970 129.238  0.00  0.00    +0.000 C 
BRANCH  19  21
ATOM     20  C   UNL     1      -3.357   7.346 128.566  0.00  0.00    +0.000 C 
ATOM     21  C   UNL     1      -2.328   6.226 128.596  0.00  0.00    +0.000 C 
ENDBRANCH  19  21
ENDBRANCH  18  19
ENDBRANCH  12  18
ENDBRANCH   9  15
ENDBRANCH   1   9
BRANCH   1  22
ATOM     22  C   UNL     1      -7.887   0.603 123.408  0.00  0.00    +0.000 C 
BRANCH  22  23
ATOM     23  C   UNL     1      -8.415  -0.494 124.342  0.00  0.00    +0.000 C 
ATOM     24  O   UNL     1      -9.671  -0.639 124.384  0.00  0.00    +0.000 OA
ATOM     25  N   UNL     1      -7.488  -1.283 125.095  0.00  0.00    +0.000 N 
ATOM     26  H   UNL     1      -6.492  -1.052 125.025  0.00  0.00    +0.000 HD
BRANCH  25  27
ATOM     27  N   UNL     1      -7.752  -1.994 126.410  0.00  0.00    +0.000 NA
ATOM     28  C   UNL     1      -6.917  -1.648 127.388  0.00  0.00    +0.000 C 
ATOM     29  C   UNL     1      -5.488  -1.387 127.087  0.00  0.00    +0.000 C 
ATOM     30  O   UNL     1      -5.349  -0.326 126.492  0.00  0.00    +0.000 OA
ATOM     31  N   UNL     1      -4.764  -1.872 128.176  0.00  0.00    +0.000 N 
ATOM     32  C   UNL     1      -5.458  -1.293 129.252  0.00  0.00    +0.000 A 
ATOM     33  C   UNL     1      -4.677  -0.685 130.255  0.00  0.00    +0.000 A 
ATOM     34  C   UNL     1      -5.238   0.287 131.048  0.00  0.00    +0.000 A 
ATOM     35  C   UNL     1      -6.571   0.621 130.776  0.00  0.00    +0.000 A 
ATOM     36  C   UNL     1      -7.377  -0.051 129.735  0.00  0.00    +0.000 A 
ATOM     37  C   UNL     1      -6.827  -1.080 128.929  0.00  0.00    +0.000 A 
ATOM     38  H   UNL     1      -4.850  -2.879 128.319  0.00  0.00    +0.000 HD
ENDBRANCH  25  27
ENDBRANCH  22  23
ENDBRANCH   1  22
TORSDOF 9
ENDMDL
MODEL 8
REMARK VINA RESULT:      -8.8      4.307      8.826
REMARK  Name = CHEMBL2113216
REMARK  11 active torsions:
REMARK  status: ('A' for Active; 'I' for Inactive)
REMARK    1  A    between atoms: C_1  and  C_2
REMARK    2  A    between atoms: C_2  and  C_3
REMARK    3  A    between atoms: C_3  and  O_4
REMARK    4  A    between atoms: O_4  and  C_5
REMARK    5  A    between atoms: C_8  and  S_9
REMARK    6  A    between atoms: S_9  and  N_12
REMARK    7  A    between atoms: N_12  and  C_13
REMARK    8  A    between atoms: N_12  and  C_28
REMARK    9  A    between atoms: C_13  and  C_14
REMARK   10  A    between atoms: N_16  and  N_17
REMARK   11  A    between atoms: C_31  and  C_32
REMARK                            x       y       z     vdW  Elec       q    Type
REMARK                         _______ _______ _______ _____ _____    ______ ____
ROOT
ATOM      1  N   UNL     1      -9.928   4.988 131.306  0.00  0.00    +0.000 N 
ENDROOT
BRANCH   1   2
ATOM      2  C   UNL     1     -10.617   6.216 130.751  0.00  0.00    +0.000 A 
ATOM      3  C   UNL     1     -11.949   6.464 131.146  0.00  0.00    +0.000 A 
ATOM      4  C   UNL     1     -12.772   7.406 130.496  0.00  0.00    +0.000 A 
ATOM      5  C   UNL     1     -12.257   8.226 129.495  0.00  0.00    +0.000 A 
ATOM      6  C   UNL     1     -13.077   9.347 128.920  0.00  0.00    +0.000 C 
ATOM      7  C   UNL     1     -10.935   8.017 129.092  0.00  0.00    +0.000 A 
ATOM      8  C   UNL     1     -10.133   7.016 129.700  0.00  0.00    +0.000 A 
ENDBRANCH   1   2
BRANCH   1   9
ATOM      9  S   UNL     1      -8.849   5.231 132.692  0.00  0.00    +0.000 S 
ATOM     10  O   UNL     1      -8.839   3.957 133.397  0.00  0.00    +0.000 OA
ATOM     11  O   UNL     1      -9.303   6.409 133.407  0.00  0.00    +0.000 OA
BRANCH   9  15
ATOM     12  C   UNL     1      -4.556   6.858 132.012  0.00  0.00    +0.000 A 
ATOM     13  C   UNL     1      -4.788   6.026 133.113  0.00  0.00    +0.000 A 
ATOM     14  C   UNL     1      -6.076   5.434 133.307  0.00  0.00    +0.000 A 
ATOM     15  C   UNL     1      -7.075   5.553 132.317  0.00  0.00    +0.000 A 
ATOM     16  C   UNL     1      -6.678   6.120 131.130  0.00  0.00    +0.000 A 
ATOM     17  C   UNL     1      -5.578   6.979 131.099  0.00  0.00    +0.000 A 
BRANCH  12  18
ATOM     18  O   UNL     1      -3.311   7.370 131.749  0.00  0.00    +0.000 OA
BRANCH  18  19
ATOM     19  C   UNL     1      -2.385   6.500 131.064  0.00  0.00    +0.000 C 
BRANCH  19  21
ATOM     20  C   UNL     1      -1.454   4.689 132.533  0.00  0.00    +0.000 C 
ATOM     21  C   UNL     1      -1.257   6.103 132.007  0.00  0.00    +0.000 C 
ENDBRANCH  19  21
ENDBRANCH  18  19
ENDBRANCH  12  18
ENDBRANCH   9  15
ENDBRANCH   1   9
BRANCH   1  22
ATOM     22  C   UNL     1      -9.863   3.846 130.285  0.00  0.00    +0.000 C 
BRANCH  22  23
ATOM     23  C   UNL     1      -8.613   3.468 129.479  0.00  0.00    +0.000 C 
ATOM     24  O   UNL     1      -8.543   3.930 128.304  0.00  0.00    +0.000 OA
ATOM     25  N   UNL     1      -7.612   2.641 130.081  0.00  0.00    +0.000 N 
ATOM     26  H   UNL     1      -7.789   2.279 131.023  0.00  0.00    +0.000 HD
BRANCH  25  27
ATOM     27  N   UNL     1      -6.631   1.730 129.365  0.00  0.00    +0.000 NA
ATOM     28  C   UNL     1      -6.944   0.437 129.435  0.00  0.00    +0.000 C 
ATOM     29  C   UNL     1      -7.531  -0.119 130.678  0.00  0.00    +0.000 C 
ATOM     30  O   UNL     1      -8.691   0.247 130.821  0.00  0.00    +0.000 OA
ATOM     31  N   UNL     1      -7.002  -1.402 130.820  0.00  0.00    +0.000 N 
ATOM     32  C   UNL     1      -7.223  -1.938 129.540  0.00  0.00    +0.000 A 
ATOM     33  C   UNL     1      -7.773  -3.233 129.483  0.00  0.00    +0.000 A 
ATOM     34  C   UNL     1      -8.452  -3.627 128.354  0.00  0.00    +0.000 A 
ATOM     35  C   UNL     1      -8.564  -2.677 127.331  0.00  0.00    +0.000 A 
ATOM     36  C   UNL     1      -7.954  -1.333 127.405  0.00  0.00    +0.000 A 
ATOM     37  C   UNL     1      -7.220  -0.919 128.547  0.00  0.00    +0.000 A 
ATOM     38  H   UNL     1      -5.989  -1.424 130.943  0.00  0.00    +0.000 HD
ENDBRANCH  25  27
ENDBRANCH  22  23
ENDBRANCH   1  22
TORSDOF 9
ENDMDL
MODEL 9
REMARK VINA RESULT:      -8.8      3.635      5.459
REMARK  Name = CHEMBL2113216
REMARK  11 active torsions:
REMARK  status: ('A' for Active; 'I' for Inactive)
REMARK    1  A    between atoms: C_1  and  C_2
REMARK    2  A    between atoms: C_2  and  C_3
REMARK    3  A    between atoms: C_3  and  O_4
REMARK    4  A    between atoms: O_4  and  C_5
REMARK    5  A    between atoms: C_8  and  S_9
REMARK    6  A    between atoms: S_9  and  N_12
REMARK    7  A    between atoms: N_12  and  C_13
REMARK    8  A    between atoms: N_12  and  C_28
REMARK    9  A    between atoms: C_13  and  C_14
REMARK   10  A    between atoms: N_16  and  N_17
REMARK   11  A    between atoms: C_31  and  C_32
REMARK                            x       y       z     vdW  Elec       q    Type
REMARK                         _______ _______ _______ _____ _____    ______ ____
ROOT
ATOM      1  N   UNL     1      -5.744   4.216 130.610  0.00  0.00    +0.000 N 
ENDROOT
BRANCH   1   2
ATOM      2  C   UNL     1      -4.652   3.785 129.655  0.00  0.00    +0.000 A 
ATOM      3  C   UNL     1      -3.649   4.722 129.327  0.00  0.00    +0.000 A 
ATOM      4  C   UNL     1      -2.750   4.532 128.258  0.00  0.00    +0.000 A 
ATOM      5  C   UNL     1      -2.743   3.337 127.542  0.00  0.00    +0.000 A 
ATOM      6  C   UNL     1      -1.678   3.059 126.519  0.00  0.00    +0.000 C 
ATOM      7  C   UNL     1      -3.714   2.381 127.853  0.00  0.00    +0.000 A 
ATOM      8  C   UNL     1      -4.663   2.609 128.883  0.00  0.00    +0.000 A 
ENDBRANCH   1   2
BRANCH   1   9
ATOM      9  S   UNL     1      -5.991   3.214 132.052  0.00  0.00    +0.000 S 
ATOM     10  O   UNL     1      -7.191   3.744 132.685  0.00  0.00    +0.000 OA
ATOM     11  O   UNL     1      -4.754   3.217 132.811  0.00  0.00    +0.000 OA
BRANCH   9  15
ATOM     12  C   UNL     1      -6.569  -1.146 130.572  0.00  0.00    +0.000 A 
ATOM     13  C   UNL     1      -5.603  -0.897 131.553  0.00  0.00    +0.000 A 
ATOM     14  C   UNL     1      -5.455   0.417 132.098  0.00  0.00    +0.000 A 
ATOM     15  C   UNL     1      -6.377   1.436 131.771  0.00  0.00    +0.000 A 
ATOM     16  C   UNL     1      -7.475   1.040 131.046  0.00  0.00    +0.000 A 
ATOM     17  C   UNL     1      -7.413  -0.108 130.254  0.00  0.00    +0.000 A 
BRANCH  12  18
ATOM     18  O   UNL     1      -6.795  -2.412 130.093  0.00  0.00    +0.000 OA
BRANCH  18  19
ATOM     19  C   UNL     1      -7.401  -2.510 128.786  0.00  0.00    +0.000 C 
BRANCH  19  21
ATOM     20  C   UNL     1      -8.979  -3.914 127.428  0.00  0.00    +0.000 C 
ATOM     21  C   UNL     1      -8.563  -3.494 128.830  0.00  0.00    +0.000 C 
ENDBRANCH  19  21
ENDBRANCH  18  19
ENDBRANCH  12  18
ENDBRANCH   9  15
ENDBRANCH   1   9
BRANCH   1  22
ATOM     22  C   UNL     1      -6.781   5.122 129.937  0.00  0.00    +0.000 C 
BRANCH  22  23
ATOM     23  C   UNL     1      -8.115   4.635 129.353  0.00  0.00    +0.000 C 
ATOM     24  O   UNL     1      -8.201   4.613 128.092  0.00  0.00    +0.000 OA
ATOM     25  N   UNL     1      -9.165   4.235 130.239  0.00  0.00    +0.000 N 
ATOM     26  H   UNL     1      -9.010   4.338 131.248  0.00  0.00    +0.000 HD
BRANCH  25  27
ATOM     27  N   UNL     1     -10.656   4.251 129.952  0.00  0.00    +0.000 NA
ATOM     28  C   UNL     1     -11.240   5.424 130.187  0.00  0.00    +0.000 C 
ATOM     29  C   UNL     1     -10.810   6.249 131.343  0.00  0.00    +0.000 C 
ATOM     30  O   UNL     1      -9.711   6.751 131.144  0.00  0.00    +0.000 OA
ATOM     31  N   UNL     1     -11.964   6.856 131.840  0.00  0.00    +0.000 N 
ATOM     32  C   UNL     1     -12.528   7.384 130.666  0.00  0.00    +0.000 A 
ATOM     33  C   UNL     1     -12.983   8.716 130.727  0.00  0.00    +0.000 A 
ATOM     34  C   UNL     1     -13.088   9.444 129.565  0.00  0.00    +0.000 A 
ATOM     35  C   UNL     1     -12.704   8.794 128.385  0.00  0.00    +0.000 A 
ATOM     36  C   UNL     1     -12.256   7.386 128.346  0.00  0.00    +0.000 A 
ATOM     37  C   UNL     1     -12.173   6.607 129.529  0.00  0.00    +0.000 A 
ATOM     38  H   UNL     1     -12.660   6.200 132.196  0.00  0.00    +0.000 HD
ENDBRANCH  25  27
ENDBRANCH  22  23
ENDBRANCH   1  22
TORSDOF 9
ENDMDL
