MODEL 1
REMARK VINA RESULT:      -8.7      0.000      0.000
REMARK  Name = CHEMBL2035012
REMARK  12 active torsions:
REMARK  status: ('A' for Active; 'I' for Inactive)
REMARK    1  A    between atoms: CD1_1  and  CG_2
REMARK    2  A    between atoms: CG_2  and  CD2_3
REMARK    3  A    between atoms: CG_2  and  CB_4
REMARK    4  A    between atoms: CB_4  and  CA_5
REMARK    5  A    between atoms: C_9  and  C_10
REMARK    6  A    between atoms: N_21  and  C_22
REMARK    7  A    between atoms: C_22  and  C_23
REMARK    8  A    between atoms: C_22  and  C_29
REMARK    9  A    between atoms: N_25  and  C_26
REMARK   10  A    between atoms: C_26  and  C_27
REMARK   11  A    between atoms: C_26  and  C_28
REMARK   12  A    between atoms: C_34  and  C_35
REMARK                            x       y       z     vdW  Elec       q    Type
REMARK                         _______ _______ _______ _____ _____    ______ ____
ROOT
ATOM      1  CA  LEU A   2      -7.620   1.742 126.232  0.00  0.00    +0.000 C 
ATOM      2  C   LEU A   2      -7.146   3.070 126.888  0.00  0.00    +0.000 C 
ATOM      3  O   LEU A   2      -6.433   3.908 126.390  0.00  0.00    +0.000 OA
ATOM      4  N   UNK A   1      -7.643   3.248 128.147  0.00  0.00    +0.000 N 
ATOM      5  C   UNK A   1      -8.520   2.290 128.780  0.00  0.00    +0.000 C 
ATOM      6  C   UNK A   1      -7.943   0.912 128.545  0.00  0.00    +0.000 C 
ATOM      7  O   UNK A   1      -8.069   0.064 129.417  0.00  0.00    +0.000 OA
ATOM      8  N   LEU A   2      -7.363   0.689 127.301  0.00  0.00    +0.000 N 
ATOM      9  H   UNK A   1      -7.280   4.065 128.622  0.00  0.00    +0.000 HD
ENDROOT
BRANCH   5  10
ATOM     10  C   UNK A   1      -8.578   2.385 130.320  0.00  0.00    +0.000 C 
ATOM     11  C   UNK A   1      -9.969   2.784 130.795  0.00  0.00    +0.000 C 
ATOM     12  C   UNK A   1      -9.833   4.275 130.801  0.00  0.00    +0.000 A 
ATOM     13  C   UNK A   1     -10.838   5.205 130.653  0.00  0.00    +0.000 A 
ATOM     14  C   UNK A   1     -10.476   6.546 130.531  0.00  0.00    +0.000 A 
ATOM     15  C   UNK A   1      -9.125   6.940 130.538  0.00  0.00    +0.000 A 
ATOM     16  C   UNK A   1      -8.112   5.995 130.668  0.00  0.00    +0.000 A 
ATOM     17  C   UNK A   1      -8.487   4.672 130.815  0.00  0.00    +0.000 A 
ATOM     18  C   UNK A   1      -7.595   3.480 130.852  0.00  0.00    +0.000 C 
ENDBRANCH   5  10
BRANCH   1  19
ATOM     19  CB  LEU A   2      -6.869   1.651 124.912  0.00  0.00    +0.000 C 
BRANCH  19  21
ATOM     20  CD1 LEU A   2      -8.835   0.455 123.642  0.00  0.00    +0.000 C 
ATOM     21  CG  LEU A   2      -7.707   1.491 123.590  0.00  0.00    +0.000 C 
ATOM     22  CD2 LEU A   2      -8.377   2.704 122.965  0.00  0.00    +0.000 C 
ENDBRANCH  19  21
ENDBRANCH   1  19
BRANCH   8  23
ATOM     23  C   UNK A   0      -6.682  -0.621 127.111  0.00  0.00    +0.000 C 
BRANCH  23  24
ATOM     24  C   UNK A   0      -7.430  -1.711 126.303  0.00  0.00    +0.000 A 
ATOM     25  C   UNK A   0      -8.657  -2.182 126.794  0.00  0.00    +0.000 A 
ATOM     26  C   UNK A   0      -9.359  -3.192 126.172  0.00  0.00    +0.000 A 
ATOM     27  C   UNK A   0      -8.918  -3.670 124.955  0.00  0.00    +0.000 A 
ATOM     28  C   UNK A   0      -7.705  -3.234 124.422  0.00  0.00    +0.000 A 
ATOM     29  C   UNK A   0      -6.899  -2.302 125.101  0.00  0.00    +0.000 A 
BRANCH  29  30
ATOM     30  C   UNK A   0      -5.608  -1.914 124.361  0.00  0.00    +0.000 C 
ATOM     31  F   UNK A   0      -4.795  -2.990 124.143  0.00  0.00    +0.000 F 
ATOM     32  F   UNK A   0      -5.833  -1.388 123.117  0.00  0.00    +0.000 F 
ATOM     33  F   UNK A   0      -4.783  -1.011 124.958  0.00  0.00    +0.000 F 
ENDBRANCH  29  30
ENDBRANCH  23  24
BRANCH  23  34
ATOM     34  C   UNK A   0      -5.750  -1.113 128.322  0.00  0.00    +0.000 C 
ATOM     35  O   UNK A   0      -4.891  -0.437 128.876  0.00  0.00    +0.000 OA
ATOM     36  N   UNK A   0      -5.926  -2.383 128.806  0.00  0.00    +0.000 N 
ATOM     37  H   UNK A   0      -6.818  -2.808 128.725  0.00  0.00    +0.000 HD
BRANCH  36  38
ATOM     38  C   UNK A   0      -5.064  -3.063 129.746  0.00  0.00    +0.000 C 
ATOM     39  C   UNK A   0      -5.882  -4.203 130.310  0.00  0.00    +0.000 C 
ATOM     40  C   UNK A   0      -3.770  -3.595 129.096  0.00  0.00    +0.000 C 
ENDBRANCH  36  38
ENDBRANCH  23  34
ENDBRANCH   8  23
TORSDOF 8
ENDMDL
MODEL 2
REMARK VINA RESULT:      -8.7      2.862      5.161
REMARK  Name = CHEMBL2035012
REMARK  12 active torsions:
REMARK  status: ('A' for Active; 'I' for Inactive)
REMARK    1  A    between atoms: CD1_1  and  CG_2
REMARK    2  A    between atoms: CG_2  and  CD2_3
REMARK    3  A    between atoms: CG_2  and  CB_4
REMARK    4  A    between atoms: CB_4  and  CA_5
REMARK    5  A    between atoms: C_9  and  C_10
REMARK    6  A    between atoms: N_21  and  C_22
REMARK    7  A    between atoms: C_22  and  C_23
REMARK    8  A    between atoms: C_22  and  C_29
REMARK    9  A    between atoms: N_25  and  C_26
REMARK   10  A    between atoms: C_26  and  C_27
REMARK   11  A    between atoms: C_26  and  C_28
REMARK   12  A    between atoms: C_34  and  C_35
REMARK                            x       y       z     vdW  Elec       q    Type
REMARK                         _______ _______ _______ _____ _____    ______ ____
ROOT
ATOM      1  CA  LEU A   2      -5.412   2.561 127.312  0.00  0.00    +0.000 C 
ATOM      2  C   LEU A   2      -5.269   1.653 128.567  0.00  0.00    +0.000 C 
ATOM      3  O   LEU A   2      -4.296   1.013 128.889  0.00  0.00    +0.000 OA
ATOM      4  N   UNK A   1      -6.390   1.643 129.346  0.00  0.00    +0.000 N 
ATOM      5  C   UNK A   1      -7.571   2.410 129.021  0.00  0.00    +0.000 C 
ATOM      6  C   UNK A   1      -7.855   2.214 127.548  0.00  0.00    +0.000 C 
ATOM      7  O   UNK A   1      -9.018   2.186 127.172  0.00  0.00    +0.000 OA
ATOM      8  N   LEU A   2      -6.748   2.151 126.709  0.00  0.00    +0.000 N 
ATOM      9  H   UNK A   1      -6.346   0.995 130.122  0.00  0.00    +0.000 HD
ENDROOT
BRANCH   5  10
ATOM     10  C   UNK A   1      -8.868   1.914 129.694  0.00  0.00    +0.000 C 
ATOM     11  C   UNK A   1      -9.726   3.082 130.164  0.00  0.00    +0.000 C 
ATOM     12  C   UNK A   1      -9.189   3.270 131.548  0.00  0.00    +0.000 A 
ATOM     13  C   UNK A   1      -9.184   4.429 132.291  0.00  0.00    +0.000 A 
ATOM     14  C   UNK A   1      -8.492   4.427 133.503  0.00  0.00    +0.000 A 
ATOM     15  C   UNK A   1      -7.802   3.284 133.946  0.00  0.00    +0.000 A 
ATOM     16  C   UNK A   1      -7.794   2.121 133.183  0.00  0.00    +0.000 A 
ATOM     17  C   UNK A   1      -8.506   2.129 131.997  0.00  0.00    +0.000 A 
ATOM     18  C   UNK A   1      -8.551   1.057 130.964  0.00  0.00    +0.000 C 
ENDBRANCH   5  10
BRANCH   1  19
ATOM     19  CB  LEU A   2      -4.141   2.342 126.505  0.00  0.00    +0.000 C 
BRANCH  19  21
ATOM     20  CD1 LEU A   2      -3.070   4.357 127.809  0.00  0.00    +0.000 C 
ATOM     21  CG  LEU A   2      -3.012   3.435 126.587  0.00  0.00    +0.000 C 
ATOM     22  CD2 LEU A   2      -1.550   3.022 126.531  0.00  0.00    +0.000 C 
ENDBRANCH  19  21
ENDBRANCH   1  19
BRANCH   8  23
ATOM     23  C   UNK A   0      -7.017   1.832 125.280  0.00  0.00    +0.000 C 
BRANCH  23  24
ATOM     24  C   UNK A   0      -6.832   0.363 124.823  0.00  0.00    +0.000 A 
ATOM     25  C   UNK A   0      -5.655  -0.308 125.189  0.00  0.00    +0.000 A 
ATOM     26  C   UNK A   0      -5.383  -1.594 124.775  0.00  0.00    +0.000 A 
ATOM     27  C   UNK A   0      -6.349  -2.302 124.090  0.00  0.00    +0.000 A 
ATOM     28  C   UNK A   0      -7.537  -1.682 123.703  0.00  0.00    +0.000 A 
ATOM     29  C   UNK A   0      -7.787  -0.328 123.994  0.00  0.00    +0.000 A 
BRANCH  29  30
ATOM     30  C   UNK A   0      -9.155   0.187 123.516  0.00  0.00    +0.000 C 
ATOM     31  F   UNK A   0      -9.839  -0.756 122.802  0.00  0.00    +0.000 F 
ATOM     32  F   UNK A   0      -9.996   0.527 124.541  0.00  0.00    +0.000 F 
ATOM     33  F   UNK A   0      -9.171   1.275 122.699  0.00  0.00    +0.000 F 
ENDBRANCH  29  30
ENDBRANCH  23  24
BRANCH  23  34
ATOM     34  C   UNK A   0      -6.655   2.982 124.220  0.00  0.00    +0.000 C 
ATOM     35  O   UNK A   0      -6.416   4.152 124.498  0.00  0.00    +0.000 OA
ATOM     36  N   UNK A   0      -6.582   2.647 122.893  0.00  0.00    +0.000 N 
ATOM     37  H   UNK A   0      -6.344   1.718 122.645  0.00  0.00    +0.000 HD
BRANCH  36  38
ATOM     38  C   UNK A   0      -6.466   3.571 121.787  0.00  0.00    +0.000 C 
ATOM     39  C   UNK A   0      -5.367   3.022 120.904  0.00  0.00    +0.000 C 
ATOM     40  C   UNK A   0      -7.778   3.721 120.990  0.00  0.00    +0.000 C 
ENDBRANCH  36  38
ENDBRANCH  23  34
ENDBRANCH   8  23
TORSDOF 8
ENDMDL
MODEL 3
REMARK VINA RESULT:      -8.6      4.795      6.928
REMARK  Name = CHEMBL2035012
REMARK  12 active torsions:
REMARK  status: ('A' for Active; 'I' for Inactive)
REMARK    1  A    between atoms: CD1_1  and  CG_2
REMARK    2  A    between atoms: CG_2  and  CD2_3
REMARK    3  A    between atoms: CG_2  and  CB_4
REMARK    4  A    between atoms: CB_4  and  CA_5
REMARK    5  A    between atoms: C_9  and  C_10
REMARK    6  A    between atoms: N_21  and  C_22
REMARK    7  A    between atoms: C_22  and  C_23
REMARK    8  A    between atoms: C_22  and  C_29
REMARK    9  A    between atoms: N_25  and  C_26
REMARK   10  A    between atoms: C_26  and  C_27
REMARK   11  A    between atoms: C_26  and  C_28
REMARK   12  A    between atoms: C_34  and  C_35
REMARK                            x       y       z     vdW  Elec       q    Type
REMARK                         _______ _______ _______ _____ _____    ______ ____
ROOT
ATOM      1  CA  LEU A   2      -7.437   3.286 129.315  0.00  0.00    +0.000 C 
ATOM      2  C   LEU A   2      -8.179   4.238 128.334  0.00  0.00    +0.000 C 
ATOM      3  O   LEU A   2      -8.128   4.216 127.127  0.00  0.00    +0.000 OA
ATOM      4  N   UNK A   1      -8.966   5.153 128.974  0.00  0.00    +0.000 N 
ATOM      5  C   UNK A   1      -9.083   5.205 130.413  0.00  0.00    +0.000 C 
ATOM      6  C   UNK A   1      -7.691   5.092 130.994  0.00  0.00    +0.000 C 
ATOM      7  O   UNK A   1      -7.428   5.706 132.017  0.00  0.00    +0.000 OA
ATOM      8  N   LEU A   2      -6.821   4.222 130.345  0.00  0.00    +0.000 N 
ATOM      9  H   UNK A   1      -9.392   5.833 128.358  0.00  0.00    +0.000 HD
ENDROOT
BRANCH   5  10
ATOM     10  C   UNK A   1      -9.583   6.555 130.971  0.00  0.00    +0.000 C 
ATOM     11  C   UNK A   1     -11.075   6.507 131.277  0.00  0.00    +0.000 C 
ATOM     12  C   UNK A   1     -11.633   6.949 129.961  0.00  0.00    +0.000 A 
ATOM     13  C   UNK A   1     -12.870   6.648 129.435  0.00  0.00    +0.000 A 
ATOM     14  C   UNK A   1     -13.134   7.033 128.121  0.00  0.00    +0.000 A 
ATOM     15  C   UNK A   1     -12.163   7.692 127.345  0.00  0.00    +0.000 A 
ATOM     16  C   UNK A   1     -10.908   7.977 127.873  0.00  0.00    +0.000 A 
ATOM     17  C   UNK A   1     -10.669   7.613 129.186  0.00  0.00    +0.000 A 
ATOM     18  C   UNK A   1      -9.381   7.704 129.928  0.00  0.00    +0.000 C 
ENDBRANCH   5  10
BRANCH   1  19
ATOM     19  CB  LEU A   2      -6.519   2.442 128.443  0.00  0.00    +0.000 C 
BRANCH  19  21
ATOM     20  CD1 LEU A   2      -5.350   0.263 129.334  0.00  0.00    +0.000 C 
ATOM     21  CG  LEU A   2      -6.557   0.879 128.620  0.00  0.00    +0.000 C 
ATOM     22  CD2 LEU A   2      -7.742   0.222 129.309  0.00  0.00    +0.000 C 
ENDBRANCH  19  21
ENDBRANCH   1  19
BRANCH   8  23
ATOM     23  C   UNK A   0      -5.416   4.203 130.834  0.00  0.00    +0.000 C 
BRANCH  23  24
ATOM     24  C   UNK A   0      -4.324   4.808 129.915  0.00  0.00    +0.000 A 
ATOM     25  C   UNK A   0      -3.714   3.974 128.965  0.00  0.00    +0.000 A 
ATOM     26  C   UNK A   0      -2.693   4.413 128.150  0.00  0.00    +0.000 A 
ATOM     27  C   UNK A   0      -2.344   5.748 128.165  0.00  0.00    +0.000 A 
ATOM     28  C   UNK A   0      -2.921   6.619 129.089  0.00  0.00    +0.000 A 
ATOM     29  C   UNK A   0      -3.869   6.170 130.027  0.00  0.00    +0.000 A 
BRANCH  29  30
ATOM     30  C   UNK A   0      -4.421   7.266 130.953  0.00  0.00    +0.000 C 
ATOM     31  F   UNK A   0      -3.620   8.373 130.975  0.00  0.00    +0.000 F 
ATOM     32  F   UNK A   0      -5.650   7.731 130.573  0.00  0.00    +0.000 F 
ATOM     33  F   UNK A   0      -4.575   6.963 132.272  0.00  0.00    +0.000 F 
ENDBRANCH  29  30
ENDBRANCH  23  24
BRANCH  23  34
ATOM     34  C   UNK A   0      -5.000   2.942 131.737  0.00  0.00    +0.000 C 
ATOM     35  O   UNK A   0      -3.861   2.512 131.874  0.00  0.00    +0.000 OA
ATOM     36  N   UNK A   0      -5.982   2.290 132.438  0.00  0.00    +0.000 N 
ATOM     37  H   UNK A   0      -6.789   2.794 132.715  0.00  0.00    +0.000 HD
BRANCH  36  38
ATOM     38  C   UNK A   0      -5.836   1.034 133.138  0.00  0.00    +0.000 C 
ATOM     39  C   UNK A   0      -5.821   1.381 134.611  0.00  0.00    +0.000 C 
ATOM     40  C   UNK A   0      -6.973   0.039 132.827  0.00  0.00    +0.000 C 
ENDBRANCH  36  38
ENDBRANCH  23  34
ENDBRANCH   8  23
TORSDOF 8
ENDMDL
MODEL 4
REMARK VINA RESULT:      -8.6      4.929      7.092
REMARK  Name = CHEMBL2035012
REMARK  12 active torsions:
REMARK  status: ('A' for Active; 'I' for Inactive)
REMARK    1  A    between atoms: CD1_1  and  CG_2
REMARK    2  A    between atoms: CG_2  and  CD2_3
REMARK    3  A    between atoms: CG_2  and  CB_4
REMARK    4  A    between atoms: CB_4  and  CA_5
REMARK    5  A    between atoms: C_9  and  C_10
REMARK    6  A    between atoms: N_21  and  C_22
REMARK    7  A    between atoms: C_22  and  C_23
REMARK    8  A    between atoms: C_22  and  C_29
REMARK    9  A    between atoms: N_25  and  C_26
REMARK   10  A    between atoms: C_26  and  C_27
REMARK   11  A    between atoms: C_26  and  C_28
REMARK   12  A    between atoms: C_34  and  C_35
REMARK                            x       y       z     vdW  Elec       q    Type
REMARK                         _______ _______ _______ _____ _____    ______ ____
ROOT
ATOM      1  CA  LEU A   2      -7.039   6.198 131.123  0.00  0.00    +0.000 C 
ATOM      2  C   LEU A   2      -8.148   6.140 132.212  0.00  0.00    +0.000 C 
ATOM      3  O   LEU A   2      -7.986   6.091 133.408  0.00  0.00    +0.000 OA
ATOM      4  N   UNK A   1      -9.409   6.173 131.688  0.00  0.00    +0.000 N 
ATOM      5  C   UNK A   1      -9.658   6.258 130.267  0.00  0.00    +0.000 C 
ATOM      6  C   UNK A   1      -8.741   5.272 129.578  0.00  0.00    +0.000 C 
ATOM      7  O   UNK A   1      -9.141   4.697 128.576  0.00  0.00    +0.000 OA
ATOM      8  N   LEU A   2      -7.461   5.146 130.107  0.00  0.00    +0.000 N 
ATOM      9  H   UNK A   1     -10.143   6.053 132.373  0.00  0.00    +0.000 HD
ENDROOT
BRANCH   5  10
ATOM     10  C   UNK A   1     -11.063   5.790 129.829  0.00  0.00    +0.000 C 
ATOM     11  C   UNK A   1     -11.528   6.533 128.583  0.00  0.00    +0.000 C 
ATOM     12  C   UNK A   1     -12.215   7.706 129.211  0.00  0.00    +0.000 A 
ATOM     13  C   UNK A   1     -12.403   8.955 128.663  0.00  0.00    +0.000 A 
ATOM     14  C   UNK A   1     -12.932   9.955 129.479  0.00  0.00    +0.000 A 
ATOM     15  C   UNK A   1     -13.248   9.705 130.827  0.00  0.00    +0.000 A 
ATOM     16  C   UNK A   1     -13.039   8.446 131.382  0.00  0.00    +0.000 A 
ATOM     17  C   UNK A   1     -12.538   7.457 130.554  0.00  0.00    +0.000 A 
ATOM     18  C   UNK A   1     -12.124   6.080 130.941  0.00  0.00    +0.000 C 
ENDBRANCH   5  10
BRANCH   1  19
ATOM     19  CB  LEU A   2      -5.726   6.014 131.872  0.00  0.00    +0.000 C 
BRANCH  19  21
ATOM     20  CD1 LEU A   2      -4.675   7.807 130.262  0.00  0.00    +0.000 C 
ATOM     21  CG  LEU A   2      -4.433   6.686 131.279  0.00  0.00    +0.000 C 
ATOM     22  CD2 LEU A   2      -3.392   7.282 132.212  0.00  0.00    +0.000 C 
ENDBRANCH  19  21
ENDBRANCH   1  19
BRANCH   8  23
ATOM     23  C   UNK A   0      -6.599   4.088 129.514  0.00  0.00    +0.000 C 
BRANCH  23  24
ATOM     24  C   UNK A   0      -6.114   2.947 130.444  0.00  0.00    +0.000 A 
ATOM     25  C   UNK A   0      -4.788   2.979 130.903  0.00  0.00    +0.000 A 
ATOM     26  C   UNK A   0      -4.257   1.975 131.684  0.00  0.00    +0.000 A 
ATOM     27  C   UNK A   0      -5.083   0.971 132.146  0.00  0.00    +0.000 A 
ATOM     28  C   UNK A   0      -6.409   0.894 131.721  0.00  0.00    +0.000 A 
ATOM     29  C   UNK A   0      -6.943   1.829 130.815  0.00  0.00    +0.000 A 
BRANCH  29  30
ATOM     30  C   UNK A   0      -8.426   1.612 130.473  0.00  0.00    +0.000 C 
ATOM     31  F   UNK A   0      -9.231   2.554 131.048  0.00  0.00    +0.000 F 
ATOM     32  F   UNK A   0      -8.693   1.696 129.133  0.00  0.00    +0.000 F 
ATOM     33  F   UNK A   0      -8.998   0.435 130.851  0.00  0.00    +0.000 F 
ENDBRANCH  29  30
ENDBRANCH  23  24
BRANCH  23  34
ATOM     34  C   UNK A   0      -5.601   4.562 128.350  0.00  0.00    +0.000 C 
ATOM     35  O   UNK A   0      -5.941   5.023 127.267  0.00  0.00    +0.000 OA
ATOM     36  N   UNK A   0      -4.251   4.473 128.572  0.00  0.00    +0.000 N 
ATOM     37  H   UNK A   0      -3.913   4.525 129.503  0.00  0.00    +0.000 HD
BRANCH  36  38
ATOM     38  C   UNK A   0      -3.211   4.663 127.586  0.00  0.00    +0.000 C 
ATOM     39  C   UNK A   0      -2.373   5.819 128.086  0.00  0.00    +0.000 C 
ATOM     40  C   UNK A   0      -2.337   3.408 127.385  0.00  0.00    +0.000 C 
ENDBRANCH  36  38
ENDBRANCH  23  34
ENDBRANCH   8  23
TORSDOF 8
ENDMDL
MODEL 5
REMARK VINA RESULT:      -8.5      3.609      5.409
REMARK  Name = CHEMBL2035012
REMARK  12 active torsions:
REMARK  status: ('A' for Active; 'I' for Inactive)
REMARK    1  A    between atoms: CD1_1  and  CG_2
REMARK    2  A    between atoms: CG_2  and  CD2_3
REMARK    3  A    between atoms: CG_2  and  CB_4
REMARK    4  A    between atoms: CB_4  and  CA_5
REMARK    5  A    between atoms: C_9  and  C_10
REMARK    6  A    between atoms: N_21  and  C_22
REMARK    7  A    between atoms: C_22  and  C_23
REMARK    8  A    between atoms: C_22  and  C_29
REMARK    9  A    between atoms: N_25  and  C_26
REMARK   10  A    between atoms: C_26  and  C_27
REMARK   11  A    between atoms: C_26  and  C_28
REMARK   12  A    between atoms: C_34  and  C_35
REMARK                            x       y       z     vdW  Elec       q    Type
REMARK                         _______ _______ _______ _____ _____    ______ ____
ROOT
ATOM      1  CA  LEU A   2      -7.686   2.554 128.564  0.00  0.00    +0.000 C 
ATOM      2  C   LEU A   2      -8.236   3.905 128.025  0.00  0.00    +0.000 C 
ATOM      3  O   LEU A   2      -8.387   4.215 126.867  0.00  0.00    +0.000 OA
ATOM      4  N   UNK A   1      -8.583   4.773 129.021  0.00  0.00    +0.000 N 
ATOM      5  C   UNK A   1      -8.448   4.443 130.422  0.00  0.00    +0.000 C 
ATOM      6  C   UNK A   1      -7.089   3.809 130.617  0.00  0.00    +0.000 C 
ATOM      7  O   UNK A   1      -6.486   4.016 131.660  0.00  0.00    +0.000 OA
ATOM      8  N   LEU A   2      -6.651   2.963 129.603  0.00  0.00    +0.000 N 
ATOM      9  H   UNK A   1      -8.866   5.687 128.692  0.00  0.00    +0.000 HD
ENDROOT
BRANCH   5  10
ATOM     10  C   UNK A   1      -8.403   5.661 131.370  0.00  0.00    +0.000 C 
ATOM     11  C   UNK A   1      -9.611   5.682 132.297  0.00  0.00    +0.000 C 
ATOM     12  C   UNK A   1     -10.570   6.480 131.469  0.00  0.00    +0.000 A 
ATOM     13  C   UNK A   1     -11.946   6.433 131.509  0.00  0.00    +0.000 A 
ATOM     14  C   UNK A   1     -12.653   7.147 130.541  0.00  0.00    +0.000 A 
ATOM     15  C   UNK A   1     -11.985   7.877 129.541  0.00  0.00    +0.000 A 
ATOM     16  C   UNK A   1     -10.595   7.905 129.493  0.00  0.00    +0.000 A 
ATOM     17  C   UNK A   1      -9.907   7.215 130.474  0.00  0.00    +0.000 A 
ATOM     18  C   UNK A   1      -8.436   7.001 130.565  0.00  0.00    +0.000 C 
ENDBRANCH   5  10
BRANCH   1  19
ATOM     19  CB  LEU A   2      -7.230   1.783 127.334  0.00  0.00    +0.000 C 
BRANCH  19  21
ATOM     20  CD1 LEU A   2      -8.506  -0.287 126.337  0.00  0.00    +0.000 C 
ATOM     21  CG  LEU A   2      -7.443   0.224 127.314  0.00  0.00    +0.000 C 
ATOM     22  CD2 LEU A   2      -6.264  -0.701 127.060  0.00  0.00    +0.000 C 
ENDBRANCH  19  21
ENDBRANCH   1  19
BRANCH   8  23
ATOM     23  C   UNK A   0      -5.264   2.439 129.729  0.00  0.00    +0.000 C 
BRANCH  23  24
ATOM     24  C   UNK A   0      -4.199   2.970 128.738  0.00  0.00    +0.000 A 
ATOM     25  C   UNK A   0      -4.085   2.349 127.484  0.00  0.00    +0.000 A 
ATOM     26  C   UNK A   0      -3.125   2.717 126.566  0.00  0.00    +0.000 A 
ATOM     27  C   UNK A   0      -2.334   3.819 126.821  0.00  0.00    +0.000 A 
ATOM     28  C   UNK A   0      -2.409   4.473 128.051  0.00  0.00    +0.000 A 
ATOM     29  C   UNK A   0      -3.285   4.035 129.062  0.00  0.00    +0.000 A 
BRANCH  29  30
ATOM     30  C   UNK A   0      -3.257   4.885 130.343  0.00  0.00    +0.000 C 
ATOM     31  F   UNK A   0      -3.215   4.115 131.471  0.00  0.00    +0.000 F 
ATOM     32  F   UNK A   0      -2.159   5.697 130.434  0.00  0.00    +0.000 F 
ATOM     33  F   UNK A   0      -4.307   5.721 130.571  0.00  0.00    +0.000 F 
ENDBRANCH  29  30
ENDBRANCH  23  24
BRANCH  23  34
ATOM     34  C   UNK A   0      -5.129   0.911 130.205  0.00  0.00    +0.000 C 
ATOM     35  O   UNK A   0      -4.110   0.234 130.133  0.00  0.00    +0.000 OA
ATOM     36  N   UNK A   0      -6.224   0.301 130.759  0.00  0.00    +0.000 N 
ATOM     37  H   UNK A   0      -6.899   0.858 131.224  0.00  0.00    +0.000 HD
BRANCH  36  38
ATOM     38  C   UNK A   0      -6.352  -1.106 131.062  0.00  0.00    +0.000 C 
ATOM     39  C   UNK A   0      -6.335  -1.209 132.571  0.00  0.00    +0.000 C 
ATOM     40  C   UNK A   0      -7.644  -1.728 130.491  0.00  0.00    +0.000 C 
ENDBRANCH  36  38
ENDBRANCH  23  34
ENDBRANCH   8  23
TORSDOF 8
ENDMDL
MODEL 6
REMARK VINA RESULT:      -8.5      2.488      7.957
REMARK  Name = CHEMBL2035012
REMARK  12 active torsions:
REMARK  status: ('A' for Active; 'I' for Inactive)
REMARK    1  A    between atoms: CD1_1  and  CG_2
REMARK    2  A    between atoms: CG_2  and  CD2_3
REMARK    3  A    between atoms: CG_2  and  CB_4
REMARK    4  A    between atoms: CB_4  and  CA_5
REMARK    5  A    between atoms: C_9  and  C_10
REMARK    6  A    between atoms: N_21  and  C_22
REMARK    7  A    between atoms: C_22  and  C_23
REMARK    8  A    between atoms: C_22  and  C_29
REMARK    9  A    between atoms: N_25  and  C_26
REMARK   10  A    between atoms: C_26  and  C_27
REMARK   11  A    between atoms: C_26  and  C_28
REMARK   12  A    between atoms: C_34  and  C_35
REMARK                            x       y       z     vdW  Elec       q    Type
REMARK                         _______ _______ _______ _____ _____    ______ ____
ROOT
ATOM      1  CA  LEU A   2      -7.473   1.236 128.862  0.00  0.00    +0.000 C 
ATOM      2  C   LEU A   2      -6.530   0.011 128.689  0.00  0.00    +0.000 C 
ATOM      3  O   LEU A   2      -5.950  -0.584 129.564  0.00  0.00    +0.000 OA
ATOM      4  N   UNK A   1      -6.411  -0.387 127.388  0.00  0.00    +0.000 N 
ATOM      5  C   UNK A   1      -7.103   0.273 126.305  0.00  0.00    +0.000 C 
ATOM      6  C   UNK A   1      -6.943   1.765 126.499  0.00  0.00    +0.000 C 
ATOM      7  O   UNK A   1      -6.847   2.480 125.512  0.00  0.00    +0.000 OA
ATOM      8  N   LEU A   2      -6.991   2.226 127.810  0.00  0.00    +0.000 N 
ATOM      9  H   UNK A   1      -5.738  -1.130 127.245  0.00  0.00    +0.000 HD
ENDROOT
BRANCH   5  10
ATOM     10  C   UNK A   1      -6.491   0.037 124.908  0.00  0.00    +0.000 C 
ATOM     11  C   UNK A   1      -7.561   0.073 123.824  0.00  0.00    +0.000 C 
ATOM     12  C   UNK A   1      -7.959  -1.371 123.793  0.00  0.00    +0.000 A 
ATOM     13  C   UNK A   1      -9.173  -1.894 123.407  0.00  0.00    +0.000 A 
ATOM     14  C   UNK A   1      -9.389  -3.258 123.602  0.00  0.00    +0.000 A 
ATOM     15  C   UNK A   1      -8.407  -4.075 124.191  0.00  0.00    +0.000 A 
ATOM     16  C   UNK A   1      -7.189  -3.539 124.597  0.00  0.00    +0.000 A 
ATOM     17  C   UNK A   1      -6.978  -2.190 124.374  0.00  0.00    +0.000 A 
ATOM     18  C   UNK A   1      -5.817  -1.372 124.821  0.00  0.00    +0.000 C 
ENDBRANCH   5  10
BRANCH   1  19
ATOM     19  CB  LEU A   2      -7.375   1.618 130.332  0.00  0.00    +0.000 C 
BRANCH  19  21
ATOM     20  CD1 LEU A   2      -9.067   0.118 131.671  0.00  0.00    +0.000 C 
ATOM     21  CG  LEU A   2      -8.677   1.526 131.211  0.00  0.00    +0.000 C 
ATOM     22  CD2 LEU A   2      -8.797   2.353 132.480  0.00  0.00    +0.000 C 
ENDBRANCH  19  21
ENDBRANCH   1  19
BRANCH   8  23
ATOM     23  C   UNK A   0      -6.709   3.673 128.015  0.00  0.00    +0.000 C 
BRANCH  23  24
ATOM     24  C   UNK A   0      -5.424   4.052 128.794  0.00  0.00    +0.000 A 
ATOM     25  C   UNK A   0      -5.548   4.433 130.140  0.00  0.00    +0.000 A 
ATOM     26  C   UNK A   0      -4.466   4.844 130.889  0.00  0.00    +0.000 A 
ATOM     27  C   UNK A   0      -3.199   4.754 130.351  0.00  0.00    +0.000 A 
ATOM     28  C   UNK A   0      -3.021   4.381 129.019  0.00  0.00    +0.000 A 
ATOM     29  C   UNK A   0      -4.118   4.086 128.188  0.00  0.00    +0.000 A 
BRANCH  29  30
ATOM     30  C   UNK A   0      -3.741   3.668 126.757  0.00  0.00    +0.000 C 
ATOM     31  F   UNK A   0      -2.434   3.941 126.468  0.00  0.00    +0.000 F 
ATOM     32  F   UNK A   0      -3.877   2.325 126.529  0.00  0.00    +0.000 F 
ATOM     33  F   UNK A   0      -4.419   4.248 125.729  0.00  0.00    +0.000 F 
ENDBRANCH  29  30
ENDBRANCH  23  24
BRANCH  23  34
ATOM     34  C   UNK A   0      -7.989   4.622 128.202  0.00  0.00    +0.000 C 
ATOM     35  O   UNK A   0      -8.554   5.236 127.304  0.00  0.00    +0.000 OA
ATOM     36  N   UNK A   0      -8.525   4.756 129.457  0.00  0.00    +0.000 N 
ATOM     37  H   UNK A   0      -8.417   4.014 130.106  0.00  0.00    +0.000 HD
BRANCH  36  38
ATOM     38  C   UNK A   0      -9.541   5.705 129.852  0.00  0.00    +0.000 C 
ATOM     39  C   UNK A   0     -10.667   4.885 130.441  0.00  0.00    +0.000 C 
ATOM     40  C   UNK A   0      -9.030   6.739 130.876  0.00  0.00    +0.000 C 
ENDBRANCH  36  38
ENDBRANCH  23  34
ENDBRANCH   8  23
TORSDOF 8
ENDMDL
MODEL 7
REMARK VINA RESULT:      -8.5      2.673      4.269
REMARK  Name = CHEMBL2035012
REMARK  12 active torsions:
REMARK  status: ('A' for Active; 'I' for Inactive)
REMARK    1  A    between atoms: CD1_1  and  CG_2
REMARK    2  A    between atoms: CG_2  and  CD2_3
REMARK    3  A    between atoms: CG_2  and  CB_4
REMARK    4  A    between atoms: CB_4  and  CA_5
REMARK    5  A    between atoms: C_9  and  C_10
REMARK    6  A    between atoms: N_21  and  C_22
REMARK    7  A    between atoms: C_22  and  C_23
REMARK    8  A    between atoms: C_22  and  C_29
REMARK    9  A    between atoms: N_25  and  C_26
REMARK   10  A    between atoms: C_26  and  C_27
REMARK   11  A    between atoms: C_26  and  C_28
REMARK   12  A    between atoms: C_34  and  C_35
REMARK                            x       y       z     vdW  Elec       q    Type
REMARK                         _______ _______ _______ _____ _____    ______ ____
ROOT
ATOM      1  CA  LEU A   2      -5.444   2.622 128.228  0.00  0.00    +0.000 C 
ATOM      2  C   LEU A   2      -5.506   2.277 129.743  0.00  0.00    +0.000 C 
ATOM      3  O   LEU A   2      -4.595   1.888 130.434  0.00  0.00    +0.000 OA
ATOM      4  N   UNK A   1      -6.744   2.476 130.283  0.00  0.00    +0.000 N 
ATOM      5  C   UNK A   1      -7.862   2.964 129.508  0.00  0.00    +0.000 C 
ATOM      6  C   UNK A   1      -7.887   2.198 128.203  0.00  0.00    +0.000 C 
ATOM      7  O   UNK A   1      -8.967   1.936 127.695  0.00  0.00    +0.000 OA
ATOM      8  N   LEU A   2      -6.651   1.907 127.635  0.00  0.00    +0.000 N 
ATOM      9  H   UNK A   1      -6.826   2.180 131.247  0.00  0.00    +0.000 HD
ENDROOT
BRANCH   5  10
ATOM     10  C   UNK A   1      -9.249   2.662 130.114  0.00  0.00    +0.000 C 
ATOM     11  C   UNK A   1     -10.018   3.946 130.398  0.00  0.00    +0.000 C 
ATOM     12  C   UNK A   1      -9.569   4.223 131.799  0.00  0.00    +0.000 A 
ATOM     13  C   UNK A   1      -9.503   5.447 132.427  0.00  0.00    +0.000 A 
ATOM     14  C   UNK A   1      -8.906   5.505 133.686  0.00  0.00    +0.000 A 
ATOM     15  C   UNK A   1      -8.369   4.354 134.292  0.00  0.00    +0.000 A 
ATOM     16  C   UNK A   1      -8.421   3.123 133.645  0.00  0.00    +0.000 A 
ATOM     17  C   UNK A   1      -9.039   3.076 132.409  0.00  0.00    +0.000 A 
ATOM     18  C   UNK A   1      -9.114   1.913 131.481  0.00  0.00    +0.000 C 
ENDBRANCH   5  10
BRANCH   1  19
ATOM     19  CB  LEU A   2      -4.050   2.213 127.775  0.00  0.00    +0.000 C 
BRANCH  19  21
ATOM     20  CD1 LEU A   2      -1.833   3.106 126.682  0.00  0.00    +0.000 C 
ATOM     21  CG  LEU A   2      -2.930   3.317 127.731  0.00  0.00    +0.000 C 
ATOM     22  CD2 LEU A   2      -3.311   4.777 127.547  0.00  0.00    +0.000 C 
ENDBRANCH  19  21
ENDBRANCH   1  19
BRANCH   8  23
ATOM     23  C   UNK A   0      -6.665   1.046 126.421  0.00  0.00    +0.000 C 
BRANCH  23  24
ATOM     24  C   UNK A   0      -7.506   1.522 125.210  0.00  0.00    +0.000 A 
ATOM     25  C   UNK A   0      -8.590   0.732 124.798  0.00  0.00    +0.000 A 
ATOM     26  C   UNK A   0      -9.353   1.050 123.695  0.00  0.00    +0.000 A 
ATOM     27  C   UNK A   0      -9.138   2.249 123.047  0.00  0.00    +0.000 A 
ATOM     28  C   UNK A   0      -8.074   3.071 123.418  0.00  0.00    +0.000 A 
ATOM     29  C   UNK A   0      -7.194   2.709 124.455  0.00  0.00    +0.000 A 
BRANCH  29  30
ATOM     30  C   UNK A   0      -6.093   3.741 124.749  0.00  0.00    +0.000 C 
ATOM     31  F   UNK A   0      -5.938   4.634 123.726  0.00  0.00    +0.000 F 
ATOM     32  F   UNK A   0      -6.352   4.513 125.850  0.00  0.00    +0.000 F 
ATOM     33  F   UNK A   0      -4.830   3.278 124.958  0.00  0.00    +0.000 F 
ENDBRANCH  29  30
ENDBRANCH  23  24
BRANCH  23  34
ATOM     34  C   UNK A   0      -6.577  -0.536 126.678  0.00  0.00    +0.000 C 
ATOM     35  O   UNK A   0      -5.638  -1.255 126.357  0.00  0.00    +0.000 OA
ATOM     36  N   UNK A   0      -7.616  -1.151 127.327  0.00  0.00    +0.000 N 
ATOM     37  H   UNK A   0      -8.164  -0.623 127.962  0.00  0.00    +0.000 HD
BRANCH  36  38
ATOM     38  C   UNK A   0      -7.804  -2.576 127.473  0.00  0.00    +0.000 C 
ATOM     39  C   UNK A   0      -8.070  -2.811 128.943  0.00  0.00    +0.000 C 
ATOM     40  C   UNK A   0      -8.969  -3.118 126.619  0.00  0.00    +0.000 C 
ENDBRANCH  36  38
ENDBRANCH  23  34
ENDBRANCH   8  23
TORSDOF 8
ENDMDL
MODEL 8
REMARK VINA RESULT:      -8.4      4.695      8.561
REMARK  Name = CHEMBL2035012
REMARK  12 active torsions:
REMARK  status: ('A' for Active; 'I' for Inactive)
REMARK    1  A    between atoms: CD1_1  and  CG_2
REMARK    2  A    between atoms: CG_2  and  CD2_3
REMARK    3  A    between atoms: CG_2  and  CB_4
REMARK    4  A    between atoms: CB_4  and  CA_5
REMARK    5  A    between atoms: C_9  and  C_10
REMARK    6  A    between atoms: N_21  and  C_22
REMARK    7  A    between atoms: C_22  and  C_23
REMARK    8  A    between atoms: C_22  and  C_29
REMARK    9  A    between atoms: N_25  and  C_26
REMARK   10  A    between atoms: C_26  and  C_27
REMARK   11  A    between atoms: C_26  and  C_28
REMARK   12  A    between atoms: C_34  and  C_35
REMARK                            x       y       z     vdW  Elec       q    Type
REMARK                         _______ _______ _______ _____ _____    ______ ____
ROOT
ATOM      1  CA  LEU A   2      -5.254   3.178 129.187  0.00  0.00    +0.000 C 
ATOM      2  C   LEU A   2      -6.558   2.469 128.722  0.00  0.00    +0.000 C 
ATOM      3  O   LEU A   2      -7.206   2.720 127.734  0.00  0.00    +0.000 OA
ATOM      4  N   UNK A   1      -6.938   1.456 129.556  0.00  0.00    +0.000 N 
ATOM      5  C   UNK A   1      -6.186   1.098 130.737  0.00  0.00    +0.000 C 
ATOM      6  C   UNK A   1      -5.828   2.376 131.461  0.00  0.00    +0.000 C 
ATOM      7  O   UNK A   1      -5.789   2.370 132.682  0.00  0.00    +0.000 OA
ATOM      8  N   LEU A   2      -5.494   3.465 130.662  0.00  0.00    +0.000 N 
ATOM      9  H   UNK A   1      -7.827   1.037 129.317  0.00  0.00    +0.000 HD
ENDROOT
BRANCH   5  10
ATOM     10  C   UNK A   1      -6.986   0.310 131.797  0.00  0.00    +0.000 C 
ATOM     11  C   UNK A   1      -6.159  -0.830 132.376  0.00  0.00    +0.000 C 
ATOM     12  C   UNK A   1      -6.515  -1.930 131.425  0.00  0.00    +0.000 A 
ATOM     13  C   UNK A   1      -5.756  -3.033 131.102  0.00  0.00    +0.000 A 
ATOM     14  C   UNK A   1      -6.207  -3.859 130.072  0.00  0.00    +0.000 A 
ATOM     15  C   UNK A   1      -7.390  -3.567 129.369  0.00  0.00    +0.000 A 
ATOM     16  C   UNK A   1      -8.144  -2.441 129.685  0.00  0.00    +0.000 A 
ATOM     17  C   UNK A   1      -7.699  -1.646 130.726  0.00  0.00    +0.000 A 
ATOM     18  C   UNK A   1      -8.262  -0.340 131.169  0.00  0.00    +0.000 C 
ENDBRANCH   5  10
BRANCH   1  19
ATOM     19  CB  LEU A   2      -5.066   4.347 128.230  0.00  0.00    +0.000 C 
BRANCH  19  21
ATOM     20  CD1 LEU A   2      -2.473   4.743 128.056  0.00  0.00    +0.000 C 
ATOM     21  CG  LEU A   2      -3.773   4.371 127.334  0.00  0.00    +0.000 C 
ATOM     22  CD2 LEU A   2      -3.384   3.143 126.527  0.00  0.00    +0.000 C 
ENDBRANCH  19  21
ENDBRANCH   1  19
BRANCH   8  23
ATOM     23  C   UNK A   0      -5.265   4.757 131.364  0.00  0.00    +0.000 C 
BRANCH  23  24
ATOM     24  C   UNK A   0      -3.800   5.221 131.561  0.00  0.00    +0.000 A 
ATOM     25  C   UNK A   0      -2.905   4.353 132.206  0.00  0.00    +0.000 A 
ATOM     26  C   UNK A   0      -1.601   4.708 132.475  0.00  0.00    +0.000 A 
ATOM     27  C   UNK A   0      -1.110   5.899 131.981  0.00  0.00    +0.000 A 
ATOM     28  C   UNK A   0      -1.957   6.797 131.332  0.00  0.00    +0.000 A 
ATOM     29  C   UNK A   0      -3.326   6.522 131.161  0.00  0.00    +0.000 A 
BRANCH  29  30
ATOM     30  C   UNK A   0      -4.108   7.607 130.403  0.00  0.00    +0.000 C 
ATOM     31  F   UNK A   0      -3.593   8.855 130.615  0.00  0.00    +0.000 F 
ATOM     32  F   UNK A   0      -4.083   7.446 129.044  0.00  0.00    +0.000 F 
ATOM     33  F   UNK A   0      -5.429   7.758 130.695  0.00  0.00    +0.000 F 
ENDBRANCH  29  30
ENDBRANCH  23  24
BRANCH  23  34
ATOM     34  C   UNK A   0      -6.314   5.126 132.522  0.00  0.00    +0.000 C 
ATOM     35  O   UNK A   0      -6.022   5.544 133.637  0.00  0.00    +0.000 OA
ATOM     36  N   UNK A   0      -7.652   4.990 132.257  0.00  0.00    +0.000 N 
ATOM     37  H   UNK A   0      -7.967   5.077 131.322  0.00  0.00    +0.000 HD
BRANCH  36  38
ATOM     38  C   UNK A   0      -8.724   5.084 133.222  0.00  0.00    +0.000 C 
ATOM     39  C   UNK A   0      -9.854   5.803 132.518  0.00  0.00    +0.000 C 
ATOM     40  C   UNK A   0      -9.194   3.706 133.733  0.00  0.00    +0.000 C 
ENDBRANCH  36  38
ENDBRANCH  23  34
ENDBRANCH   8  23
TORSDOF 8
ENDMDL
MODEL 9
REMARK VINA RESULT:      -8.4      3.825      8.457
REMARK  Name = CHEMBL2035012
REMARK  12 active torsions:
REMARK  status: ('A' for Active; 'I' for Inactive)
REMARK    1  A    between atoms: CD1_1  and  CG_2
REMARK    2  A    between atoms: CG_2  and  CD2_3
REMARK    3  A    between atoms: CG_2  and  CB_4
REMARK    4  A    between atoms: CB_4  and  CA_5
REMARK    5  A    between atoms: C_9  and  C_10
REMARK    6  A    between atoms: N_21  and  C_22
REMARK    7  A    between atoms: C_22  and  C_23
REMARK    8  A    between atoms: C_22  and  C_29
REMARK    9  A    between atoms: N_25  and  C_26
REMARK   10  A    between atoms: C_26  and  C_27
REMARK   11  A    between atoms: C_26  and  C_28
REMARK   12  A    between atoms: C_34  and  C_35
REMARK                            x       y       z     vdW  Elec       q    Type
REMARK                         _______ _______ _______ _____ _____    ______ ____
ROOT
ATOM      1  CA  LEU A   2      -5.445   2.828 128.092  0.00  0.00    +0.000 C 
ATOM      2  C   LEU A   2      -5.313   2.785 126.543  0.00  0.00    +0.000 C 
ATOM      3  O   LEU A   2      -4.492   3.361 125.871  0.00  0.00    +0.000 OA
ATOM      4  N   UNK A   1      -6.243   1.977 125.953  0.00  0.00    +0.000 N 
ATOM      5  C   UNK A   1      -7.232   1.245 126.712  0.00  0.00    +0.000 C 
ATOM      6  C   UNK A   1      -7.814   2.189 127.740  0.00  0.00    +0.000 C 
ATOM      7  O   UNK A   1      -8.994   2.079 128.039  0.00  0.00    +0.000 OA
ATOM      8  N   LEU A   2      -6.927   3.082 128.331  0.00  0.00    +0.000 N 
ATOM      9  H   UNK A   1      -6.226   2.001 124.941  0.00  0.00    +0.000 HD
ENDROOT
BRANCH   5  10
ATOM     10  C   UNK A   1      -8.470   0.805 125.903  0.00  0.00    +0.000 C 
ATOM     11  C   UNK A   1      -8.810  -0.656 126.166  0.00  0.00    +0.000 C 
ATOM     12  C   UNK A   1      -7.993  -1.318 125.100  0.00  0.00    +0.000 A 
ATOM     13  C   UNK A   1      -7.482  -2.596 125.113  0.00  0.00    +0.000 A 
ATOM     14  C   UNK A   1      -6.614  -2.965 124.085  0.00  0.00    +0.000 A 
ATOM     15  C   UNK A   1      -6.254  -2.055 123.074  0.00  0.00    +0.000 A 
ATOM     16  C   UNK A   1      -6.758  -0.758 123.075  0.00  0.00    +0.000 A 
ATOM     17  C   UNK A   1      -7.637  -0.415 124.086  0.00  0.00    +0.000 A 
ATOM     18  C   UNK A   1      -8.211   0.931 124.365  0.00  0.00    +0.000 C 
ENDBRANCH   5  10
BRANCH   1  19
ATOM     19  CB  LEU A   2      -4.435   3.867 128.556  0.00  0.00    +0.000 C 
BRANCH  19  21
ATOM     20  CD1 LEU A   2      -3.031   4.768 130.588  0.00  0.00    +0.000 C 
ATOM     21  CG  LEU A   2      -3.579   3.549 129.838  0.00  0.00    +0.000 C 
ATOM     22  CD2 LEU A   2      -4.164   2.692 130.948  0.00  0.00    +0.000 C 
ENDBRANCH  19  21
ENDBRANCH   1  19
BRANCH   8  23
ATOM     23  C   UNK A   0      -7.517   4.095 129.248  0.00  0.00    +0.000 C 
BRANCH  23  24
ATOM     24  C   UNK A   0      -7.591   3.746 130.755  0.00  0.00    +0.000 A 
ATOM     25  C   UNK A   0      -8.080   2.484 131.125  0.00  0.00    +0.000 A 
ATOM     26  C   UNK A   0      -8.237   2.114 132.444  0.00  0.00    +0.000 A 
ATOM     27  C   UNK A   0      -7.776   2.951 133.439  0.00  0.00    +0.000 A 
ATOM     28  C   UNK A   0      -7.280   4.216 133.125  0.00  0.00    +0.000 A 
ATOM     29  C   UNK A   0      -7.233   4.676 131.796  0.00  0.00    +0.000 A 
BRANCH  29  30
ATOM     30  C   UNK A   0      -6.635   6.082 131.627  0.00  0.00    +0.000 C 
ATOM     31  F   UNK A   0      -7.600   7.047 131.556  0.00  0.00    +0.000 F 
ATOM     32  F   UNK A   0      -5.837   6.463 132.672  0.00  0.00    +0.000 F 
ATOM     33  F   UNK A   0      -5.872   6.318 130.525  0.00  0.00    +0.000 F 
ENDBRANCH  29  30
ENDBRANCH  23  24
BRANCH  23  34
ATOM     34  C   UNK A   0      -8.705   4.988 128.641  0.00  0.00    +0.000 C 
ATOM     35  O   UNK A   0      -8.829   5.296 127.461  0.00  0.00    +0.000 OA
ATOM     36  N   UNK A   0      -9.684   5.436 129.490  0.00  0.00    +0.000 N 
ATOM     37  H   UNK A   0      -9.888   4.912 130.306  0.00  0.00    +0.000 HD
BRANCH  36  38
ATOM     38  C   UNK A   0     -10.711   6.401 129.170  0.00  0.00    +0.000 C 
ATOM     39  C   UNK A   0     -11.873   6.089 130.088  0.00  0.00    +0.000 C 
ATOM     40  C   UNK A   0     -10.246   7.859 129.362  0.00  0.00    +0.000 C 
ENDBRANCH  36  38
ENDBRANCH  23  34
ENDBRANCH   8  23
TORSDOF 8
ENDMDL
