MODEL 1
REMARK VINA RESULT:      -8.3      0.000      0.000
REMARK  Name = CHEMBL24678
REMARK  13 active torsions:
REMARK  status: ('A' for Active; 'I' for Inactive)
REMARK    1  A    between atoms: C_1  and  C_2
REMARK    2  A    between atoms: C_2  and  C_4
REMARK    3  A    between atoms: C_4  and  C_5
REMARK    4  A    between atoms: C_5  and  C_6
REMARK    5  A    between atoms: C_6  and  C_7
REMARK    6  A    between atoms: N_9  and  C_10
REMARK    7  A    between atoms: C_12  and  C_13
REMARK    8  A    between atoms: N_25  and  C_26
REMARK    9  A    between atoms: C_26  and  C_27
REMARK   10  A    between atoms: N_29  and  C_30
REMARK   11  A    between atoms: C_30  and  C_31
REMARK   12  A    between atoms: C_31  and  C_32
REMARK   13  A    between atoms: C_32  and  C_33
REMARK                            x       y       z     vdW  Elec       q    Type
REMARK                         _______ _______ _______ _____ _____    ______ ____
ROOT
ATOM      1  C   UNL     1      -9.477   5.969 131.288  0.00  0.00    +0.000 C 
ATOM      2  N   UNL     1      -8.152   6.592 131.472  0.00  0.00    +0.000 NA
ATOM      3  C   UNL     1      -7.171   5.860 131.910  0.00  0.00    +0.000 C 
ATOM      4  C   UNL     1      -7.293   4.443 132.399  0.00  0.00    +0.000 A 
ATOM      5  C   UNL     1      -6.481   4.052 133.485  0.00  0.00    +0.000 A 
ATOM      6  C   UNL     1      -6.486   2.736 133.953  0.00  0.00    +0.000 A 
ATOM      7  C   UNL     1      -7.358   1.812 133.400  0.00  0.00    +0.000 A 
ATOM      8  C   UNL     1      -8.215   2.204 132.374  0.00  0.00    +0.000 A 
ATOM      9  C   UNL     1      -8.123   3.482 131.794  0.00  0.00    +0.000 A 
ATOM     10  N   UNL     1      -8.734   3.691 130.525  0.00  0.00    +0.000 N 
ATOM     11  C   UNL     1      -9.330   4.891 130.159  0.00  0.00    +0.000 C 
ATOM     12  O   UNL     1      -9.728   5.064 129.000  0.00  0.00    +0.000 OA
ENDROOT
BRANCH   3  13
ATOM     13  C   UNL     1      -5.792   6.467 131.928  0.00  0.00    +0.000 A 
ATOM     14  C   UNL     1      -5.291   7.155 130.818  0.00  0.00    +0.000 A 
ATOM     15  C   UNL     1      -3.973   7.629 130.826  0.00  0.00    +0.000 A 
ATOM     16  C   UNL     1      -3.185   7.498 131.971  0.00  0.00    +0.000 A 
ATOM     17  C   UNL     1      -3.718   6.909 133.115  0.00  0.00    +0.000 A 
ATOM     18  C   UNL     1      -5.000   6.351 133.080  0.00  0.00    +0.000 A 
ENDBRANCH   3  13
BRANCH   1  21
ATOM     19  C   UNL     1     -11.731   6.947 131.226  0.00  0.00    +0.000 C 
ATOM     20  O   UNL     1     -12.160   6.087 131.992  0.00  0.00    +0.000 OA
ATOM     21  N   UNL     1     -10.405   7.000 130.841  0.00  0.00    +0.000 N 
ATOM     22  H   UNL     1     -10.002   7.845 130.471  0.00  0.00    +0.000 HD
BRANCH  19  23
ATOM     23  C   UNL     1     -12.640   8.025 130.643  0.00  0.00    +0.000 C 
BRANCH  23  24
ATOM     24  C   UNL     1     -13.000   7.674 129.192  0.00  0.00    +0.000 C 
BRANCH  24  25
ATOM     25  C   UNL     1     -12.472   8.672 128.164  0.00  0.00    +0.000 C 
BRANCH  25  27
ATOM     26  C   UNL     1     -10.999   7.554 126.362  0.00  0.00    +0.000 C 
ATOM     27  C   UNL     1     -11.082   8.279 127.679  0.00  0.00    +0.000 C 
ATOM     28  O   UNL     1     -10.058   8.527 128.315  0.00  0.00    +0.000 OA
ENDBRANCH  25  27
ENDBRANCH  24  25
ENDBRANCH  23  24
ENDBRANCH  19  23
ENDBRANCH   1  21
BRANCH  10  29
ATOM     29  C   UNL     1      -8.670   2.659 129.471  0.00  0.00    +0.000 C 
BRANCH  29  30
ATOM     30  C   UNL     1      -7.329   2.427 128.763  0.00  0.00    +0.000 C 
ATOM     31  O   UNL     1      -6.965   1.326 128.328  0.00  0.00    +0.000 OA
ATOM     32  N   UNL     1      -6.491   3.504 128.628  0.00  0.00    +0.000 N 
ATOM     33  H   UNL     1      -6.525   4.258 129.308  0.00  0.00    +0.000 HD
BRANCH  32  34
ATOM     34  C   UNL     1      -5.327   3.311 127.791  0.00  0.00    +0.000 C 
BRANCH  34  35
ATOM     35  C   UNL     1      -4.074   3.137 128.599  0.00  0.00    +0.000 C 
BRANCH  35  36
ATOM     36  C   UNL     1      -4.155   3.926 129.904  0.00  0.00    +0.000 C 
BRANCH  36  37
ATOM     37  C   UNL     1      -3.845   3.024 131.069  0.00  0.00    +0.000 A 
ATOM     38  C   UNL     1      -3.060   3.513 132.125  0.00  0.00    +0.000 A 
ATOM     39  C   UNL     1      -2.774   2.720 133.227  0.00  0.00    +0.000 A 
ATOM     40  C   UNL     1      -3.149   1.381 133.222  0.00  0.00    +0.000 A 
ATOM     41  C   UNL     1      -3.906   0.876 132.166  0.00  0.00    +0.000 A 
ATOM     42 CL   UNL     1      -4.317  -0.794 132.141  0.00  0.00    +0.000 Cl
ATOM     43  C   UNL     1      -4.311   1.706 131.120  0.00  0.00    +0.000 A 
ENDBRANCH  36  37
ENDBRANCH  35  36
ENDBRANCH  34  35
ENDBRANCH  32  34
ENDBRANCH  29  30
ENDBRANCH  10  29
TORSDOF 12
ENDMDL
MODEL 2
REMARK VINA RESULT:      -8.2      4.008      6.821
REMARK  Name = CHEMBL24678
REMARK  13 active torsions:
REMARK  status: ('A' for Active; 'I' for Inactive)
REMARK    1  A    between atoms: C_1  and  C_2
REMARK    2  A    between atoms: C_2  and  C_4
REMARK    3  A    between atoms: C_4  and  C_5
REMARK    4  A    between atoms: C_5  and  C_6
REMARK    5  A    between atoms: C_6  and  C_7
REMARK    6  A    between atoms: N_9  and  C_10
REMARK    7  A    between atoms: C_12  and  C_13
REMARK    8  A    between atoms: N_25  and  C_26
REMARK    9  A    between atoms: C_26  and  C_27
REMARK   10  A    between atoms: N_29  and  C_30
REMARK   11  A    between atoms: C_30  and  C_31
REMARK   12  A    between atoms: C_31  and  C_32
REMARK   13  A    between atoms: C_32  and  C_33
REMARK                            x       y       z     vdW  Elec       q    Type
REMARK                         _______ _______ _______ _____ _____    ______ ____
ROOT
ATOM      1  C   UNL     1      -7.974   4.427 129.105  0.00  0.00    +0.000 C 
ATOM      2  N   UNL     1      -8.386   3.845 127.813  0.00  0.00    +0.000 NA
ATOM      3  C   UNL     1      -7.504   3.202 127.107  0.00  0.00    +0.000 C 
ATOM      4  C   UNL     1      -6.034   3.120 127.413  0.00  0.00    +0.000 A 
ATOM      5  C   UNL     1      -5.135   3.125 126.325  0.00  0.00    +0.000 A 
ATOM      6  C   UNL     1      -3.761   2.983 126.523  0.00  0.00    +0.000 A 
ATOM      7  C   UNL     1      -3.255   2.915 127.812  0.00  0.00    +0.000 A 
ATOM      8  C   UNL     1      -4.125   2.979 128.897  0.00  0.00    +0.000 A 
ATOM      9  C   UNL     1      -5.521   2.977 128.715  0.00  0.00    +0.000 A 
ATOM     10  N   UNL     1      -6.345   2.655 129.830  0.00  0.00    +0.000 N 
ATOM     11  C   UNL     1      -7.587   3.238 130.048  0.00  0.00    +0.000 C 
ATOM     12  O   UNL     1      -8.319   2.826 130.958  0.00  0.00    +0.000 OA
ENDROOT
BRANCH   3  13
ATOM     13  C   UNL     1      -7.983   2.471 125.879  0.00  0.00    +0.000 A 
ATOM     14  C   UNL     1      -8.280   3.159 124.698  0.00  0.00    +0.000 A 
ATOM     15  C   UNL     1      -8.813   2.468 123.602  0.00  0.00    +0.000 A 
ATOM     16  C   UNL     1      -8.963   1.081 123.649  0.00  0.00    +0.000 A 
ATOM     17  C   UNL     1      -8.567   0.380 124.786  0.00  0.00    +0.000 A 
ATOM     18  C   UNL     1      -8.125   1.075 125.916  0.00  0.00    +0.000 A 
ENDBRANCH   3  13
BRANCH   1  21
ATOM     19  C   UNL     1      -8.934   6.332 130.328  0.00  0.00    +0.000 C 
ATOM     20  O   UNL     1      -7.835   6.877 130.405  0.00  0.00    +0.000 OA
ATOM     21  N   UNL     1      -9.119   5.129 129.671  0.00  0.00    +0.000 N 
ATOM     22  H   UNL     1     -10.030   4.841 129.357  0.00  0.00    +0.000 HD
BRANCH  19  23
ATOM     23  C   UNL     1     -10.179   6.949 130.956  0.00  0.00    +0.000 C 
BRANCH  23  24
ATOM     24  C   UNL     1     -11.198   7.296 129.859  0.00  0.00    +0.000 C 
BRANCH  24  25
ATOM     25  C   UNL     1     -10.601   8.055 128.677  0.00  0.00    +0.000 C 
BRANCH  25  27
ATOM     26  C   UNL     1     -12.106   7.316 126.713  0.00  0.00    +0.000 C 
ATOM     27  C   UNL     1     -10.759   7.267 127.382  0.00  0.00    +0.000 C 
ATOM     28  O   UNL     1      -9.844   6.610 126.884  0.00  0.00    +0.000 OA
ENDBRANCH  25  27
ENDBRANCH  24  25
ENDBRANCH  23  24
ENDBRANCH  19  23
ENDBRANCH   1  21
BRANCH  10  29
ATOM     29  C   UNL     1      -5.963   1.585 130.773  0.00  0.00    +0.000 C 
BRANCH  29  30
ATOM     30  C   UNL     1      -6.164   0.128 130.338  0.00  0.00    +0.000 C 
ATOM     31  O   UNL     1      -5.267  -0.727 130.367  0.00  0.00    +0.000 OA
ATOM     32  N   UNL     1      -7.405  -0.229 129.877  0.00  0.00    +0.000 N 
ATOM     33  H   UNL     1      -7.997   0.468 129.433  0.00  0.00    +0.000 HD
BRANCH  32  34
ATOM     34  C   UNL     1      -7.627  -1.642 129.657  0.00  0.00    +0.000 C 
BRANCH  34  35
ATOM     35  C   UNL     1      -7.277  -2.057 128.258  0.00  0.00    +0.000 C 
BRANCH  35  36
ATOM     36  C   UNL     1      -8.370  -2.942 127.663  0.00  0.00    +0.000 C 
BRANCH  36  37
ATOM     37  C   UNL     1      -8.257  -2.959 126.162  0.00  0.00    +0.000 A 
ATOM     38  C   UNL     1      -9.408  -3.176 125.390  0.00  0.00    +0.000 A 
ATOM     39  C   UNL     1      -9.348  -3.173 124.004  0.00  0.00    +0.000 A 
ATOM     40  C   UNL     1      -8.111  -3.096 123.373  0.00  0.00    +0.000 A 
ATOM     41  C   UNL     1      -6.956  -2.908 124.131  0.00  0.00    +0.000 A 
ATOM     42 CL   UNL     1      -5.426  -2.870 123.347  0.00  0.00    +0.000 Cl
ATOM     43  C   UNL     1      -7.029  -2.774 125.518  0.00  0.00    +0.000 A 
ENDBRANCH  36  37
ENDBRANCH  35  36
ENDBRANCH  34  35
ENDBRANCH  32  34
ENDBRANCH  29  30
ENDBRANCH  10  29
TORSDOF 12
ENDMDL
MODEL 3
REMARK VINA RESULT:      -7.9      3.763      6.061
REMARK  Name = CHEMBL24678
REMARK  13 active torsions:
REMARK  status: ('A' for Active; 'I' for Inactive)
REMARK    1  A    between atoms: C_1  and  C_2
REMARK    2  A    between atoms: C_2  and  C_4
REMARK    3  A    between atoms: C_4  and  C_5
REMARK    4  A    between atoms: C_5  and  C_6
REMARK    5  A    between atoms: C_6  and  C_7
REMARK    6  A    between atoms: N_9  and  C_10
REMARK    7  A    between atoms: C_12  and  C_13
REMARK    8  A    between atoms: N_25  and  C_26
REMARK    9  A    between atoms: C_26  and  C_27
REMARK   10  A    between atoms: N_29  and  C_30
REMARK   11  A    between atoms: C_30  and  C_31
REMARK   12  A    between atoms: C_31  and  C_32
REMARK   13  A    between atoms: C_32  and  C_33
REMARK                            x       y       z     vdW  Elec       q    Type
REMARK                         _______ _______ _______ _____ _____    ______ ____
ROOT
ATOM      1  C   UNL     1      -9.122   4.548 130.093  0.00  0.00    +0.000 C 
ATOM      2  N   UNL     1      -9.007   4.018 128.721  0.00  0.00    +0.000 NA
ATOM      3  C   UNL     1      -7.913   3.406 128.375  0.00  0.00    +0.000 C 
ATOM      4  C   UNL     1      -6.665   3.315 129.210  0.00  0.00    +0.000 A 
ATOM      5  C   UNL     1      -5.424   3.366 128.542  0.00  0.00    +0.000 A 
ATOM      6  C   UNL     1      -4.222   3.219 129.238  0.00  0.00    +0.000 A 
ATOM      7  C   UNL     1      -4.237   3.100 130.619  0.00  0.00    +0.000 A 
ATOM      8  C   UNL     1      -5.453   3.118 131.297  0.00  0.00    +0.000 A 
ATOM      9  C   UNL     1      -6.677   3.120 130.603  0.00  0.00    +0.000 A 
ATOM     10  N   UNL     1      -7.855   2.751 131.313  0.00  0.00    +0.000 N 
ATOM     11  C   UNL     1      -9.098   3.322 131.068  0.00  0.00    +0.000 C 
ATOM     12  O   UNL     1     -10.111   2.872 131.619  0.00  0.00    +0.000 OA
ENDROOT
BRANCH   3  13
ATOM     13  C   UNL     1      -7.882   2.724 127.032  0.00  0.00    +0.000 A 
ATOM     14  C   UNL     1      -8.033   1.338 126.922  0.00  0.00    +0.000 A 
ATOM     15  C   UNL     1      -7.906   0.718 125.672  0.00  0.00    +0.000 A 
ATOM     16  C   UNL     1      -7.721   1.486 124.521  0.00  0.00    +0.000 A 
ATOM     17  C   UNL     1      -7.678   2.875 124.615  0.00  0.00    +0.000 A 
ATOM     18  C   UNL     1      -7.709   3.492 125.870  0.00  0.00    +0.000 A 
ENDBRANCH   3  13
BRANCH   1  21
ATOM     19  C   UNL     1     -10.556   6.271 131.101  0.00  0.00    +0.000 C 
ATOM     20  O   UNL     1      -9.618   6.708 131.766  0.00  0.00    +0.000 OA
ATOM     21  N   UNL     1     -10.407   5.224 130.212  0.00  0.00    +0.000 N 
ATOM     22  H   UNL     1     -11.073   5.068 129.474  0.00  0.00    +0.000 HD
BRANCH  19  23
ATOM     23  C   UNL     1     -11.958   6.861 131.212  0.00  0.00    +0.000 C 
BRANCH  23  24
ATOM     24  C   UNL     1     -12.189   7.871 130.079  0.00  0.00    +0.000 C 
BRANCH  24  25
ATOM     25  C   UNL     1     -12.956   7.302 128.888  0.00  0.00    +0.000 C 
BRANCH  25  27
ATOM     26  C   UNL     1     -10.882   8.209 127.645  0.00  0.00    +0.000 C 
ATOM     27  C   UNL     1     -12.111   7.341 127.620  0.00  0.00    +0.000 C 
ATOM     28  O   UNL     1     -12.399   6.704 126.606  0.00  0.00    +0.000 OA
ENDBRANCH  25  27
ENDBRANCH  24  25
ENDBRANCH  23  24
ENDBRANCH  19  23
ENDBRANCH   1  21
BRANCH  10  29
ATOM     29  C   UNL     1      -7.838   1.645 132.291  0.00  0.00    +0.000 C 
BRANCH  29  30
ATOM     30  C   UNL     1      -8.219   0.241 131.804  0.00  0.00    +0.000 C 
ATOM     31  O   UNL     1      -9.349  -0.249 131.943  0.00  0.00    +0.000 OA
ATOM     32  N   UNL     1      -7.241  -0.507 131.201  0.00  0.00    +0.000 N 
ATOM     33  H   UNL     1      -6.267  -0.358 131.450  0.00  0.00    +0.000 HD
BRANCH  32  34
ATOM     34  C   UNL     1      -7.668  -1.742 130.579  0.00  0.00    +0.000 C 
BRANCH  34  35
ATOM     35  C   UNL     1      -7.329  -1.784 129.118  0.00  0.00    +0.000 C 
BRANCH  35  36
ATOM     36  C   UNL     1      -8.252  -2.745 128.373  0.00  0.00    +0.000 C 
BRANCH  36  37
ATOM     37  C   UNL     1      -7.879  -2.789 126.915  0.00  0.00    +0.000 A 
ATOM     38  C   UNL     1      -6.573  -2.449 126.531  0.00  0.00    +0.000 A 
ATOM     39  C   UNL     1      -6.184  -2.503 125.200  0.00  0.00    +0.000 A 
ATOM     40  C   UNL     1      -7.136  -2.759 124.219  0.00  0.00    +0.000 A 
ATOM     41  C   UNL     1      -8.444  -3.071 124.587  0.00  0.00    +0.000 A 
ATOM     42 CL   UNL     1      -9.628  -3.331 123.366  0.00  0.00    +0.000 Cl
ATOM     43  C   UNL     1      -8.806  -3.152 125.932  0.00  0.00    +0.000 A 
ENDBRANCH  36  37
ENDBRANCH  35  36
ENDBRANCH  34  35
ENDBRANCH  32  34
ENDBRANCH  29  30
ENDBRANCH  10  29
TORSDOF 12
ENDMDL
MODEL 4
REMARK VINA RESULT:      -7.9      3.305      4.623
REMARK  Name = CHEMBL24678
REMARK  13 active torsions:
REMARK  status: ('A' for Active; 'I' for Inactive)
REMARK    1  A    between atoms: C_1  and  C_2
REMARK    2  A    between atoms: C_2  and  C_4
REMARK    3  A    between atoms: C_4  and  C_5
REMARK    4  A    between atoms: C_5  and  C_6
REMARK    5  A    between atoms: C_6  and  C_7
REMARK    6  A    between atoms: N_9  and  C_10
REMARK    7  A    between atoms: C_12  and  C_13
REMARK    8  A    between atoms: N_25  and  C_26
REMARK    9  A    between atoms: C_26  and  C_27
REMARK   10  A    between atoms: N_29  and  C_30
REMARK   11  A    between atoms: C_30  and  C_31
REMARK   12  A    between atoms: C_31  and  C_32
REMARK   13  A    between atoms: C_32  and  C_33
REMARK                            x       y       z     vdW  Elec       q    Type
REMARK                         _______ _______ _______ _____ _____    ______ ____
ROOT
ATOM      1  C   UNL     1      -9.408   5.283 130.901  0.00  0.00    +0.000 C 
ATOM      2  N   UNL     1      -8.146   5.909 130.466  0.00  0.00    +0.000 NA
ATOM      3  C   UNL     1      -7.033   5.520 131.014  0.00  0.00    +0.000 C 
ATOM      4  C   UNL     1      -6.919   4.579 132.182  0.00  0.00    +0.000 A 
ATOM      5  C   UNL     1      -5.898   4.824 133.125  0.00  0.00    +0.000 A 
ATOM      6  C   UNL     1      -5.684   3.958 134.199  0.00  0.00    +0.000 A 
ATOM      7  C   UNL     1      -6.534   2.880 134.394  0.00  0.00    +0.000 A 
ATOM      8  C   UNL     1      -7.588   2.667 133.509  0.00  0.00    +0.000 A 
ATOM      9  C   UNL     1      -7.732   3.443 132.344  0.00  0.00    +0.000 A 
ATOM     10  N   UNL     1      -8.568   2.947 131.303  0.00  0.00    +0.000 N 
ATOM     11  C   UNL     1      -9.341   3.770 130.495  0.00  0.00    +0.000 C 
ATOM     12  O   UNL     1      -9.945   3.301 129.522  0.00  0.00    +0.000 OA
ENDROOT
BRANCH   3  13
ATOM     13  C   UNL     1      -5.743   6.046 130.438  0.00  0.00    +0.000 A 
ATOM     14  C   UNL     1      -5.293   7.337 130.734  0.00  0.00    +0.000 A 
ATOM     15  C   UNL     1      -4.140   7.835 130.112  0.00  0.00    +0.000 A 
ATOM     16  C   UNL     1      -3.387   7.017 129.268  0.00  0.00    +0.000 A 
ATOM     17  C   UNL     1      -3.774   5.696 129.057  0.00  0.00    +0.000 A 
ATOM     18  C   UNL     1      -4.974   5.224 129.599  0.00  0.00    +0.000 A 
ENDBRANCH   3  13
BRANCH   1  21
ATOM     19  C   UNL     1     -11.582   6.430 130.875  0.00  0.00    +0.000 C 
ATOM     20  O   UNL     1     -11.635   6.426 132.104  0.00  0.00    +0.000 OA
ATOM     21  N   UNL     1     -10.502   5.919 130.179  0.00  0.00    +0.000 N 
ATOM     22  H   UNL     1     -10.325   6.183 129.225  0.00  0.00    +0.000 HD
BRANCH  19  23
ATOM     23  C   UNL     1     -12.713   7.005 130.028  0.00  0.00    +0.000 C 
BRANCH  23  24
ATOM     24  C   UNL     1     -12.503   8.514 129.833  0.00  0.00    +0.000 C 
BRANCH  24  25
ATOM     25  C   UNL     1     -12.316   8.930 128.376  0.00  0.00    +0.000 C 
BRANCH  25  27
ATOM     26  C   UNL     1     -11.132   7.626 126.488  0.00  0.00    +0.000 C 
ATOM     27  C   UNL     1     -11.027   8.356 127.800  0.00  0.00    +0.000 C 
ATOM     28  O   UNL     1      -9.937   8.467 128.362  0.00  0.00    +0.000 OA
ENDBRANCH  25  27
ENDBRANCH  24  25
ENDBRANCH  23  24
ENDBRANCH  19  23
ENDBRANCH   1  21
BRANCH  10  29
ATOM     29  C   UNL     1      -8.573   1.513 130.952  0.00  0.00    +0.000 C 
BRANCH  29  30
ATOM     30  C   UNL     1      -7.430   0.975 130.082  0.00  0.00    +0.000 C 
ATOM     31  O   UNL     1      -6.630   1.701 129.474  0.00  0.00    +0.000 OA
ATOM     32  N   UNL     1      -7.310  -0.386 129.967  0.00  0.00    +0.000 N 
ATOM     33  H   UNL     1      -8.135  -0.974 130.054  0.00  0.00    +0.000 HD
BRANCH  32  34
ATOM     34  C   UNL     1      -6.118  -0.873 129.307  0.00  0.00    +0.000 C 
BRANCH  34  35
ATOM     35  C   UNL     1      -6.372  -2.144 128.549  0.00  0.00    +0.000 C 
BRANCH  35  36
ATOM     36  C   UNL     1      -7.828  -2.223 128.093  0.00  0.00    +0.000 C 
BRANCH  36  37
ATOM     37  C   UNL     1      -7.889  -2.535 126.622  0.00  0.00    +0.000 A 
ATOM     38  C   UNL     1      -9.097  -2.981 126.065  0.00  0.00    +0.000 A 
ATOM     39  C   UNL     1      -9.199  -3.253 124.708  0.00  0.00    +0.000 A 
ATOM     40  C   UNL     1      -8.056  -3.220 123.916  0.00  0.00    +0.000 A 
ATOM     41  C   UNL     1      -6.844  -2.804 124.464  0.00  0.00    +0.000 A 
ATOM     42 CL   UNL     1      -5.425  -2.820 123.492  0.00  0.00    +0.000 Cl
ATOM     43  C   UNL     1      -6.767  -2.399 125.797  0.00  0.00    +0.000 A 
ENDBRANCH  36  37
ENDBRANCH  35  36
ENDBRANCH  34  35
ENDBRANCH  32  34
ENDBRANCH  29  30
ENDBRANCH  10  29
TORSDOF 12
ENDMDL
MODEL 5
REMARK VINA RESULT:      -7.8      2.402      3.404
REMARK  Name = CHEMBL24678
REMARK  13 active torsions:
REMARK  status: ('A' for Active; 'I' for Inactive)
REMARK    1  A    between atoms: C_1  and  C_2
REMARK    2  A    between atoms: C_2  and  C_4
REMARK    3  A    between atoms: C_4  and  C_5
REMARK    4  A    between atoms: C_5  and  C_6
REMARK    5  A    between atoms: C_6  and  C_7
REMARK    6  A    between atoms: N_9  and  C_10
REMARK    7  A    between atoms: C_12  and  C_13
REMARK    8  A    between atoms: N_25  and  C_26
REMARK    9  A    between atoms: C_26  and  C_27
REMARK   10  A    between atoms: N_29  and  C_30
REMARK   11  A    between atoms: C_30  and  C_31
REMARK   12  A    between atoms: C_31  and  C_32
REMARK   13  A    between atoms: C_32  and  C_33
REMARK                            x       y       z     vdW  Elec       q    Type
REMARK                         _______ _______ _______ _____ _____    ______ ____
ROOT
ATOM      1  C   UNL     1      -9.449   6.114 131.561  0.00  0.00    +0.000 C 
ATOM      2  N   UNL     1      -8.146   6.387 130.927  0.00  0.00    +0.000 NA
ATOM      3  C   UNL     1      -7.059   6.110 131.584  0.00  0.00    +0.000 C 
ATOM      4  C   UNL     1      -6.998   5.668 133.020  0.00  0.00    +0.000 A 
ATOM      5  C   UNL     1      -5.921   6.133 133.805  0.00  0.00    +0.000 A 
ATOM      6  C   UNL     1      -5.757   5.713 135.127  0.00  0.00    +0.000 A 
ATOM      7  C   UNL     1      -6.706   4.889 135.710  0.00  0.00    +0.000 A 
ATOM      8  C   UNL     1      -7.810   4.479 134.967  0.00  0.00    +0.000 A 
ATOM      9  C   UNL     1      -7.918   4.773 133.595  0.00  0.00    +0.000 A 
ATOM     10  N   UNL     1      -8.841   4.020 132.815  0.00  0.00    +0.000 N 
ATOM     11  C   UNL     1      -9.556   4.562 131.754  0.00  0.00    +0.000 C 
ATOM     12  O   UNL     1     -10.243   3.833 131.028  0.00  0.00    +0.000 OA
ENDROOT
BRANCH   3  13
ATOM     13  C   UNL     1      -5.744   6.235 130.856  0.00  0.00    +0.000 A 
ATOM     14  C   UNL     1      -5.020   5.101 130.474  0.00  0.00    +0.000 A 
ATOM     15  C   UNL     1      -3.758   5.244 129.884  0.00  0.00    +0.000 A 
ATOM     16  C   UNL     1      -3.258   6.514 129.591  0.00  0.00    +0.000 A 
ATOM     17  C   UNL     1      -4.024   7.642 129.873  0.00  0.00    +0.000 A 
ATOM     18  C   UNL     1      -5.242   7.509 130.548  0.00  0.00    +0.000 A 
ENDBRANCH   3  13
BRANCH   1  21
ATOM     19  C   UNL     1     -11.780   6.760 131.124  0.00  0.00    +0.000 C 
ATOM     20  O   UNL     1     -12.068   6.649 132.314  0.00  0.00    +0.000 OA
ATOM     21  N   UNL     1     -10.498   6.552 130.650  0.00  0.00    +0.000 N 
ATOM     22  H   UNL     1     -10.203   6.921 129.762  0.00  0.00    +0.000 HD
BRANCH  19  23
ATOM     23  C   UNL     1     -12.825   7.139 130.079  0.00  0.00    +0.000 C 
BRANCH  23  24
ATOM     24  C   UNL     1     -12.694   8.629 129.729  0.00  0.00    +0.000 C 
BRANCH  24  25
ATOM     25  C   UNL     1     -12.490   8.900 128.241  0.00  0.00    +0.000 C 
BRANCH  25  27
ATOM     26  C   UNL     1     -11.222   7.437 126.532  0.00  0.00    +0.000 C 
ATOM     27  C   UNL     1     -11.169   8.318 127.752  0.00  0.00    +0.000 C 
ATOM     28  O   UNL     1     -10.094   8.538 128.310  0.00  0.00    +0.000 OA
ENDBRANCH  25  27
ENDBRANCH  24  25
ENDBRANCH  23  24
ENDBRANCH  19  23
ENDBRANCH   1  21
BRANCH  10  29
ATOM     29  C   UNL     1      -9.010   2.569 133.029  0.00  0.00    +0.000 C 
BRANCH  29  30
ATOM     30  C   UNL     1      -7.905   1.629 132.532  0.00  0.00    +0.000 C 
ATOM     31  O   UNL     1      -7.457   0.684 133.197  0.00  0.00    +0.000 OA
ATOM     32  N   UNL     1      -7.382   1.871 131.288  0.00  0.00    +0.000 N 
ATOM     33  H   UNL     1      -7.379   2.817 130.917  0.00  0.00    +0.000 HD
BRANCH  32  34
ATOM     34  C   UNL     1      -6.486   0.864 130.760  0.00  0.00    +0.000 C 
BRANCH  34  35
ATOM     35  C   UNL     1      -5.267   1.470 130.127  0.00  0.00    +0.000 C 
BRANCH  35  36
ATOM     36  C   UNL     1      -5.090   0.966 128.697  0.00  0.00    +0.000 C 
BRANCH  36  37
ATOM     37  C   UNL     1      -4.602   2.084 127.815  0.00  0.00    +0.000 A 
ATOM     38  C   UNL     1      -3.227   2.360 127.756  0.00  0.00    +0.000 A 
ATOM     39  C   UNL     1      -2.737   3.366 126.935  0.00  0.00    +0.000 A 
ATOM     40  C   UNL     1      -3.627   4.204 126.273  0.00  0.00    +0.000 A 
ATOM     41  C   UNL     1      -4.997   3.956 126.346  0.00  0.00    +0.000 A 
ATOM     42 CL   UNL     1      -6.094   5.030 125.569  0.00  0.00    +0.000 Cl
ATOM     43  C   UNL     1      -5.486   2.862 127.060  0.00  0.00    +0.000 A 
ENDBRANCH  36  37
ENDBRANCH  35  36
ENDBRANCH  34  35
ENDBRANCH  32  34
ENDBRANCH  29  30
ENDBRANCH  10  29
TORSDOF 12
ENDMDL
MODEL 6
REMARK VINA RESULT:      -7.8      4.178      8.611
REMARK  Name = CHEMBL24678
REMARK  13 active torsions:
REMARK  status: ('A' for Active; 'I' for Inactive)
REMARK    1  A    between atoms: C_1  and  C_2
REMARK    2  A    between atoms: C_2  and  C_4
REMARK    3  A    between atoms: C_4  and  C_5
REMARK    4  A    between atoms: C_5  and  C_6
REMARK    5  A    between atoms: C_6  and  C_7
REMARK    6  A    between atoms: N_9  and  C_10
REMARK    7  A    between atoms: C_12  and  C_13
REMARK    8  A    between atoms: N_25  and  C_26
REMARK    9  A    between atoms: C_26  and  C_27
REMARK   10  A    between atoms: N_29  and  C_30
REMARK   11  A    between atoms: C_30  and  C_31
REMARK   12  A    between atoms: C_31  and  C_32
REMARK   13  A    between atoms: C_32  and  C_33
REMARK                            x       y       z     vdW  Elec       q    Type
REMARK                         _______ _______ _______ _____ _____    ______ ____
ROOT
ATOM      1  C   UNL     1      -5.308   3.367 125.947  0.00  0.00    +0.000 C 
ATOM      2  N   UNL     1      -5.656   3.666 124.546  0.00  0.00    +0.000 NA
ATOM      3  C   UNL     1      -6.393   2.820 123.889  0.00  0.00    +0.000 C 
ATOM      4  C   UNL     1      -6.810   1.462 124.383  0.00  0.00    +0.000 A 
ATOM      5  C   UNL     1      -6.881   0.414 123.441  0.00  0.00    +0.000 A 
ATOM      6  C   UNL     1      -7.325  -0.858 123.807  0.00  0.00    +0.000 A 
ATOM      7  C   UNL     1      -7.629  -1.125 125.133  0.00  0.00    +0.000 A 
ATOM      8  C   UNL     1      -7.496  -0.118 126.085  0.00  0.00    +0.000 A 
ATOM      9  C   UNL     1      -7.189   1.204 125.713  0.00  0.00    +0.000 A 
ATOM     10  N   UNL     1      -7.445   2.245 126.650  0.00  0.00    +0.000 N 
ATOM     11  C   UNL     1      -6.642   3.372 126.769  0.00  0.00    +0.000 C 
ATOM     12  O   UNL     1      -6.984   4.306 127.505  0.00  0.00    +0.000 OA
ENDROOT
BRANCH   3  13
ATOM     13  C   UNL     1      -6.879   3.223 122.520  0.00  0.00    +0.000 A 
ATOM     14  C   UNL     1      -5.980   3.587 121.513  0.00  0.00    +0.000 A 
ATOM     15  C   UNL     1      -6.461   4.048 120.280  0.00  0.00    +0.000 A 
ATOM     16  C   UNL     1      -7.832   4.058 120.019  0.00  0.00    +0.000 A 
ATOM     17  C   UNL     1      -8.724   3.594 120.983  0.00  0.00    +0.000 A 
ATOM     18  C   UNL     1      -8.256   3.224 122.248  0.00  0.00    +0.000 A 
ENDBRANCH   3  13
BRANCH   1  21
ATOM     19  C   UNL     1      -3.434   4.145 127.335  0.00  0.00    +0.000 C 
ATOM     20  O   UNL     1      -3.186   2.998 127.700  0.00  0.00    +0.000 OA
ATOM     21  N   UNL     1      -4.445   4.434 126.438  0.00  0.00    +0.000 N 
ATOM     22  H   UNL     1      -4.456   5.300 125.925  0.00  0.00    +0.000 HD
BRANCH  19  23
ATOM     23  C   UNL     1      -2.637   5.339 127.851  0.00  0.00    +0.000 C 
BRANCH  23  24
ATOM     24  C   UNL     1      -2.723   5.399 129.384  0.00  0.00    +0.000 C 
BRANCH  24  25
ATOM     25  C   UNL     1      -3.958   6.127 129.908  0.00  0.00    +0.000 C 
BRANCH  25  27
ATOM     26  C   UNL     1      -3.244   8.044 131.483  0.00  0.00    +0.000 C 
ATOM     27  C   UNL     1      -3.679   7.611 130.109  0.00  0.00    +0.000 C 
ATOM     28  O   UNL     1      -3.799   8.441 129.207  0.00  0.00    +0.000 OA
ENDBRANCH  25  27
ENDBRANCH  24  25
ENDBRANCH  23  24
ENDBRANCH  19  23
ENDBRANCH   1  21
BRANCH  10  29
ATOM     29  C   UNL     1      -8.662   2.232 127.486  0.00  0.00    +0.000 C 
BRANCH  29  30
ATOM     30  C   UNL     1      -8.498   2.343 129.007  0.00  0.00    +0.000 C 
ATOM     31  O   UNL     1      -7.916   1.495 129.699  0.00  0.00    +0.000 OA
ATOM     32  N   UNL     1      -9.047   3.437 129.624  0.00  0.00    +0.000 N 
ATOM     33  H   UNL     1      -9.861   3.890 129.217  0.00  0.00    +0.000 HD
BRANCH  32  34
ATOM     34  C   UNL     1      -8.716   3.623 131.020  0.00  0.00    +0.000 C 
BRANCH  34  35
ATOM     35  C   UNL     1      -7.919   4.873 131.250  0.00  0.00    +0.000 C 
BRANCH  35  36
ATOM     36  C   UNL     1      -8.661   5.828 132.183  0.00  0.00    +0.000 C 
BRANCH  36  37
ATOM     37  C   UNL     1      -9.803   6.478 131.449  0.00  0.00    +0.000 A 
ATOM     38  C   UNL     1     -11.102   6.368 131.968  0.00  0.00    +0.000 A 
ATOM     39  C   UNL     1     -12.177   6.975 131.334  0.00  0.00    +0.000 A 
ATOM     40  C   UNL     1     -11.989   7.579 130.096  0.00  0.00    +0.000 A 
ATOM     41  C   UNL     1     -10.706   7.670 129.556  0.00  0.00    +0.000 A 
ATOM     42 CL   UNL     1     -10.490   8.368 127.999  0.00  0.00    +0.000 Cl
ATOM     43  C   UNL     1      -9.603   7.181 130.256  0.00  0.00    +0.000 A 
ENDBRANCH  36  37
ENDBRANCH  35  36
ENDBRANCH  34  35
ENDBRANCH  32  34
ENDBRANCH  29  30
ENDBRANCH  10  29
TORSDOF 12
ENDMDL
MODEL 7
REMARK VINA RESULT:      -7.7      2.480      3.558
REMARK  Name = CHEMBL24678
REMARK  13 active torsions:
REMARK  status: ('A' for Active; 'I' for Inactive)
REMARK    1  A    between atoms: C_1  and  C_2
REMARK    2  A    between atoms: C_2  and  C_4
REMARK    3  A    between atoms: C_4  and  C_5
REMARK    4  A    between atoms: C_5  and  C_6
REMARK    5  A    between atoms: C_6  and  C_7
REMARK    6  A    between atoms: N_9  and  C_10
REMARK    7  A    between atoms: C_12  and  C_13
REMARK    8  A    between atoms: N_25  and  C_26
REMARK    9  A    between atoms: C_26  and  C_27
REMARK   10  A    between atoms: N_29  and  C_30
REMARK   11  A    between atoms: C_30  and  C_31
REMARK   12  A    between atoms: C_31  and  C_32
REMARK   13  A    between atoms: C_32  and  C_33
REMARK                            x       y       z     vdW  Elec       q    Type
REMARK                         _______ _______ _______ _____ _____    ______ ____
ROOT
ATOM      1  C   UNL     1      -9.445   5.460 131.740  0.00  0.00    +0.000 C 
ATOM      2  N   UNL     1      -8.499   5.898 132.783  0.00  0.00    +0.000 NA
ATOM      3  C   UNL     1      -7.575   5.074 133.177  0.00  0.00    +0.000 C 
ATOM      4  C   UNL     1      -7.465   3.630 132.771  0.00  0.00    +0.000 A 
ATOM      5  C   UNL     1      -7.016   2.708 133.740  0.00  0.00    +0.000 A 
ATOM      6  C   UNL     1      -6.823   1.362 133.422  0.00  0.00    +0.000 A 
ATOM      7  C   UNL     1      -7.150   0.900 132.156  0.00  0.00    +0.000 A 
ATOM      8  C   UNL     1      -7.661   1.787 131.212  0.00  0.00    +0.000 A 
ATOM      9  C   UNL     1      -7.727   3.169 131.468  0.00  0.00    +0.000 A 
ATOM     10  N   UNL     1      -7.882   4.053 130.362  0.00  0.00    +0.000 N 
ATOM     11  C   UNL     1      -8.617   5.229 130.429  0.00  0.00    +0.000 C 
ATOM     12  O   UNL     1      -8.610   6.025 129.481  0.00  0.00    +0.000 OA
ENDROOT
BRANCH   3  13
ATOM     13  C   UNL     1      -6.517   5.597 134.115  0.00  0.00    +0.000 A 
ATOM     14  C   UNL     1      -5.226   5.884 133.659  0.00  0.00    +0.000 A 
ATOM     15  C   UNL     1      -4.236   6.279 134.568  0.00  0.00    +0.000 A 
ATOM     16  C   UNL     1      -4.554   6.476 135.914  0.00  0.00    +0.000 A 
ATOM     17  C   UNL     1      -5.864   6.294 136.350  0.00  0.00    +0.000 A 
ATOM     18  C   UNL     1      -6.834   5.809 135.466  0.00  0.00    +0.000 A 
ENDBRANCH   3  13
BRANCH   1  21
ATOM     19  C   UNL     1     -11.602   6.270 130.882  0.00  0.00    +0.000 C 
ATOM     20  O   UNL     1     -11.933   5.133 130.550  0.00  0.00    +0.000 OA
ATOM     21  N   UNL     1     -10.401   6.536 131.513  0.00  0.00    +0.000 N 
ATOM     22  H   UNL     1     -10.264   7.384 132.037  0.00  0.00    +0.000 HD
BRANCH  19  23
ATOM     23  C   UNL     1     -12.500   7.474 130.619  0.00  0.00    +0.000 C 
BRANCH  23  24
ATOM     24  C   UNL     1     -12.987   7.453 129.162  0.00  0.00    +0.000 C 
BRANCH  24  25
ATOM     25  C   UNL     1     -12.471   8.615 128.319  0.00  0.00    +0.000 C 
BRANCH  25  27
ATOM     26  C   UNL     1     -11.029   7.547 126.463  0.00  0.00    +0.000 C 
ATOM     27  C   UNL     1     -11.087   8.315 127.756  0.00  0.00    +0.000 C 
ATOM     28  O   UNL     1     -10.048   8.669 128.313  0.00  0.00    +0.000 OA
ENDBRANCH  25  27
ENDBRANCH  24  25
ENDBRANCH  23  24
ENDBRANCH  19  23
ENDBRANCH   1  21
BRANCH  10  29
ATOM     29  C   UNL     1      -7.166   3.814 129.093  0.00  0.00    +0.000 C 
BRANCH  29  30
ATOM     30  C   UNL     1      -5.726   4.326 128.964  0.00  0.00    +0.000 C 
ATOM     31  O   UNL     1      -5.413   5.337 128.321  0.00  0.00    +0.000 OA
ATOM     32  N   UNL     1      -4.741   3.604 129.586  0.00  0.00    +0.000 N 
ATOM     33  H   UNL     1      -4.861   2.604 129.727  0.00  0.00    +0.000 HD
BRANCH  32  34
ATOM     34  C   UNL     1      -3.425   4.205 129.617  0.00  0.00    +0.000 C 
BRANCH  34  35
ATOM     35  C   UNL     1      -3.187   4.977 130.883  0.00  0.00    +0.000 C 
BRANCH  35  36
ATOM     36  C   UNL     1      -3.099   6.474 130.598  0.00  0.00    +0.000 C 
BRANCH  36  37
ATOM     37  C   UNL     1      -2.262   7.149 131.652  0.00  0.00    +0.000 A 
ATOM     38  C   UNL     1      -1.107   6.508 132.125  0.00  0.00    +0.000 A 
ATOM     39  C   UNL     1      -0.296   7.110 133.077  0.00  0.00    +0.000 A 
ATOM     40  C   UNL     1      -0.707   8.297 133.673  0.00  0.00    +0.000 A 
ATOM     41  C   UNL     1      -1.868   8.929 133.231  0.00  0.00    +0.000 A 
ATOM     42 CL   UNL     1      -2.399  10.367 134.013  0.00  0.00    +0.000 Cl
ATOM     43  C   UNL     1      -2.613   8.396 132.179  0.00  0.00    +0.000 A 
ENDBRANCH  36  37
ENDBRANCH  35  36
ENDBRANCH  34  35
ENDBRANCH  32  34
ENDBRANCH  29  30
ENDBRANCH  10  29
TORSDOF 12
ENDMDL
MODEL 8
REMARK VINA RESULT:      -7.4      3.202      4.518
REMARK  Name = CHEMBL24678
REMARK  13 active torsions:
REMARK  status: ('A' for Active; 'I' for Inactive)
REMARK    1  A    between atoms: C_1  and  C_2
REMARK    2  A    between atoms: C_2  and  C_4
REMARK    3  A    between atoms: C_4  and  C_5
REMARK    4  A    between atoms: C_5  and  C_6
REMARK    5  A    between atoms: C_6  and  C_7
REMARK    6  A    between atoms: N_9  and  C_10
REMARK    7  A    between atoms: C_12  and  C_13
REMARK    8  A    between atoms: N_25  and  C_26
REMARK    9  A    between atoms: C_26  and  C_27
REMARK   10  A    between atoms: N_29  and  C_30
REMARK   11  A    between atoms: C_30  and  C_31
REMARK   12  A    between atoms: C_31  and  C_32
REMARK   13  A    between atoms: C_32  and  C_33
REMARK                            x       y       z     vdW  Elec       q    Type
REMARK                         _______ _______ _______ _____ _____    ______ ____
ROOT
ATOM      1  C   UNL     1      -9.566   5.589 131.983  0.00  0.00    +0.000 C 
ATOM      2  N   UNL     1      -8.849   5.969 133.215  0.00  0.00    +0.000 NA
ATOM      3  C   UNL     1      -7.904   5.193 133.654  0.00  0.00    +0.000 C 
ATOM      4  C   UNL     1      -7.562   3.837 133.100  0.00  0.00    +0.000 A 
ATOM      5  C   UNL     1      -7.158   2.838 134.011  0.00  0.00    +0.000 A 
ATOM      6  C   UNL     1      -6.759   1.576 133.568  0.00  0.00    +0.000 A 
ATOM      7  C   UNL     1      -6.833   1.264 132.219  0.00  0.00    +0.000 A 
ATOM      8  C   UNL     1      -7.296   2.219 131.318  0.00  0.00    +0.000 A 
ATOM      9  C   UNL     1      -7.565   3.539 131.725  0.00  0.00    +0.000 A 
ATOM     10  N   UNL     1      -7.655   4.548 130.724  0.00  0.00    +0.000 N 
ATOM     11  C   UNL     1      -8.527   5.625 130.810  0.00  0.00    +0.000 C 
ATOM     12  O   UNL     1      -8.471   6.542 129.981  0.00  0.00    +0.000 OA
ENDROOT
BRANCH   3  13
ATOM     13  C   UNL     1      -7.071   5.682 134.812  0.00  0.00    +0.000 A 
ATOM     14  C   UNL     1      -5.717   5.993 134.646  0.00  0.00    +0.000 A 
ATOM     15  C   UNL     1      -4.943   6.355 135.757  0.00  0.00    +0.000 A 
ATOM     16  C   UNL     1      -5.537   6.496 137.013  0.00  0.00    +0.000 A 
ATOM     17  C   UNL     1      -6.907   6.292 137.158  0.00  0.00    +0.000 A 
ATOM     18  C   UNL     1      -7.665   5.838 136.074  0.00  0.00    +0.000 A 
ENDBRANCH   3  13
BRANCH   1  21
ATOM     19  C   UNL     1     -11.670   6.279 130.915  0.00  0.00    +0.000 C 
ATOM     20  O   UNL     1     -11.827   5.161 130.429  0.00  0.00    +0.000 OA
ATOM     21  N   UNL     1     -10.599   6.586 131.733  0.00  0.00    +0.000 N 
ATOM     22  H   UNL     1     -10.625   7.378 132.353  0.00  0.00    +0.000 HD
BRANCH  19  23
ATOM     23  C   UNL     1     -12.655   7.413 130.650  0.00  0.00    +0.000 C 
BRANCH  23  24
ATOM     24  C   UNL     1     -13.434   7.135 129.356  0.00  0.00    +0.000 C 
BRANCH  24  25
ATOM     25  C   UNL     1     -13.092   8.083 128.210  0.00  0.00    +0.000 C 
BRANCH  25  27
ATOM     26  C   UNL     1     -10.553   8.306 127.798  0.00  0.00    +0.000 C 
ATOM     27  C   UNL     1     -11.849   7.618 127.462  0.00  0.00    +0.000 C 
ATOM     28  O   UNL     1     -11.874   6.724 126.616  0.00  0.00    +0.000 OA
ENDBRANCH  25  27
ENDBRANCH  24  25
ENDBRANCH  23  24
ENDBRANCH  19  23
ENDBRANCH   1  21
BRANCH  10  29
ATOM     29  C   UNL     1      -6.731   4.559 129.573  0.00  0.00    +0.000 C 
BRANCH  29  30
ATOM     30  C   UNL     1      -7.180   3.874 128.276  0.00  0.00    +0.000 C 
ATOM     31  O   UNL     1      -8.304   4.024 127.774  0.00  0.00    +0.000 OA
ATOM     32  N   UNL     1      -6.284   3.040 127.658  0.00  0.00    +0.000 N 
ATOM     33  H   UNL     1      -5.582   2.557 128.212  0.00  0.00    +0.000 HD
BRANCH  32  34
ATOM     34  C   UNL     1      -6.653   2.560 126.344  0.00  0.00    +0.000 C 
BRANCH  34  35
ATOM     35  C   UNL     1      -6.813   1.068 126.312  0.00  0.00    +0.000 C 
BRANCH  35  36
ATOM     36  C   UNL     1      -8.200   0.660 126.806  0.00  0.00    +0.000 C 
BRANCH  36  37
ATOM     37  C   UNL     1      -8.405  -0.816 126.594  0.00  0.00    +0.000 A 
ATOM     38  C   UNL     1      -8.011  -1.714 127.598  0.00  0.00    +0.000 A 
ATOM     39  C   UNL     1      -8.209  -3.080 127.451  0.00  0.00    +0.000 A 
ATOM     40  C   UNL     1      -8.671  -3.577 126.237  0.00  0.00    +0.000 A 
ATOM     41  C   UNL     1      -9.040  -2.696 125.222  0.00  0.00    +0.000 A 
ATOM     42 CL   UNL     1      -9.558  -3.321 123.705  0.00  0.00    +0.000 Cl
ATOM     43  C   UNL     1      -8.971  -1.316 125.417  0.00  0.00    +0.000 A 
ENDBRANCH  36  37
ENDBRANCH  35  36
ENDBRANCH  34  35
ENDBRANCH  32  34
ENDBRANCH  29  30
ENDBRANCH  10  29
TORSDOF 12
ENDMDL
MODEL 9
REMARK VINA RESULT:      -7.4      2.876      3.771
REMARK  Name = CHEMBL24678
REMARK  13 active torsions:
REMARK  status: ('A' for Active; 'I' for Inactive)
REMARK    1  A    between atoms: C_1  and  C_2
REMARK    2  A    between atoms: C_2  and  C_4
REMARK    3  A    between atoms: C_4  and  C_5
REMARK    4  A    between atoms: C_5  and  C_6
REMARK    5  A    between atoms: C_6  and  C_7
REMARK    6  A    between atoms: N_9  and  C_10
REMARK    7  A    between atoms: C_12  and  C_13
REMARK    8  A    between atoms: N_25  and  C_26
REMARK    9  A    between atoms: C_26  and  C_27
REMARK   10  A    between atoms: N_29  and  C_30
REMARK   11  A    between atoms: C_30  and  C_31
REMARK   12  A    between atoms: C_31  and  C_32
REMARK   13  A    between atoms: C_32  and  C_33
REMARK                            x       y       z     vdW  Elec       q    Type
REMARK                         _______ _______ _______ _____ _____    ______ ____
ROOT
ATOM      1  C   UNL     1      -9.213   5.928 131.338  0.00  0.00    +0.000 C 
ATOM      2  N   UNL     1      -7.958   6.369 130.701  0.00  0.00    +0.000 NA
ATOM      3  C   UNL     1      -6.830   6.113 131.294  0.00  0.00    +0.000 C 
ATOM      4  C   UNL     1      -6.684   5.528 132.672  0.00  0.00    +0.000 A 
ATOM      5  C   UNL     1      -5.618   5.992 133.472  0.00  0.00    +0.000 A 
ATOM      6  C   UNL     1      -5.374   5.450 134.735  0.00  0.00    +0.000 A 
ATOM      7  C   UNL     1      -6.236   4.496 135.253  0.00  0.00    +0.000 A 
ATOM      8  C   UNL     1      -7.332   4.080 134.501  0.00  0.00    +0.000 A 
ATOM      9  C   UNL     1      -7.512   4.507 133.173  0.00  0.00    +0.000 A 
ATOM     10  N   UNL     1      -8.402   3.769 132.342  0.00  0.00    +0.000 N 
ATOM     11  C   UNL     1      -9.194   4.361 131.366  0.00  0.00    +0.000 C 
ATOM     12  O   UNL     1      -9.849   3.660 130.584  0.00  0.00    +0.000 OA
ENDROOT
BRANCH   3  13
ATOM     13  C   UNL     1      -5.556   6.418 130.548  0.00  0.00    +0.000 A 
ATOM     14  C   UNL     1      -5.073   7.727 130.449  0.00  0.00    +0.000 A 
ATOM     15  C   UNL     1      -3.939   7.996 129.671  0.00  0.00    +0.000 A 
ATOM     16  C   UNL     1      -3.235   6.952 129.068  0.00  0.00    +0.000 A 
ATOM     17  C   UNL     1      -3.653   5.636 129.254  0.00  0.00    +0.000 A 
ATOM     18  C   UNL     1      -4.837   5.371 129.950  0.00  0.00    +0.000 A 
ENDBRANCH   3  13
BRANCH   1  21
ATOM     19  C   UNL     1     -11.545   6.663 131.090  0.00  0.00    +0.000 C 
ATOM     20  O   UNL     1     -11.723   6.618 132.306  0.00  0.00    +0.000 OA
ATOM     21  N   UNL     1     -10.325   6.374 130.509  0.00  0.00    +0.000 N 
ATOM     22  H   UNL     1     -10.101   6.690 129.581  0.00  0.00    +0.000 HD
BRANCH  19  23
ATOM     23  C   UNL     1     -12.668   7.045 130.131  0.00  0.00    +0.000 C 
BRANCH  23  24
ATOM     24  C   UNL     1     -12.601   8.548 129.822  0.00  0.00    +0.000 C 
BRANCH  24  25
ATOM     25  C   UNL     1     -12.464   8.870 128.336  0.00  0.00    +0.000 C 
BRANCH  25  27
ATOM     26  C   UNL     1     -11.221   7.516 126.522  0.00  0.00    +0.000 C 
ATOM     27  C   UNL     1     -11.148   8.342 127.778  0.00  0.00    +0.000 C 
ATOM     28  O   UNL     1     -10.060   8.563 128.311  0.00  0.00    +0.000 OA
ENDBRANCH  25  27
ENDBRANCH  24  25
ENDBRANCH  23  24
ENDBRANCH  19  23
ENDBRANCH   1  21
BRANCH  10  29
ATOM     29  C   UNL     1      -8.452   2.295 132.403  0.00  0.00    +0.000 C 
BRANCH  29  30
ATOM     30  C   UNL     1      -7.666   1.499 131.353  0.00  0.00    +0.000 C 
ATOM     31  O   UNL     1      -6.538   1.820 130.951  0.00  0.00    +0.000 OA
ATOM     32  N   UNL     1      -8.265   0.383 130.828  0.00  0.00    +0.000 N 
ATOM     33  H   UNL     1      -9.279   0.332 130.777  0.00  0.00    +0.000 HD
BRANCH  32  34
ATOM     34  C   UNL     1      -7.436  -0.458 129.991  0.00  0.00    +0.000 C 
BRANCH  34  35
ATOM     35  C   UNL     1      -7.967  -1.859 129.897  0.00  0.00    +0.000 C 
BRANCH  35  36
ATOM     36  C   UNL     1      -6.830  -2.859 129.701  0.00  0.00    +0.000 C 
BRANCH  36  37
ATOM     37  C   UNL     1      -6.495  -3.519 131.012  0.00  0.00    +0.000 A 
ATOM     38  C   UNL     1      -5.564  -4.569 131.033  0.00  0.00    +0.000 A 
ATOM     39  C   UNL     1      -5.211  -5.185 132.225  0.00  0.00    +0.000 A 
ATOM     40  C   UNL     1      -5.891  -4.856 133.393  0.00  0.00    +0.000 A 
ATOM     41  C   UNL     1      -6.838  -3.833 133.379  0.00  0.00    +0.000 A 
ATOM     42 CL   UNL     1      -7.714  -3.471 134.815  0.00  0.00    +0.000 Cl
ATOM     43  C   UNL     1      -7.097  -3.118 132.209  0.00  0.00    +0.000 A 
ENDBRANCH  36  37
ENDBRANCH  35  36
ENDBRANCH  34  35
ENDBRANCH  32  34
ENDBRANCH  29  30
ENDBRANCH  10  29
TORSDOF 12
ENDMDL
