MODEL 1
REMARK VINA RESULT:      -9.5      0.000      0.000
REMARK  Name = CHEMBL256692
REMARK  11 active torsions:
REMARK  status: ('A' for Active; 'I' for Inactive)
REMARK    1  A    between atoms: CD1_1  and  CG_2
REMARK    2  A    between atoms: CG_2  and  CD2_3
REMARK    3  A    between atoms: CG_2  and  CB_4
REMARK    4  A    between atoms: CB_4  and  CA_5
REMARK    5  A    between atoms: C_9  and  C_10
REMARK    6  A    between atoms: N_21  and  C_22
REMARK    7  A    between atoms: C_22  and  C_23
REMARK    8  A    between atoms: C_22  and  C_28
REMARK    9  A    between atoms: N_25  and  C_26
REMARK   10  A    between atoms: N_25  and  C_27
REMARK   11  A    between atoms: C_31  and  C_32
REMARK                            x       y       z     vdW  Elec       q    Type
REMARK                         _______ _______ _______ _____ _____    ______ ____
ROOT
ATOM      1  CA  LEU A   2      -5.578   3.368 126.901  0.00  0.00    +0.000 C 
ATOM      2  C   LEU A   2      -5.670   3.172 125.368  0.00  0.00    +0.000 C 
ATOM      3  O   LEU A   2      -4.990   3.639 124.459  0.00  0.00    +0.000 OA
ATOM      4  N   UNK A   1      -6.634   2.327 125.073  0.00  0.00    +0.000 N 
ATOM      5  C   UNK A   1      -7.229   1.524 126.111  0.00  0.00    +0.000 C 
ATOM      6  C   UNK A   1      -7.731   2.361 127.318  0.00  0.00    +0.000 C 
ATOM      7  O   UNK A   1      -8.779   2.045 127.869  0.00  0.00    +0.000 OA
ATOM      8  N   LEU A   2      -6.887   3.409 127.700  0.00  0.00    +0.000 N 
ATOM      9  H   UNK A   1      -6.641   2.151 124.076  0.00  0.00    +0.000 HD
ENDROOT
BRANCH   5  10
ATOM     10  C   UNK A   1      -8.417   0.783 125.519  0.00  0.00    +0.000 C 
ATOM     11  C   UNK A   1      -8.456  -0.620 126.143  0.00  0.00    +0.000 C 
ATOM     12  C   UNK A   1      -7.640  -1.410 125.153  0.00  0.00    +0.000 A 
ATOM     13  C   UNK A   1      -6.874  -2.535 125.412  0.00  0.00    +0.000 A 
ATOM     14  C   UNK A   1      -6.026  -3.006 124.406  0.00  0.00    +0.000 A 
ATOM     15  C   UNK A   1      -5.928  -2.338 123.174  0.00  0.00    +0.000 A 
ATOM     16  C   UNK A   1      -6.658  -1.173 122.934  0.00  0.00    +0.000 A 
ATOM     17  C   UNK A   1      -7.514  -0.722 123.928  0.00  0.00    +0.000 A 
ATOM     18  C   UNK A   1      -8.255   0.587 123.982  0.00  0.00    +0.000 C 
ENDBRANCH   5  10
BRANCH   1  19
ATOM     19  CB  LEU A   2      -4.875   4.636 126.885  0.00  0.00    +0.000 C 
BRANCH  19  21
ATOM     20  CD1 LEU A   2      -1.926   3.323 126.956  0.00  0.00    +0.000 C 
ATOM     21  CG  LEU A   2      -3.532   4.384 127.512  0.00  0.00    +0.000 C 
ATOM     22  CD2 LEU A   2      -3.463   6.351 127.977  0.00  0.00    +0.000 C 
ENDBRANCH  19  21
ENDBRANCH   1  19
BRANCH   8  23
ATOM     23  C   UNK A   0      -7.414   4.779 128.689  0.00  0.00    +0.000 C 
BRANCH  23  24
ATOM     24  C   UNK A   0      -9.134   5.741 128.528  0.00  0.00    +0.000 C 
ATOM     25  O   UNK A   0      -9.606   5.951 127.343  0.00  0.00    +0.000 OA
ATOM     26  N   UNK A   0      -9.871   6.663 129.912  0.00  0.00    +0.000 N 
ATOM     27  C   UNK A   0      -9.999   6.254 131.768  0.00  0.00    +0.000 C 
ATOM     28  C   UNK A   0     -10.631   7.815 129.596  0.00  0.00    +0.000 C 
ENDBRANCH  23  24
BRANCH  23  29
ATOM     29  C   UNK A   0      -7.064   4.470 130.087  0.00  0.00    +0.000 A 
ATOM     30  C   UNK A   0      -6.027   4.938 130.829  0.00  0.00    +0.000 A 
ATOM     31  O   UNK A   0      -6.181   4.494 132.092  0.00  0.00    +0.000 OA
ATOM     32  C   UNK A   0      -7.310   3.730 132.039  0.00  0.00    +0.000 A 
ATOM     33  N   UNK A   0      -7.824   3.594 130.837  0.00  0.00    +0.000 NA
BRANCH  32  34
ATOM     34  C   UNK A   0      -7.873   3.080 133.265  0.00  0.00    +0.000 C 
ATOM     35  C   UNK A   0      -8.732   3.895 134.203  0.00  0.00    +0.000 C 
ATOM     36  C   UNK A   0      -9.370   2.888 133.298  0.00  0.00    +0.000 C 
ENDBRANCH  32  34
ENDBRANCH  23  29
ENDBRANCH   8  23
TORSDOF 7
ENDMDL
MODEL 2
REMARK VINA RESULT:      -9.4      3.015      7.461
REMARK  Name = CHEMBL256692
REMARK  11 active torsions:
REMARK  status: ('A' for Active; 'I' for Inactive)
REMARK    1  A    between atoms: CD1_1  and  CG_2
REMARK    2  A    between atoms: CG_2  and  CD2_3
REMARK    3  A    between atoms: CG_2  and  CB_4
REMARK    4  A    between atoms: CB_4  and  CA_5
REMARK    5  A    between atoms: C_9  and  C_10
REMARK    6  A    between atoms: N_21  and  C_22
REMARK    7  A    between atoms: C_22  and  C_23
REMARK    8  A    between atoms: C_22  and  C_28
REMARK    9  A    between atoms: N_25  and  C_26
REMARK   10  A    between atoms: N_25  and  C_27
REMARK   11  A    between atoms: C_31  and  C_32
REMARK                            x       y       z     vdW  Elec       q    Type
REMARK                         _______ _______ _______ _____ _____    ______ ____
ROOT
ATOM      1  CA  LEU A   2      -8.273   2.844 128.897  0.00  0.00    +0.000 C 
ATOM      2  C   LEU A   2      -8.292   4.236 128.219  0.00  0.00    +0.000 C 
ATOM      3  O   LEU A   2      -7.995   4.575 127.078  0.00  0.00    +0.000 OA
ATOM      4  N   UNK A   1      -8.746   5.144 129.056  0.00  0.00    +0.000 N 
ATOM      5  C   UNK A   1      -9.399   4.738 130.274  0.00  0.00    +0.000 C 
ATOM      6  C   UNK A   1      -8.554   3.745 131.117  0.00  0.00    +0.000 C 
ATOM      7  O   UNK A   1      -8.556   3.846 132.339  0.00  0.00    +0.000 OA
ATOM      8  N   LEU A   2      -7.878   2.770 130.376  0.00  0.00    +0.000 N 
ATOM      9  H   UNK A   1      -8.821   6.037 128.583  0.00  0.00    +0.000 HD
ENDROOT
BRANCH   5  10
ATOM     10  C   UNK A   1      -9.655   5.977 131.115  0.00  0.00    +0.000 C 
ATOM     11  C   UNK A   1     -11.167   6.073 131.365  0.00  0.00    +0.000 C 
ATOM     12  C   UNK A   1     -11.607   6.931 130.207  0.00  0.00    +0.000 A 
ATOM     13  C   UNK A   1     -12.843   6.915 129.580  0.00  0.00    +0.000 A 
ATOM     14  C   UNK A   1     -12.993   7.638 128.393  0.00  0.00    +0.000 A 
ATOM     15  C   UNK A   1     -11.911   8.337 127.833  0.00  0.00    +0.000 A 
ATOM     16  C   UNK A   1     -10.652   8.306 128.436  0.00  0.00    +0.000 A 
ATOM     17  C   UNK A   1     -10.514   7.604 129.624  0.00  0.00    +0.000 A 
ATOM     18  C   UNK A   1      -9.242   7.273 130.356  0.00  0.00    +0.000 C 
ENDBRANCH   5  10
BRANCH   1  19
ATOM     19  CB  LEU A   2      -7.309   2.219 128.012  0.00  0.00    +0.000 C 
BRANCH  19  21
ATOM     20  CD1 LEU A   2      -9.426   0.787 126.038  0.00  0.00    +0.000 C 
ATOM     21  CG  LEU A   2      -7.993   1.018 127.419  0.00  0.00    +0.000 C 
ATOM     22  CD2 LEU A   2      -6.177   0.137 127.300  0.00  0.00    +0.000 C 
ENDBRANCH  19  21
ENDBRANCH   1  19
BRANCH   8  23
ATOM     23  C   UNK A   0      -6.503   1.844 131.000  0.00  0.00    +0.000 C 
BRANCH  23  24
ATOM     24  C   UNK A   0      -5.129   2.504 132.261  0.00  0.00    +0.000 C 
ATOM     25  O   UNK A   0      -4.324   1.642 132.790  0.00  0.00    +0.000 OA
ATOM     26  N   UNK A   0      -5.193   4.169 132.991  0.00  0.00    +0.000 N 
ATOM     27  C   UNK A   0      -5.654   5.855 132.237  0.00  0.00    +0.000 C 
ATOM     28  C   UNK A   0      -4.673   4.327 134.298  0.00  0.00    +0.000 C 
ENDBRANCH  23  24
BRANCH  23  29
ATOM     29  C   UNK A   0      -7.003   0.504 131.353  0.00  0.00    +0.000 A 
ATOM     30  C   UNK A   0      -7.854   0.147 132.350  0.00  0.00    +0.000 A 
ATOM     31  O   UNK A   0      -8.139  -1.163 132.210  0.00  0.00    +0.000 OA
ATOM     32  C   UNK A   0      -7.398  -1.549 131.132  0.00  0.00    +0.000 A 
ATOM     33  N   UNK A   0      -6.616  -0.614 130.641  0.00  0.00    +0.000 NA
BRANCH  32  34
ATOM     34  C   UNK A   0      -7.465  -2.946 130.597  0.00  0.00    +0.000 C 
ATOM     35  C   UNK A   0      -8.256  -3.216 129.338  0.00  0.00    +0.000 C 
ATOM     36  C   UNK A   0      -6.760  -3.200 129.286  0.00  0.00    +0.000 C 
ENDBRANCH  32  34
ENDBRANCH  23  29
ENDBRANCH   8  23
TORSDOF 7
ENDMDL
MODEL 3
REMARK VINA RESULT:      -9.1      2.104      5.063
REMARK  Name = CHEMBL256692
REMARK  11 active torsions:
REMARK  status: ('A' for Active; 'I' for Inactive)
REMARK    1  A    between atoms: CD1_1  and  CG_2
REMARK    2  A    between atoms: CG_2  and  CD2_3
REMARK    3  A    between atoms: CG_2  and  CB_4
REMARK    4  A    between atoms: CB_4  and  CA_5
REMARK    5  A    between atoms: C_9  and  C_10
REMARK    6  A    between atoms: N_21  and  C_22
REMARK    7  A    between atoms: C_22  and  C_23
REMARK    8  A    between atoms: C_22  and  C_28
REMARK    9  A    between atoms: N_25  and  C_26
REMARK   10  A    between atoms: N_25  and  C_27
REMARK   11  A    between atoms: C_31  and  C_32
REMARK                            x       y       z     vdW  Elec       q    Type
REMARK                         _______ _______ _______ _____ _____    ______ ____
ROOT
ATOM      1  CA  LEU A   2      -8.135   2.272 129.002  0.00  0.00    +0.000 C 
ATOM      2  C   LEU A   2      -7.461   1.014 128.401  0.00  0.00    +0.000 C 
ATOM      3  O   LEU A   2      -7.286  -0.104 128.875  0.00  0.00    +0.000 OA
ATOM      4  N   UNK A   1      -7.070   1.252 127.167  0.00  0.00    +0.000 N 
ATOM      5  C   UNK A   1      -7.539   2.426 126.478  0.00  0.00    +0.000 C 
ATOM      6  C   UNK A   1      -7.303   3.738 127.275  0.00  0.00    +0.000 C 
ATOM      7  O   UNK A   1      -6.968   4.751 126.672  0.00  0.00    +0.000 OA
ATOM      8  N   LEU A   2      -7.543   3.642 128.649  0.00  0.00    +0.000 N 
ATOM      9  H   UNK A   1      -6.694   0.405 126.759  0.00  0.00    +0.000 HD
ENDROOT
BRANCH   5  10
ATOM     10  C   UNK A   1      -6.796   2.533 125.156  0.00  0.00    +0.000 C 
ATOM     11  C   UNK A   1      -7.761   3.124 124.119  0.00  0.00    +0.000 C 
ATOM     12  C   UNK A   1      -8.364   1.876 123.526  0.00  0.00    +0.000 A 
ATOM     13  C   UNK A   1      -9.629   1.741 122.978  0.00  0.00    +0.000 A 
ATOM     14  C   UNK A   1     -10.082   0.456 122.667  0.00  0.00    +0.000 A 
ATOM     15  C   UNK A   1      -9.289  -0.672 122.933  0.00  0.00    +0.000 A 
ATOM     16  C   UNK A   1      -8.038  -0.539 123.537  0.00  0.00    +0.000 A 
ATOM     17  C   UNK A   1      -7.584   0.740 123.824  0.00  0.00    +0.000 A 
ATOM     18  C   UNK A   1      -6.373   1.129 124.628  0.00  0.00    +0.000 C 
ENDBRANCH   5  10
BRANCH   1  19
ATOM     19  CB  LEU A   2      -7.975   1.919 130.400  0.00  0.00    +0.000 C 
BRANCH  19  21
ATOM     20  CD1 LEU A   2     -10.891   3.304 130.499  0.00  0.00    +0.000 C 
ATOM     21  CG  LEU A   2      -9.266   2.285 131.079  0.00  0.00    +0.000 C 
ATOM     22  CD2 LEU A   2      -9.332   0.398 131.804  0.00  0.00    +0.000 C 
ENDBRANCH  19  21
ENDBRANCH   1  19
BRANCH   8  23
ATOM     23  C   UNK A   0      -6.912   4.795 129.835  0.00  0.00    +0.000 C 
BRANCH  23  24
ATOM     24  C   UNK A   0      -5.217   5.805 129.693  0.00  0.00    +0.000 C 
ATOM     25  O   UNK A   0      -5.177   7.000 130.182  0.00  0.00    +0.000 OA
ATOM     26  N   UNK A   0      -3.865   5.292 128.588  0.00  0.00    +0.000 N 
ATOM     27  C   UNK A   0      -3.153   3.572 128.188  0.00  0.00    +0.000 C 
ATOM     28  C   UNK A   0      -3.066   6.313 128.020  0.00  0.00    +0.000 C 
ENDBRANCH  23  24
BRANCH  23  29
ATOM     29  C   UNK A   0      -8.040   5.637 130.272  0.00  0.00    +0.000 A 
ATOM     30  C   UNK A   0      -8.341   6.079 131.520  0.00  0.00    +0.000 A 
ATOM     31  O   UNK A   0      -9.380   6.930 131.425  0.00  0.00    +0.000 OA
ATOM     32  C   UNK A   0      -9.688   6.930 130.097  0.00  0.00    +0.000 A 
ATOM     33  N   UNK A   0      -8.983   6.091 129.371  0.00  0.00    +0.000 NA
BRANCH  32  34
ATOM     34  C   UNK A   0     -10.774   7.801 129.544  0.00  0.00    +0.000 C 
ATOM     35  C   UNK A   0     -10.542   8.531 128.241  0.00  0.00    +0.000 C 
ATOM     36  C   UNK A   0     -11.434   7.329 128.272  0.00  0.00    +0.000 C 
ENDBRANCH  32  34
ENDBRANCH  23  29
ENDBRANCH   8  23
TORSDOF 7
ENDMDL
MODEL 4
REMARK VINA RESULT:      -9.1      1.493      2.200
REMARK  Name = CHEMBL256692
REMARK  11 active torsions:
REMARK  status: ('A' for Active; 'I' for Inactive)
REMARK    1  A    between atoms: CD1_1  and  CG_2
REMARK    2  A    between atoms: CG_2  and  CD2_3
REMARK    3  A    between atoms: CG_2  and  CB_4
REMARK    4  A    between atoms: CB_4  and  CA_5
REMARK    5  A    between atoms: C_9  and  C_10
REMARK    6  A    between atoms: N_21  and  C_22
REMARK    7  A    between atoms: C_22  and  C_23
REMARK    8  A    between atoms: C_22  and  C_28
REMARK    9  A    between atoms: N_25  and  C_26
REMARK   10  A    between atoms: N_25  and  C_27
REMARK   11  A    between atoms: C_31  and  C_32
REMARK                            x       y       z     vdW  Elec       q    Type
REMARK                         _______ _______ _______ _____ _____    ______ ____
ROOT
ATOM      1  CA  LEU A   2      -5.222   3.125 127.142  0.00  0.00    +0.000 C 
ATOM      2  C   LEU A   2      -5.463   3.089 125.612  0.00  0.00    +0.000 C 
ATOM      3  O   LEU A   2      -4.874   3.655 124.696  0.00  0.00    +0.000 OA
ATOM      4  N   UNK A   1      -6.453   2.272 125.326  0.00  0.00    +0.000 N 
ATOM      5  C   UNK A   1      -6.945   1.360 126.326  0.00  0.00    +0.000 C 
ATOM      6  C   UNK A   1      -7.326   2.062 127.657  0.00  0.00    +0.000 C 
ATOM      7  O   UNK A   1      -8.317   1.681 128.271  0.00  0.00    +0.000 OA
ATOM      8  N   LEU A   2      -6.447   3.071 128.063  0.00  0.00    +0.000 N 
ATOM      9  H   UNK A   1      -6.557   2.201 124.321  0.00  0.00    +0.000 HD
ENDROOT
BRANCH   5  10
ATOM     10  C   UNK A   1      -8.186   0.675 125.778  0.00  0.00    +0.000 C 
ATOM     11  C   UNK A   1      -8.196  -0.770 126.298  0.00  0.00    +0.000 C 
ATOM     12  C   UNK A   1      -7.472  -1.491 125.191  0.00  0.00    +0.000 A 
ATOM     13  C   UNK A   1      -6.703  -2.639 125.306  0.00  0.00    +0.000 A 
ATOM     14  C   UNK A   1      -5.944  -3.041 124.204  0.00  0.00    +0.000 A 
ATOM     15  C   UNK A   1      -5.934  -2.285 123.021  0.00  0.00    +0.000 A 
ATOM     16  C   UNK A   1      -6.664  -1.098 122.925  0.00  0.00    +0.000 A 
ATOM     17  C   UNK A   1      -7.433  -0.715 124.014  0.00  0.00    +0.000 A 
ATOM     18  C   UNK A   1      -8.148   0.592 124.222  0.00  0.00    +0.000 C 
ENDBRANCH   5  10
BRANCH   1  19
ATOM     19  CB  LEU A   2      -4.522   4.394 127.191  0.00  0.00    +0.000 C 
BRANCH  19  21
ATOM     20  CD1 LEU A   2      -1.618   3.077 126.676  0.00  0.00    +0.000 C 
ATOM     21  CG  LEU A   2      -3.102   4.079 127.575  0.00  0.00    +0.000 C 
ATOM     22  CD2 LEU A   2      -2.930   5.991 128.212  0.00  0.00    +0.000 C 
ENDBRANCH  19  21
ENDBRANCH   1  19
BRANCH   8  23
ATOM     23  C   UNK A   0      -6.873   4.326 129.238  0.00  0.00    +0.000 C 
BRANCH  23  24
ATOM     24  C   UNK A   0      -8.681   5.061 129.555  0.00  0.00    +0.000 C 
ATOM     25  O   UNK A   0      -9.308   5.589 128.556  0.00  0.00    +0.000 OA
ATOM     26  N   UNK A   0      -9.329   5.371 131.226  0.00  0.00    +0.000 N 
ATOM     27  C   UNK A   0      -9.197   4.359 132.834  0.00  0.00    +0.000 C 
ATOM     28  C   UNK A   0     -10.224   6.457 131.386  0.00  0.00    +0.000 C 
ENDBRANCH  23  24
BRANCH  23  29
ATOM     29  C   UNK A   0      -6.157   4.016 130.488  0.00  0.00    +0.000 A 
ATOM     30  C   UNK A   0      -6.309   2.950 131.315  0.00  0.00    +0.000 A 
ATOM     31  O   UNK A   0      -5.350   3.010 132.259  0.00  0.00    +0.000 OA
ATOM     32  C   UNK A   0      -4.674   4.158 131.971  0.00  0.00    +0.000 A 
ATOM     33  N   UNK A   0      -5.180   4.859 130.979  0.00  0.00    +0.000 NA
BRANCH  32  34
ATOM     34  C   UNK A   0      -3.475   4.581 132.762  0.00  0.00    +0.000 C 
ATOM     35  C   UNK A   0      -2.235   3.717 132.741  0.00  0.00    +0.000 C 
ATOM     36  C   UNK A   0      -2.259   5.001 131.972  0.00  0.00    +0.000 C 
ENDBRANCH  32  34
ENDBRANCH  23  29
ENDBRANCH   8  23
TORSDOF 7
ENDMDL
MODEL 5
REMARK VINA RESULT:      -9.1      1.871      3.050
REMARK  Name = CHEMBL256692
REMARK  11 active torsions:
REMARK  status: ('A' for Active; 'I' for Inactive)
REMARK    1  A    between atoms: CD1_1  and  CG_2
REMARK    2  A    between atoms: CG_2  and  CD2_3
REMARK    3  A    between atoms: CG_2  and  CB_4
REMARK    4  A    between atoms: CB_4  and  CA_5
REMARK    5  A    between atoms: C_9  and  C_10
REMARK    6  A    between atoms: N_21  and  C_22
REMARK    7  A    between atoms: C_22  and  C_23
REMARK    8  A    between atoms: C_22  and  C_28
REMARK    9  A    between atoms: N_25  and  C_26
REMARK   10  A    between atoms: N_25  and  C_27
REMARK   11  A    between atoms: C_31  and  C_32
REMARK                            x       y       z     vdW  Elec       q    Type
REMARK                         _______ _______ _______ _____ _____    ______ ____
ROOT
ATOM      1  CA  LEU A   2      -4.823   2.320 127.484  0.00  0.00    +0.000 C 
ATOM      2  C   LEU A   2      -5.423   2.356 126.057  0.00  0.00    +0.000 C 
ATOM      3  O   LEU A   2      -5.206   3.114 125.116  0.00  0.00    +0.000 OA
ATOM      4  N   UNK A   1      -6.268   1.361 125.893  0.00  0.00    +0.000 N 
ATOM      5  C   UNK A   1      -6.303   0.282 126.847  0.00  0.00    +0.000 C 
ATOM      6  C   UNK A   1      -6.475   0.768 128.311  0.00  0.00    +0.000 C 
ATOM      7  O   UNK A   1      -7.185   0.123 129.075  0.00  0.00    +0.000 OA
ATOM      8  N   LEU A   2      -5.744   1.914 128.641  0.00  0.00    +0.000 N 
ATOM      9  H   UNK A   1      -6.601   1.351 124.936  0.00  0.00    +0.000 HD
ENDROOT
BRANCH   5  10
ATOM     10  C   UNK A   1      -7.477  -0.620 126.504  0.00  0.00    +0.000 C 
ATOM     11  C   UNK A   1      -6.979  -2.072 126.534  0.00  0.00    +0.000 C 
ATOM     12  C   UNK A   1      -6.574  -2.279 125.097  0.00  0.00    +0.000 A 
ATOM     13  C   UNK A   1      -5.587  -3.128 124.624  0.00  0.00    +0.000 A 
ATOM     14  C   UNK A   1      -5.217  -3.030 123.280  0.00  0.00    +0.000 A 
ATOM     15  C   UNK A   1      -5.807  -2.073 122.438  0.00  0.00    +0.000 A 
ATOM     16  C   UNK A   1      -6.761  -1.180 122.930  0.00  0.00    +0.000 A 
ATOM     17  C   UNK A   1      -7.140  -1.297 124.259  0.00  0.00    +0.000 A 
ATOM     18  C   UNK A   1      -7.996  -0.353 125.059  0.00  0.00    +0.000 C 
ENDBRANCH   5  10
BRANCH   1  19
ATOM     19  CB  LEU A   2      -4.402   3.707 127.544  0.00  0.00    +0.000 C 
BRANCH  19  21
ATOM     20  CD1 LEU A   2      -1.440   2.941 126.513  0.00  0.00    +0.000 C 
ATOM     21  CG  LEU A   2      -2.903   3.690 127.658  0.00  0.00    +0.000 C 
ATOM     22  CD2 LEU A   2      -2.998   5.632 128.216  0.00  0.00    +0.000 C 
ENDBRANCH  19  21
ENDBRANCH   1  19
BRANCH   8  23
ATOM     23  C   UNK A   0      -6.109   2.939 130.038  0.00  0.00    +0.000 C 
BRANCH  23  24
ATOM     24  C   UNK A   0      -4.818   4.064 131.028  0.00  0.00    +0.000 C 
ATOM     25  O   UNK A   0      -3.700   3.529 131.395  0.00  0.00    +0.000 OA
ATOM     26  N   UNK A   0      -5.280   5.661 131.766  0.00  0.00    +0.000 N 
ATOM     27  C   UNK A   0      -6.380   7.074 131.119  0.00  0.00    +0.000 C 
ATOM     28  C   UNK A   0      -4.616   6.044 132.956  0.00  0.00    +0.000 C 
ENDBRANCH  23  24
BRANCH  23  29
ATOM     29  C   UNK A   0      -7.371   3.643 129.747  0.00  0.00    +0.000 A 
ATOM     30  C   UNK A   0      -7.769   4.232 128.590  0.00  0.00    +0.000 A 
ATOM     31  O   UNK A   0      -9.049   4.628 128.740  0.00  0.00    +0.000 OA
ATOM     32  C   UNK A   0      -9.353   4.283 130.024  0.00  0.00    +0.000 A 
ATOM     33  N   UNK A   0      -8.350   3.782 130.710  0.00  0.00    +0.000 NA
BRANCH  32  34
ATOM     34  C   UNK A   0     -10.722   4.505 130.590  0.00  0.00    +0.000 C 
ATOM     35  C   UNK A   0     -11.023   5.802 131.305  0.00  0.00    +0.000 C 
ATOM     36  C   UNK A   0     -11.561   5.570 129.928  0.00  0.00    +0.000 C 
ENDBRANCH  32  34
ENDBRANCH  23  29
ENDBRANCH   8  23
TORSDOF 7
ENDMDL
MODEL 6
REMARK VINA RESULT:      -9.0      2.860      8.196
REMARK  Name = CHEMBL256692
REMARK  11 active torsions:
REMARK  status: ('A' for Active; 'I' for Inactive)
REMARK    1  A    between atoms: CD1_1  and  CG_2
REMARK    2  A    between atoms: CG_2  and  CD2_3
REMARK    3  A    between atoms: CG_2  and  CB_4
REMARK    4  A    between atoms: CB_4  and  CA_5
REMARK    5  A    between atoms: C_9  and  C_10
REMARK    6  A    between atoms: N_21  and  C_22
REMARK    7  A    between atoms: C_22  and  C_23
REMARK    8  A    between atoms: C_22  and  C_28
REMARK    9  A    between atoms: N_25  and  C_26
REMARK   10  A    between atoms: N_25  and  C_27
REMARK   11  A    between atoms: C_31  and  C_32
REMARK                            x       y       z     vdW  Elec       q    Type
REMARK                         _______ _______ _______ _____ _____    ______ ____
ROOT
ATOM      1  CA  LEU A   2      -7.197   2.441 127.022  0.00  0.00    +0.000 C 
ATOM      2  C   LEU A   2      -7.030   3.884 127.557  0.00  0.00    +0.000 C 
ATOM      3  O   LEU A   2      -6.466   4.859 127.069  0.00  0.00    +0.000 OA
ATOM      4  N   UNK A   1      -7.652   4.018 128.709  0.00  0.00    +0.000 N 
ATOM      5  C   UNK A   1      -8.580   3.008 129.147  0.00  0.00    +0.000 C 
ATOM      6  C   UNK A   1      -7.976   1.578 129.136  0.00  0.00    +0.000 C 
ATOM      7  O   UNK A   1      -8.264   0.801 130.039  0.00  0.00    +0.000 OA
ATOM      8  N   LEU A   2      -7.162   1.290 128.035  0.00  0.00    +0.000 N 
ATOM      9  H   UNK A   1      -7.597   4.982 129.016  0.00  0.00    +0.000 HD
ENDROOT
BRANCH   5  10
ATOM     10  C   UNK A   1      -9.004   3.334 130.569  0.00  0.00    +0.000 C 
ATOM     11  C   UNK A   1     -10.532   3.487 130.582  0.00  0.00    +0.000 C 
ATOM     12  C   UNK A   1     -10.685   4.967 130.339  0.00  0.00    +0.000 A 
ATOM     13  C   UNK A   1     -11.746   5.604 129.715  0.00  0.00    +0.000 A 
ATOM     14  C   UNK A   1     -11.612   6.959 129.400  0.00  0.00    +0.000 A 
ATOM     15  C   UNK A   1     -10.422   7.650 129.680  0.00  0.00    +0.000 A 
ATOM     16  C   UNK A   1      -9.334   6.994 130.257  0.00  0.00    +0.000 A 
ATOM     17  C   UNK A   1      -9.479   5.654 130.587  0.00  0.00    +0.000 A 
ATOM     18  C   UNK A   1      -8.412   4.696 131.040  0.00  0.00    +0.000 C 
ENDBRANCH   5  10
BRANCH   1  19
ATOM     19  CB  LEU A   2      -6.063   2.445 126.118  0.00  0.00    +0.000 C 
BRANCH  19  21
ATOM     20  CD1 LEU A   2      -8.194   0.827 124.311  0.00  0.00    +0.000 C 
ATOM     21  CG  LEU A   2      -6.548   1.845 124.827  0.00  0.00    +0.000 C 
ATOM     22  CD2 LEU A   2      -5.949   3.540 123.901  0.00  0.00    +0.000 C 
ENDBRANCH  19  21
ENDBRANCH   1  19
BRANCH   8  23
ATOM     23  C   UNK A   0      -5.991  -0.037 128.004  0.00  0.00    +0.000 C 
BRANCH  23  24
ATOM     24  C   UNK A   0      -5.031  -0.783 129.564  0.00  0.00    +0.000 C 
ATOM     25  O   UNK A   0      -4.122  -0.055 130.125  0.00  0.00    +0.000 OA
ATOM     26  N   UNK A   0      -5.093  -2.549 129.994  0.00  0.00    +0.000 N 
ATOM     27  C   UNK A   0      -6.531  -3.797 129.980  0.00  0.00    +0.000 C 
ATOM     28  C   UNK A   0      -3.943  -3.112 130.599  0.00  0.00    +0.000 C 
ENDBRANCH  23  24
BRANCH  23  29
ATOM     29  C   UNK A   0      -6.537  -1.082 127.119  0.00  0.00    +0.000 A 
ATOM     30  C   UNK A   0      -7.757  -1.678 127.158  0.00  0.00    +0.000 A 
ATOM     31  O   UNK A   0      -7.871  -2.470 126.074  0.00  0.00    +0.000 OA
ATOM     32  C   UNK A   0      -6.671  -2.339 125.440  0.00  0.00    +0.000 A 
ATOM     33  N   UNK A   0      -5.792  -1.598 126.078  0.00  0.00    +0.000 NA
BRANCH  32  34
ATOM     34  C   UNK A   0      -6.393  -3.027 124.139  0.00  0.00    +0.000 C 
ATOM     35  C   UNK A   0      -6.135  -2.193 122.905  0.00  0.00    +0.000 C 
ATOM     36  C   UNK A   0      -4.995  -2.884 123.586  0.00  0.00    +0.000 C 
ENDBRANCH  32  34
ENDBRANCH  23  29
ENDBRANCH   8  23
TORSDOF 7
ENDMDL
MODEL 7
REMARK VINA RESULT:      -9.0      2.534      7.680
REMARK  Name = CHEMBL256692
REMARK  11 active torsions:
REMARK  status: ('A' for Active; 'I' for Inactive)
REMARK    1  A    between atoms: CD1_1  and  CG_2
REMARK    2  A    between atoms: CG_2  and  CD2_3
REMARK    3  A    between atoms: CG_2  and  CB_4
REMARK    4  A    between atoms: CB_4  and  CA_5
REMARK    5  A    between atoms: C_9  and  C_10
REMARK    6  A    between atoms: N_21  and  C_22
REMARK    7  A    between atoms: C_22  and  C_23
REMARK    8  A    between atoms: C_22  and  C_28
REMARK    9  A    between atoms: N_25  and  C_26
REMARK   10  A    between atoms: N_25  and  C_27
REMARK   11  A    between atoms: C_31  and  C_32
REMARK                            x       y       z     vdW  Elec       q    Type
REMARK                         _______ _______ _______ _____ _____    ______ ____
ROOT
ATOM      1  CA  LEU A   2      -7.884   2.930 128.738  0.00  0.00    +0.000 C 
ATOM      2  C   LEU A   2      -8.191   4.300 128.083  0.00  0.00    +0.000 C 
ATOM      3  O   LEU A   2      -8.132   4.657 126.910  0.00  0.00    +0.000 OA
ATOM      4  N   UNK A   1      -8.611   5.155 128.989  0.00  0.00    +0.000 N 
ATOM      5  C   UNK A   1      -8.995   4.688 130.296  0.00  0.00    +0.000 C 
ATOM      6  C   UNK A   1      -7.903   3.822 130.980  0.00  0.00    +0.000 C 
ATOM      7  O   UNK A   1      -7.715   3.939 132.186  0.00  0.00    +0.000 OA
ATOM      8  N   LEU A   2      -7.241   2.929 130.131  0.00  0.00    +0.000 N 
ATOM      9  H   UNK A   1      -8.875   6.024 128.542  0.00  0.00    +0.000 HD
ENDROOT
BRANCH   5  10
ATOM     10  C   UNK A   1      -9.263   5.897 131.177  0.00  0.00    +0.000 C 
ATOM     11  C   UNK A   1     -10.765   5.927 131.492  0.00  0.00    +0.000 C 
ATOM     12  C   UNK A   1     -11.288   6.792 130.374  0.00  0.00    +0.000 A 
ATOM     13  C   UNK A   1     -12.547   6.741 129.799  0.00  0.00    +0.000 A 
ATOM     14  C   UNK A   1     -12.776   7.484 128.638  0.00  0.00    +0.000 A 
ATOM     15  C   UNK A   1     -11.748   8.238 128.050  0.00  0.00    +0.000 A 
ATOM     16  C   UNK A   1     -10.464   8.243 128.598  0.00  0.00    +0.000 A 
ATOM     17  C   UNK A   1     -10.248   7.522 129.763  0.00  0.00    +0.000 A 
ATOM     18  C   UNK A   1      -8.933   7.225 130.432  0.00  0.00    +0.000 C 
ENDBRANCH   5  10
BRANCH   1  19
ATOM     19  CB  LEU A   2      -7.008   2.420 127.700  0.00  0.00    +0.000 C 
BRANCH  19  21
ATOM     20  CD1 LEU A   2      -9.337   0.786 126.172  0.00  0.00    +0.000 C 
ATOM     21  CG  LEU A   2      -7.650   1.161 127.186  0.00  0.00    +0.000 C 
ATOM     22  CD2 LEU A   2      -5.819   0.571 126.562  0.00  0.00    +0.000 C 
ENDBRANCH  19  21
ENDBRANCH   1  19
BRANCH   8  23
ATOM     23  C   UNK A   0      -5.677   2.193 130.510  0.00  0.00    +0.000 C 
BRANCH  23  24
ATOM     24  C   UNK A   0      -5.195   0.289 130.273  0.00  0.00    +0.000 C 
ATOM     25  O   UNK A   0      -3.947  -0.010 130.122  0.00  0.00    +0.000 OA
ATOM     26  N   UNK A   0      -6.430  -0.988 129.879  0.00  0.00    +0.000 N 
ATOM     27  C   UNK A   0      -8.200  -1.268 130.523  0.00  0.00    +0.000 C 
ATOM     28  C   UNK A   0      -6.007  -2.077 129.079  0.00  0.00    +0.000 C 
ENDBRANCH  23  24
BRANCH  23  29
ATOM     29  C   UNK A   0      -4.631   3.109 130.021  0.00  0.00    +0.000 A 
ATOM     30  C   UNK A   0      -3.889   4.006 130.720  0.00  0.00    +0.000 A 
ATOM     31  O   UNK A   0      -2.963   4.523 129.889  0.00  0.00    +0.000 OA
ATOM     32  C   UNK A   0      -3.224   3.927 128.691  0.00  0.00    +0.000 A 
ATOM     33  N   UNK A   0      -4.282   3.146 128.686  0.00  0.00    +0.000 NA
BRANCH  32  34
ATOM     34  C   UNK A   0      -2.376   4.190 127.485  0.00  0.00    +0.000 C 
ATOM     35  C   UNK A   0      -1.635   3.041 126.840  0.00  0.00    +0.000 C 
ATOM     36  C   UNK A   0      -2.858   3.600 126.181  0.00  0.00    +0.000 C 
ENDBRANCH  32  34
ENDBRANCH  23  29
ENDBRANCH   8  23
TORSDOF 7
ENDMDL
MODEL 8
REMARK VINA RESULT:      -8.9      2.121      2.574
REMARK  Name = CHEMBL256692
REMARK  11 active torsions:
REMARK  status: ('A' for Active; 'I' for Inactive)
REMARK    1  A    between atoms: CD1_1  and  CG_2
REMARK    2  A    between atoms: CG_2  and  CD2_3
REMARK    3  A    between atoms: CG_2  and  CB_4
REMARK    4  A    between atoms: CB_4  and  CA_5
REMARK    5  A    between atoms: C_9  and  C_10
REMARK    6  A    between atoms: N_21  and  C_22
REMARK    7  A    between atoms: C_22  and  C_23
REMARK    8  A    between atoms: C_22  and  C_28
REMARK    9  A    between atoms: N_25  and  C_26
REMARK   10  A    between atoms: N_25  and  C_27
REMARK   11  A    between atoms: C_31  and  C_32
REMARK                            x       y       z     vdW  Elec       q    Type
REMARK                         _______ _______ _______ _____ _____    ______ ____
ROOT
ATOM      1  CA  LEU A   2      -5.243   2.047 127.731  0.00  0.00    +0.000 C 
ATOM      2  C   LEU A   2      -5.518   2.037 126.207  0.00  0.00    +0.000 C 
ATOM      3  O   LEU A   2      -5.036   2.713 125.303  0.00  0.00    +0.000 OA
ATOM      4  N   UNK A   1      -6.394   1.103 125.908  0.00  0.00    +0.000 N 
ATOM      5  C   UNK A   1      -6.731   0.095 126.880  0.00  0.00    +0.000 C 
ATOM      6  C   UNK A   1      -7.169   0.687 128.246  0.00  0.00    +0.000 C 
ATOM      7  O   UNK A   1      -8.081   0.151 128.865  0.00  0.00    +0.000 OA
ATOM      8  N   LEU A   2      -6.425   1.791 128.675  0.00  0.00    +0.000 N 
ATOM      9  H   UNK A   1      -6.514   1.057 124.903  0.00  0.00    +0.000 HD
ENDROOT
BRANCH   5  10
ATOM     10  C   UNK A   1      -7.881  -0.732 126.330  0.00  0.00    +0.000 C 
ATOM     11  C   UNK A   1      -7.457  -2.208 126.360  0.00  0.00    +0.000 C 
ATOM     12  C   UNK A   1      -6.858  -2.374 124.988  0.00  0.00    +0.000 A 
ATOM     13  C   UNK A   1      -5.850  -3.251 124.619  0.00  0.00    +0.000 A 
ATOM     14  C   UNK A   1      -5.286  -3.115 123.347  0.00  0.00    +0.000 A 
ATOM     15  C   UNK A   1      -5.706  -2.096 122.477  0.00  0.00    +0.000 A 
ATOM     16  C   UNK A   1      -6.681  -1.178 122.871  0.00  0.00    +0.000 A 
ATOM     17  C   UNK A   1      -7.253  -1.331 124.126  0.00  0.00    +0.000 A 
ATOM     18  C   UNK A   1      -8.174  -0.379 124.841  0.00  0.00    +0.000 C 
ENDBRANCH   5  10
BRANCH   1  19
ATOM     19  CB  LEU A   2      -4.721   3.398 127.818  0.00  0.00    +0.000 C 
BRANCH  19  21
ATOM     20  CD1 LEU A   2      -1.692   3.088 126.742  0.00  0.00    +0.000 C 
ATOM     21  CG  LEU A   2      -3.235   3.265 128.008  0.00  0.00    +0.000 C 
ATOM     22  CD2 LEU A   2      -3.362   4.712 129.415  0.00  0.00    +0.000 C 
ENDBRANCH  19  21
ENDBRANCH   1  19
BRANCH   8  23
ATOM     23  C   UNK A   0      -6.986   2.930 129.909  0.00  0.00    +0.000 C 
BRANCH  23  24
ATOM     24  C   UNK A   0      -8.761   3.800 129.972  0.00  0.00    +0.000 C 
ATOM     25  O   UNK A   0      -9.798   3.091 129.669  0.00  0.00    +0.000 OA
ATOM     26  N   UNK A   0      -8.960   5.607 130.056  0.00  0.00    +0.000 N 
ATOM     27  C   UNK A   0      -8.010   6.932 131.038  0.00  0.00    +0.000 C 
ATOM     28  C   UNK A   0     -10.098   6.166 129.425  0.00  0.00    +0.000 C 
ENDBRANCH  23  24
BRANCH  23  29
ATOM     29  C   UNK A   0      -6.565   2.399 131.218  0.00  0.00    +0.000 A 
ATOM     30  C   UNK A   0      -7.204   1.510 132.021  0.00  0.00    +0.000 A 
ATOM     31  O   UNK A   0      -6.387   1.211 133.050  0.00  0.00    +0.000 OA
ATOM     32  C   UNK A   0      -5.284   1.983 132.832  0.00  0.00    +0.000 A 
ATOM     33  N   UNK A   0      -5.379   2.796 131.802  0.00  0.00    +0.000 NA
BRANCH  32  34
ATOM     34  C   UNK A   0      -4.090   1.916 133.733  0.00  0.00    +0.000 C 
ATOM     35  C   UNK A   0      -2.943   1.001 133.369  0.00  0.00    +0.000 C 
ATOM     36  C   UNK A   0      -2.801   2.480 133.186  0.00  0.00    +0.000 C 
ENDBRANCH  32  34
ENDBRANCH  23  29
ENDBRANCH   8  23
TORSDOF 7
ENDMDL
MODEL 9
REMARK VINA RESULT:      -8.8      2.234      4.388
REMARK  Name = CHEMBL256692
REMARK  11 active torsions:
REMARK  status: ('A' for Active; 'I' for Inactive)
REMARK    1  A    between atoms: CD1_1  and  CG_2
REMARK    2  A    between atoms: CG_2  and  CD2_3
REMARK    3  A    between atoms: CG_2  and  CB_4
REMARK    4  A    between atoms: CB_4  and  CA_5
REMARK    5  A    between atoms: C_9  and  C_10
REMARK    6  A    between atoms: N_21  and  C_22
REMARK    7  A    between atoms: C_22  and  C_23
REMARK    8  A    between atoms: C_22  and  C_28
REMARK    9  A    between atoms: N_25  and  C_26
REMARK   10  A    between atoms: N_25  and  C_27
REMARK   11  A    between atoms: C_31  and  C_32
REMARK                            x       y       z     vdW  Elec       q    Type
REMARK                         _______ _______ _______ _____ _____    ______ ____
ROOT
ATOM      1  CA  LEU A   2      -6.728   0.924 128.866  0.00  0.00    +0.000 C 
ATOM      2  C   LEU A   2      -5.920  -0.375 128.624  0.00  0.00    +0.000 C 
ATOM      3  O   LEU A   2      -5.498  -1.214 129.414  0.00  0.00    +0.000 OA
ATOM      4  N   UNK A   1      -5.725  -0.557 127.336  0.00  0.00    +0.000 N 
ATOM      5  C   UNK A   1      -6.470   0.220 126.378  0.00  0.00    +0.000 C 
ATOM      6  C   UNK A   1      -6.374   1.749 126.626  0.00  0.00    +0.000 C 
ATOM      7  O   UNK A   1      -6.295   2.506 125.666  0.00  0.00    +0.000 OA
ATOM      8  N   LEU A   2      -6.430   2.133 127.970  0.00  0.00    +0.000 N 
ATOM      9  H   UNK A   1      -5.258  -1.443 127.183  0.00  0.00    +0.000 HD
ENDROOT
BRANCH   5  10
ATOM     10  C   UNK A   1      -5.919  -0.073 124.993  0.00  0.00    +0.000 C 
ATOM     11  C   UNK A   1      -7.052   0.143 123.979  0.00  0.00    +0.000 C 
ATOM     12  C   UNK A   1      -7.641  -1.242 123.891  0.00  0.00    +0.000 A 
ATOM     13  C   UNK A   1      -8.956  -1.571 123.603  0.00  0.00    +0.000 A 
ATOM     14  C   UNK A   1      -9.357  -2.899 123.770  0.00  0.00    +0.000 A 
ATOM     15  C   UNK A   1      -8.461  -3.870 124.246  0.00  0.00    +0.000 A 
ATOM     16  C   UNK A   1      -7.152  -3.525 124.590  0.00  0.00    +0.000 A 
ATOM     17  C   UNK A   1      -6.753  -2.210 124.402  0.00  0.00    +0.000 A 
ATOM     18  C   UNK A   1      -5.475  -1.561 124.862  0.00  0.00    +0.000 C 
ENDBRANCH   5  10
BRANCH   1  19
ATOM     19  CB  LEU A   2      -6.345   1.126 130.250  0.00  0.00    +0.000 C 
BRANCH  19  21
ATOM     20  CD1 LEU A   2      -9.061   0.069 131.641  0.00  0.00    +0.000 C 
ATOM     21  CG  LEU A   2      -7.623   1.318 131.020  0.00  0.00    +0.000 C 
ATOM     22  CD2 LEU A   2      -6.603   2.549 132.259  0.00  0.00    +0.000 C 
ENDBRANCH  19  21
ENDBRANCH   1  19
BRANCH   8  23
ATOM     23  C   UNK A   0      -5.874   3.706 128.563  0.00  0.00    +0.000 C 
BRANCH  23  24
ATOM     24  C   UNK A   0      -4.417   4.796 127.788  0.00  0.00    +0.000 C 
ATOM     25  O   UNK A   0      -3.836   4.363 126.717  0.00  0.00    +0.000 OA
ATOM     26  N   UNK A   0      -3.615   6.147 128.705  0.00  0.00    +0.000 N 
ATOM     27  C   UNK A   0      -4.332   7.487 129.851  0.00  0.00    +0.000 C 
ATOM     28  C   UNK A   0      -2.246   6.390 128.439  0.00  0.00    +0.000 C 
ENDBRANCH  23  24
BRANCH  23  29
ATOM     29  C   UNK A   0      -7.073   4.502 128.882  0.00  0.00    +0.000 A 
ATOM     30  C   UNK A   0      -8.219   4.638 128.167  0.00  0.00    +0.000 A 
ATOM     31  O   UNK A   0      -9.093   5.349 128.906  0.00  0.00    +0.000 OA
ATOM     32  C   UNK A   0      -8.400   5.647 130.042  0.00  0.00    +0.000 A 
ATOM     33  N   UNK A   0      -7.145   5.252 130.038  0.00  0.00    +0.000 NA
BRANCH  32  34
ATOM     34  C   UNK A   0      -9.034   6.397 131.172  0.00  0.00    +0.000 C 
ATOM     35  C   UNK A   0      -9.947   5.661 132.126  0.00  0.00    +0.000 C 
ATOM     36  C   UNK A   0      -8.567   6.042 132.563  0.00  0.00    +0.000 C 
ENDBRANCH  32  34
ENDBRANCH  23  29
ENDBRANCH   8  23
TORSDOF 7
ENDMDL
