MODEL 1
REMARK VINA RESULT:     -11.4      0.000      0.000
REMARK  Name = CHEMBL30910
REMARK  7 active torsions:
REMARK  status: ('A' for Active; 'I' for Inactive)
REMARK    1  A    between atoms: C_2  and  C_3
REMARK    2  A    between atoms: C_3  and  N_4
REMARK    3  A    between atoms: C_6  and  C_7
REMARK    4  A    between atoms: N_15  and  C_16
REMARK    5  A    between atoms: C_16  and  C_17
REMARK    6  A    between atoms: C_21  and  C_22
REMARK    7  A    between atoms: C_27  and  N_28
REMARK                            x       y       z     vdW  Elec       q    Type
REMARK                         _______ _______ _______ _____ _____    ______ ____
ROOT
ATOM      1  C   UNL     1      -6.265   3.915 125.817  0.00  0.00    +0.000 A 
ATOM      2  C   UNL     1      -5.993   2.819 126.629  0.00  0.00    +0.000 A 
ATOM      3  C   UNL     1      -4.728   3.111 127.189  0.00  0.00    +0.000 A 
ATOM      4  C   UNL     1      -4.247   4.165 128.019  0.00  0.00    +0.000 A 
ATOM      5  C   UNL     1      -2.890   4.531 128.128  0.00  0.00    +0.000 A 
ATOM      6  C   UNL     1      -1.987   3.768 127.405  0.00  0.00    +0.000 A 
ATOM      7  C   UNL     1      -2.509   2.993 126.329  0.00  0.00    +0.000 A 
ATOM      8  C   UNL     1      -3.932   3.079 126.051  0.00  0.00    +0.000 A 
ATOM      9  O   UNL     1      -4.865   4.190 125.323  0.00  0.00    +0.000 OA
ENDROOT
BRANCH   5  10
ATOM     10  C   UNL     1      -2.464   5.798 128.831  0.00  0.00    +0.000 C 
ATOM     11  O   UNL     1      -1.917   6.680 128.168  0.00  0.00    +0.000 OA
ATOM     12  N   UNL     1      -2.852   5.972 130.184  0.00  0.00    +0.000 N 
ATOM     13  C   UNL     1      -3.710   7.087 130.594  0.00  0.00    +0.000 C 
ATOM     14  C   UNL     1      -3.217   7.746 131.892  0.00  0.00    +0.000 C 
ATOM     15  C   UNL     1      -3.259   6.646 133.306  0.00  0.00    +0.000 C 
ATOM     16  C   UNL     1      -2.101   5.597 132.549  0.00  0.00    +0.000 C 
ATOM     17  C   UNL     1      -2.609   4.986 131.240  0.00  0.00    +0.000 C 
BRANCH  15  18
ATOM     18  N   UNL     1      -4.657   6.364 134.517  0.00  0.00    +0.000 N 
ATOM     19  C   UNL     1      -3.638   6.932 135.410  0.00  0.00    +0.000 C 
ATOM     20  O   UNL     1      -2.388   6.761 135.493  0.00  0.00    +0.000 OA
ATOM     21  O   UNL     1      -4.096   7.991 136.037  0.00  0.00    +0.000 OA
ATOM     22  C   UNL     1      -4.221   7.488 137.311  0.00  0.00    +0.000 C 
ATOM     23  C   UNL     1      -5.609   7.102 137.161  0.00  0.00    +0.000 A 
ATOM     24  C   UNL     1      -6.340   7.541 138.471  0.00  0.00    +0.000 A 
ATOM     25  C   UNL     1      -7.675   7.527 138.689  0.00  0.00    +0.000 A 
ATOM     26  C   UNL     1      -8.195   6.655 137.769  0.00  0.00    +0.000 A 
ATOM     27  C   UNL     1      -7.374   6.084 136.433  0.00  0.00    +0.000 A 
ATOM     28  F   UNL     1      -8.125   5.052 135.976  0.00  0.00    +0.000 F 
ATOM     29  C   UNL     1      -5.932   6.478 135.895  0.00  0.00    +0.000 A 
ENDBRANCH  15  18
ENDBRANCH   5  10
BRANCH   1  30
ATOM     30  C   UNL     1      -7.667   4.118 125.127  0.00  0.00    +0.000 C 
BRANCH  30  33
ATOM     31  O   UNL     1      -8.853   2.690 122.039  0.00  0.00    +0.000 OA
ATOM     32  C   UNL     1      -8.679   2.702 123.262  0.00  0.00    +0.000 C 
ATOM     33  N   UNL     1      -7.972   3.794 123.743  0.00  0.00    +0.000 N 
ATOM     34  H   UNL     1      -7.697   4.415 122.990  0.00  0.00    +0.000 HD
BRANCH  32  35
ATOM     35  C   UNL     1      -9.247   1.561 124.199  0.00  0.00    +0.000 C 
BRANCH  35  36
ATOM     36  N   UNL     1      -8.715   0.167 124.051  0.00  0.00    +0.000 N 
ATOM     37  C   UNL     1      -7.603  -0.252 124.769  0.00  0.00    +0.000 A 
ATOM     38  C   UNL     1      -6.883  -1.330 124.426  0.00  0.00    +0.000 A 
ATOM     39  C   UNL     1      -7.435  -2.249 123.456  0.00  0.00    +0.000 A 
ATOM     40  C   UNL     1      -8.633  -2.006 122.907  0.00  0.00    +0.000 A 
ATOM     41  C   UNL     1      -9.287  -0.672 123.087  0.00  0.00    +0.000 A 
ATOM     42  O   UNL     1     -10.258  -0.380 122.394  0.00  0.00    +0.000 OA
BRANCH  38  43
ATOM     43  C   UNL     1      -5.541  -1.624 125.031  0.00  0.00    +0.000 C 
ATOM     44  F   UNL     1      -5.628  -2.535 126.033  0.00  0.00    +0.000 F 
ATOM     45  F   UNL     1      -4.682  -2.135 124.110  0.00  0.00    +0.000 F 
ATOM     46  F   UNL     1      -4.940  -0.524 125.552  0.00  0.00    +0.000 F 
ENDBRANCH  38  43
ENDBRANCH  35  36
ENDBRANCH  32  35
ENDBRANCH  30  33
ENDBRANCH   1  30
TORSDOF 7
ENDMDL
MODEL 2
REMARK VINA RESULT:     -11.3      4.878     10.563
REMARK  Name = CHEMBL30910
REMARK  7 active torsions:
REMARK  status: ('A' for Active; 'I' for Inactive)
REMARK    1  A    between atoms: C_2  and  C_3
REMARK    2  A    between atoms: C_3  and  N_4
REMARK    3  A    between atoms: C_6  and  C_7
REMARK    4  A    between atoms: N_15  and  C_16
REMARK    5  A    between atoms: C_16  and  C_17
REMARK    6  A    between atoms: C_21  and  C_22
REMARK    7  A    between atoms: C_27  and  N_28
REMARK                            x       y       z     vdW  Elec       q    Type
REMARK                         _______ _______ _______ _____ _____    ______ ____
ROOT
ATOM      1  C   UNL     1      -6.796   4.552 132.490  0.00  0.00    +0.000 A 
ATOM      2  C   UNL     1      -6.027   5.629 132.919  0.00  0.00    +0.000 A 
ATOM      3  C   UNL     1      -4.969   5.692 131.984  0.00  0.00    +0.000 A 
ATOM      4  C   UNL     1      -4.922   5.896 130.575  0.00  0.00    +0.000 A 
ATOM      5  C   UNL     1      -3.844   5.507 129.753  0.00  0.00    +0.000 A 
ATOM      6  C   UNL     1      -2.756   4.936 130.396  0.00  0.00    +0.000 A 
ATOM      7  C   UNL     1      -2.976   4.417 131.704  0.00  0.00    +0.000 A 
ATOM      8  C   UNL     1      -4.317   4.496 132.256  0.00  0.00    +0.000 A 
ATOM      9  O   UNL     1      -5.683   3.654 132.005  0.00  0.00    +0.000 OA
ENDROOT
BRANCH   5  10
ATOM     10  C   UNL     1      -3.945   5.529 128.248  0.00  0.00    +0.000 C 
ATOM     11  O   UNL     1      -3.174   6.254 127.618  0.00  0.00    +0.000 OA
ATOM     12  N   UNL     1      -4.818   4.601 127.624  0.00  0.00    +0.000 N 
ATOM     13  C   UNL     1      -4.315   3.590 126.690  0.00  0.00    +0.000 C 
ATOM     14  C   UNL     1      -5.213   3.456 125.449  0.00  0.00    +0.000 C 
ATOM     15  C   UNL     1      -6.868   2.885 125.830  0.00  0.00    +0.000 C 
ATOM     16  C   UNL     1      -7.162   4.309 126.779  0.00  0.00    +0.000 C 
ATOM     17  C   UNL     1      -6.228   4.432 127.986  0.00  0.00    +0.000 C 
BRANCH  15  18
ATOM     18  N   UNL     1      -7.498   1.125 125.915  0.00  0.00    +0.000 N 
ATOM     19  C   UNL     1      -8.112   1.570 124.656  0.00  0.00    +0.000 C 
ATOM     20  O   UNL     1      -8.657   2.658 124.314  0.00  0.00    +0.000 OA
ATOM     21  O   UNL     1      -7.781   0.779 123.663  0.00  0.00    +0.000 OA
ATOM     22  C   UNL     1      -8.980   0.141 123.445  0.00  0.00    +0.000 C 
ATOM     23  C   UNL     1      -8.684  -0.985 124.308  0.00  0.00    +0.000 A 
ATOM     24  C   UNL     1      -9.149  -2.267 123.544  0.00  0.00    +0.000 A 
ATOM     25  C   UNL     1      -8.910  -3.549 123.907  0.00  0.00    +0.000 A 
ATOM     26  C   UNL     1      -8.615  -3.510 125.245  0.00  0.00    +0.000 A 
ATOM     27  C   UNL     1      -8.240  -2.122 126.094  0.00  0.00    +0.000 A 
ATOM     28  F   UNL     1      -8.312  -2.482 127.399  0.00  0.00    +0.000 F 
ATOM     29  C   UNL     1      -8.045  -0.639 125.560  0.00  0.00    +0.000 A 
ENDBRANCH  15  18
ENDBRANCH   5  10
BRANCH   1  30
ATOM     30  C   UNL     1      -8.196   4.217 133.127  0.00  0.00    +0.000 C 
BRANCH  30  33
ATOM     31  O   UNL     1     -10.685   2.640 131.054  0.00  0.00    +0.000 OA
ATOM     32  C   UNL     1      -9.936   3.567 131.379  0.00  0.00    +0.000 C 
ATOM     33  N   UNL     1      -9.198   3.348 132.533  0.00  0.00    +0.000 N 
ATOM     34  H   UNL     1      -9.408   2.442 132.937  0.00  0.00    +0.000 HD
BRANCH  32  35
ATOM     35  C   UNL     1      -9.821   4.890 130.520  0.00  0.00    +0.000 C 
BRANCH  35  36
ATOM     36  N   UNL     1     -10.987   5.831 130.474  0.00  0.00    +0.000 N 
ATOM     37  C   UNL     1     -11.635   6.107 129.278  0.00  0.00    +0.000 A 
ATOM     38  C   UNL     1     -12.424   7.179 129.111  0.00  0.00    +0.000 A 
ATOM     39  C   UNL     1     -12.846   7.914 130.283  0.00  0.00    +0.000 A 
ATOM     40  C   UNL     1     -12.435   7.532 131.500  0.00  0.00    +0.000 A 
ATOM     41  C   UNL     1     -11.341   6.519 131.641  0.00  0.00    +0.000 A 
ATOM     42  O   UNL     1     -10.813   6.354 132.738  0.00  0.00    +0.000 OA
BRANCH  38  43
ATOM     43  C   UNL     1     -12.901   7.622 127.759  0.00  0.00    +0.000 C 
ATOM     44  F   UNL     1     -13.410   6.589 127.040  0.00  0.00    +0.000 F 
ATOM     45  F   UNL     1     -13.887   8.552 127.860  0.00  0.00    +0.000 F 
ATOM     46  F   UNL     1     -11.919   8.178 127.005  0.00  0.00    +0.000 F 
ENDBRANCH  38  43
ENDBRANCH  35  36
ENDBRANCH  32  35
ENDBRANCH  30  33
ENDBRANCH   1  30
TORSDOF 7
ENDMDL
MODEL 3
REMARK VINA RESULT:     -11.2      4.922      6.855
REMARK  Name = CHEMBL30910
REMARK  7 active torsions:
REMARK  status: ('A' for Active; 'I' for Inactive)
REMARK    1  A    between atoms: C_2  and  C_3
REMARK    2  A    between atoms: C_3  and  N_4
REMARK    3  A    between atoms: C_6  and  C_7
REMARK    4  A    between atoms: N_15  and  C_16
REMARK    5  A    between atoms: C_16  and  C_17
REMARK    6  A    between atoms: C_21  and  C_22
REMARK    7  A    between atoms: C_27  and  N_28
REMARK                            x       y       z     vdW  Elec       q    Type
REMARK                         _______ _______ _______ _____ _____    ______ ____
ROOT
ATOM      1  C   UNL     1      -7.418  -2.563 127.378  0.00  0.00    +0.000 A 
ATOM      2  C   UNL     1      -8.486  -2.909 128.198  0.00  0.00    +0.000 A 
ATOM      3  C   UNL     1      -8.025  -2.627 129.505  0.00  0.00    +0.000 A 
ATOM      4  C   UNL     1      -7.589  -1.434 130.149  0.00  0.00    +0.000 A 
ATOM      5  C   UNL     1      -6.771  -1.406 131.297  0.00  0.00    +0.000 A 
ATOM      6  C   UNL     1      -6.423  -2.636 131.834  0.00  0.00    +0.000 A 
ATOM      7  C   UNL     1      -6.550  -3.773 130.985  0.00  0.00    +0.000 A 
ATOM      8  C   UNL     1      -7.003  -3.562 129.621  0.00  0.00    +0.000 A 
ATOM      9  O   UNL     1      -6.286  -2.998 128.278  0.00  0.00    +0.000 OA
ENDROOT
BRANCH   5  10
ATOM     10  C   UNL     1      -6.147  -0.125 131.796  0.00  0.00    +0.000 C 
ATOM     11  O   UNL     1      -4.953  -0.133 132.095  0.00  0.00    +0.000 OA
ATOM     12  N   UNL     1      -6.928   1.058 131.752  0.00  0.00    +0.000 N 
ATOM     13  C   UNL     1      -6.516   2.213 130.949  0.00  0.00    +0.000 C 
ATOM     14  C   UNL     1      -6.705   3.537 131.706  0.00  0.00    +0.000 C 
ATOM     15  C   UNL     1      -8.417   3.891 132.100  0.00  0.00    +0.000 C 
ATOM     16  C   UNL     1      -8.500   2.474 133.100  0.00  0.00    +0.000 C 
ATOM     17  C   UNL     1      -8.272   1.175 132.323  0.00  0.00    +0.000 C 
BRANCH  15  18
ATOM     18  N   UNL     1      -9.675   4.824 131.076  0.00  0.00    +0.000 N 
ATOM     19  C   UNL     1      -8.685   5.883 131.317  0.00  0.00    +0.000 C 
ATOM     20  O   UNL     1      -8.009   6.201 132.336  0.00  0.00    +0.000 OA
ATOM     21  O   UNL     1      -8.260   6.397 130.186  0.00  0.00    +0.000 OA
ATOM     22  C   UNL     1      -8.861   7.633 130.235  0.00  0.00    +0.000 C 
ATOM     23  C   UNL     1     -10.038   7.232 129.492  0.00  0.00    +0.000 A 
ATOM     24  C   UNL     1     -10.331   8.376 128.467  0.00  0.00    +0.000 A 
ATOM     25  C   UNL     1     -11.236   8.341 127.462  0.00  0.00    +0.000 A 
ATOM     26  C   UNL     1     -12.126   7.353 127.794  0.00  0.00    +0.000 A 
ATOM     27  C   UNL     1     -11.870   6.203 128.976  0.00  0.00    +0.000 A 
ATOM     28  F   UNL     1     -13.082   5.630 129.175  0.00  0.00    +0.000 F 
ATOM     29  C   UNL     1     -10.575   5.937 129.857  0.00  0.00    +0.000 A 
ENDBRANCH  15  18
ENDBRANCH   5  10
BRANCH   1  30
ATOM     30  C   UNL     1      -7.543  -2.534 125.809  0.00  0.00    +0.000 C 
BRANCH  30  33
ATOM     31  O   UNL     1     -10.015  -3.335 123.312  0.00  0.00    +0.000 OA
ATOM     32  C   UNL     1      -9.032  -2.724 123.746  0.00  0.00    +0.000 C 
ATOM     33  N   UNL     1      -8.678  -3.035 125.051  0.00  0.00    +0.000 N 
ATOM     34  H   UNL     1      -9.307  -3.723 125.449  0.00  0.00    +0.000 HD
BRANCH  32  35
ATOM     35  C   UNL     1      -8.234  -1.686 122.860  0.00  0.00    +0.000 C 
BRANCH  35  36
ATOM     36  N   UNL     1      -8.337  -0.225 123.181  0.00  0.00    +0.000 N 
ATOM     37  C   UNL     1      -7.288   0.446 123.793  0.00  0.00    +0.000 A 
ATOM     38  C   UNL     1      -7.445   1.624 124.415  0.00  0.00    +0.000 A 
ATOM     39  C   UNL     1      -8.673   2.358 124.202  0.00  0.00    +0.000 A 
ATOM     40  C   UNL     1      -9.630   1.852 123.413  0.00  0.00    +0.000 A 
ATOM     41  C   UNL     1      -9.556   0.427 122.960  0.00  0.00    +0.000 A 
ATOM     42  O   UNL     1     -10.543  -0.091 122.443  0.00  0.00    +0.000 OA
BRANCH  38  43
ATOM     43  C   UNL     1      -6.384   2.213 125.299  0.00  0.00    +0.000 C 
ATOM     44  F   UNL     1      -5.405   1.316 125.576  0.00  0.00    +0.000 F 
ATOM     45  F   UNL     1      -5.783   3.280 124.710  0.00  0.00    +0.000 F 
ATOM     46  F   UNL     1      -6.867   2.648 126.490  0.00  0.00    +0.000 F 
ENDBRANCH  38  43
ENDBRANCH  35  36
ENDBRANCH  32  35
ENDBRANCH  30  33
ENDBRANCH   1  30
TORSDOF 7
ENDMDL
MODEL 4
REMARK VINA RESULT:     -10.9      4.834      7.244
REMARK  Name = CHEMBL30910
REMARK  7 active torsions:
REMARK  status: ('A' for Active; 'I' for Inactive)
REMARK    1  A    between atoms: C_2  and  C_3
REMARK    2  A    between atoms: C_3  and  N_4
REMARK    3  A    between atoms: C_6  and  C_7
REMARK    4  A    between atoms: N_15  and  C_16
REMARK    5  A    between atoms: C_16  and  C_17
REMARK    6  A    between atoms: C_21  and  C_22
REMARK    7  A    between atoms: C_27  and  N_28
REMARK                            x       y       z     vdW  Elec       q    Type
REMARK                         _______ _______ _______ _____ _____    ______ ____
ROOT
ATOM      1  C   UNL     1      -8.080  -2.475 127.416  0.00  0.00    +0.000 A 
ATOM      2  C   UNL     1      -8.523  -3.695 127.915  0.00  0.00    +0.000 A 
ATOM      3  C   UNL     1      -8.075  -3.702 129.256  0.00  0.00    +0.000 A 
ATOM      4  C   UNL     1      -8.337  -2.862 130.377  0.00  0.00    +0.000 A 
ATOM      5  C   UNL     1      -7.494  -2.755 131.501  0.00  0.00    +0.000 A 
ATOM      6  C   UNL     1      -6.369  -3.566 131.506  0.00  0.00    +0.000 A 
ATOM      7  C   UNL     1      -5.947  -4.095 130.253  0.00  0.00    +0.000 A 
ATOM      8  C   UNL     1      -6.699  -3.728 129.066  0.00  0.00    +0.000 A 
ATOM      9  O   UNL     1      -6.765  -2.388 128.152  0.00  0.00    +0.000 OA
ENDROOT
BRANCH   5  10
ATOM     10  C   UNL     1      -7.693  -1.681 132.544  0.00  0.00    +0.000 C 
ATOM     11  O   UNL     1      -7.871  -2.025 133.713  0.00  0.00    +0.000 OA
ATOM     12  N   UNL     1      -7.515  -0.329 132.152  0.00  0.00    +0.000 N 
ATOM     13  C   UNL     1      -6.482   0.511 132.765  0.00  0.00    +0.000 C 
ATOM     14  C   UNL     1      -7.006   1.919 133.092  0.00  0.00    +0.000 C 
ATOM     15  C   UNL     1      -7.495   2.849 131.640  0.00  0.00    +0.000 C 
ATOM     16  C   UNL     1      -8.735   1.685 131.288  0.00  0.00    +0.000 C 
ATOM     17  C   UNL     1      -8.183   0.286 131.003  0.00  0.00    +0.000 C 
BRANCH  15  18
ATOM     18  N   UNL     1      -6.448   3.980 130.579  0.00  0.00    +0.000 N 
ATOM     19  C   UNL     1      -7.177   4.967 131.387  0.00  0.00    +0.000 C 
ATOM     20  O   UNL     1      -8.377   5.030 131.776  0.00  0.00    +0.000 OA
ATOM     21  O   UNL     1      -6.347   5.765 132.019  0.00  0.00    +0.000 OA
ATOM     22  C   UNL     1      -6.543   6.931 131.316  0.00  0.00    +0.000 C 
ATOM     23  C   UNL     1      -5.456   6.704 130.385  0.00  0.00    +0.000 A 
ATOM     24  C   UNL     1      -4.700   8.064 130.239  0.00  0.00    +0.000 A 
ATOM     25  C   UNL     1      -3.524   8.265 129.601  0.00  0.00    +0.000 A 
ATOM     26  C   UNL     1      -3.375   7.202 128.749  0.00  0.00    +0.000 A 
ATOM     27  C   UNL     1      -4.268   5.794 128.823  0.00  0.00    +0.000 A 
ATOM     28  F   UNL     1      -4.014   5.158 127.652  0.00  0.00    +0.000 F 
ATOM     29  C   UNL     1      -5.352   5.345 129.894  0.00  0.00    +0.000 A 
ENDBRANCH  15  18
ENDBRANCH   5  10
BRANCH   1  30
ATOM     30  C   UNL     1      -8.512  -1.945 125.997  0.00  0.00    +0.000 C 
BRANCH  30  33
ATOM     31  O   UNL     1      -9.724   1.294 124.987  0.00  0.00    +0.000 OA
ATOM     32  C   UNL     1      -8.855   0.425 125.119  0.00  0.00    +0.000 C 
ATOM     33  N   UNL     1      -9.278  -0.734 125.754  0.00  0.00    +0.000 N 
ATOM     34  H   UNL     1     -10.253  -0.671 126.022  0.00  0.00    +0.000 HD
BRANCH  32  35
ATOM     35  C   UNL     1      -7.383   0.626 124.579  0.00  0.00    +0.000 C 
BRANCH  35  36
ATOM     36  N   UNL     1      -6.882   2.017 124.333  0.00  0.00    +0.000 N 
ATOM     37  C   UNL     1      -6.776   2.519 123.043  0.00  0.00    +0.000 A 
ATOM     38  C   UNL     1      -6.020   3.586 122.740  0.00  0.00    +0.000 A 
ATOM     39  C   UNL     1      -5.528   4.411 123.820  0.00  0.00    +0.000 A 
ATOM     40  C   UNL     1      -5.813   4.096 125.091  0.00  0.00    +0.000 A 
ATOM     41  C   UNL     1      -6.410   2.763 125.420  0.00  0.00    +0.000 A 
ATOM     42  O   UNL     1      -6.446   2.393 126.591  0.00  0.00    +0.000 OA
BRANCH  38  43
ATOM     43  C   UNL     1      -5.693   3.960 121.324  0.00  0.00    +0.000 C 
ATOM     44  F   UNL     1      -5.114   2.934 120.652  0.00  0.00    +0.000 F 
ATOM     45  F   UNL     1      -6.811   4.302 120.630  0.00  0.00    +0.000 F 
ATOM     46  F   UNL     1      -4.844   5.016 121.236  0.00  0.00    +0.000 F 
ENDBRANCH  38  43
ENDBRANCH  35  36
ENDBRANCH  32  35
ENDBRANCH  30  33
ENDBRANCH   1  30
TORSDOF 7
ENDMDL
MODEL 5
REMARK VINA RESULT:     -10.7      4.172      6.922
REMARK  Name = CHEMBL30910
REMARK  7 active torsions:
REMARK  status: ('A' for Active; 'I' for Inactive)
REMARK    1  A    between atoms: C_2  and  C_3
REMARK    2  A    between atoms: C_3  and  N_4
REMARK    3  A    between atoms: C_6  and  C_7
REMARK    4  A    between atoms: N_15  and  C_16
REMARK    5  A    between atoms: C_16  and  C_17
REMARK    6  A    between atoms: C_21  and  C_22
REMARK    7  A    between atoms: C_27  and  N_28
REMARK                            x       y       z     vdW  Elec       q    Type
REMARK                         _______ _______ _______ _____ _____    ______ ____
ROOT
ATOM      1  C   UNL     1      -7.864   1.019 125.027  0.00  0.00    +0.000 A 
ATOM      2  C   UNL     1      -9.091   0.773 125.633  0.00  0.00    +0.000 A 
ATOM      3  C   UNL     1      -8.848  -0.345 126.464  0.00  0.00    +0.000 A 
ATOM      4  C   UNL     1      -7.973  -0.571 127.566  0.00  0.00    +0.000 A 
ATOM      5  C   UNL     1      -7.552  -1.846 127.995  0.00  0.00    +0.000 A 
ATOM      6  C   UNL     1      -8.078  -2.930 127.309  0.00  0.00    +0.000 A 
ATOM      7  C   UNL     1      -8.630  -2.676 126.021  0.00  0.00    +0.000 A 
ATOM      8  C   UNL     1      -8.578  -1.318 125.510  0.00  0.00    +0.000 A 
ATOM      9  O   UNL     1      -7.397  -0.409 124.866  0.00  0.00    +0.000 OA
ENDROOT
BRANCH   5  10
ATOM     10  C   UNL     1      -6.446  -2.017 129.008  0.00  0.00    +0.000 C 
ATOM     11  O   UNL     1      -5.798  -3.064 128.997  0.00  0.00    +0.000 OA
ATOM     12  N   UNL     1      -6.107  -0.905 129.820  0.00  0.00    +0.000 N 
ATOM     13  C   UNL     1      -4.769  -0.309 129.777  0.00  0.00    +0.000 C 
ATOM     14  C   UNL     1      -4.237   0.014 131.182  0.00  0.00    +0.000 C 
ATOM     15  C   UNL     1      -5.214   1.244 132.045  0.00  0.00    +0.000 C 
ATOM     16  C   UNL     1      -6.594   0.191 132.024  0.00  0.00    +0.000 C 
ATOM     17  C   UNL     1      -7.077  -0.141 130.609  0.00  0.00    +0.000 C 
BRANCH  15  18
ATOM     18  N   UNL     1      -5.010   3.104 132.036  0.00  0.00    +0.000 N 
ATOM     19  C   UNL     1      -4.285   2.759 133.267  0.00  0.00    +0.000 C 
ATOM     20  O   UNL     1      -4.522   1.930 134.191  0.00  0.00    +0.000 OA
ATOM     21  O   UNL     1      -3.055   3.216 133.234  0.00  0.00    +0.000 OA
ATOM     22  C   UNL     1      -3.143   4.230 134.160  0.00  0.00    +0.000 C 
ATOM     23  C   UNL     1      -3.445   5.263 133.190  0.00  0.00    +0.000 A 
ATOM     24  C   UNL     1      -2.579   6.506 133.576  0.00  0.00    +0.000 A 
ATOM     25  C   UNL     1      -2.421   7.633 132.844  0.00  0.00    +0.000 A 
ATOM     26  C   UNL     1      -3.484   7.669 131.980  0.00  0.00    +0.000 A 
ATOM     27  C   UNL     1      -4.490   6.377 131.658  0.00  0.00    +0.000 A 
ATOM     28  F   UNL     1      -5.548   6.914 131.002  0.00  0.00    +0.000 F 
ATOM     29  C   UNL     1      -4.390   4.875 132.164  0.00  0.00    +0.000 A 
ENDBRANCH  15  18
ENDBRANCH   5  10
BRANCH   1  30
ATOM     30  C   UNL     1      -7.607   2.299 124.148  0.00  0.00    +0.000 C 
BRANCH  30  33
ATOM     31  O   UNL     1      -7.147   5.667 125.345  0.00  0.00    +0.000 OA
ATOM     32  C   UNL     1      -6.766   4.524 125.072  0.00  0.00    +0.000 C 
ATOM     33  N   UNL     1      -7.756   3.671 124.605  0.00  0.00    +0.000 N 
ATOM     34  H   UNL     1      -8.656   4.136 124.574  0.00  0.00    +0.000 HD
BRANCH  32  35
ATOM     35  C   UNL     1      -5.254   4.087 125.227  0.00  0.00    +0.000 C 
BRANCH  35  36
ATOM     36  N   UNL     1      -4.617   4.142 126.583  0.00  0.00    +0.000 N 
ATOM     37  C   UNL     1      -4.135   5.338 127.097  0.00  0.00    +0.000 A 
ATOM     38  C   UNL     1      -3.259   5.391 128.111  0.00  0.00    +0.000 A 
ATOM     39  C   UNL     1      -3.024   4.191 128.882  0.00  0.00    +0.000 A 
ATOM     40  C   UNL     1      -3.660   3.054 128.568  0.00  0.00    +0.000 A 
ATOM     41  C   UNL     1      -4.408   2.943 127.276  0.00  0.00    +0.000 A 
ATOM     42  O   UNL     1      -4.782   1.838 126.890  0.00  0.00    +0.000 OA
BRANCH  38  43
ATOM     43  C   UNL     1      -2.539   6.654 128.484  0.00  0.00    +0.000 C 
ATOM     44  F   UNL     1      -1.732   7.089 127.484  0.00  0.00    +0.000 F 
ATOM     45  F   UNL     1      -3.411   7.663 128.751  0.00  0.00    +0.000 F 
ATOM     46  F   UNL     1      -1.759   6.516 129.586  0.00  0.00    +0.000 F 
ENDBRANCH  38  43
ENDBRANCH  35  36
ENDBRANCH  32  35
ENDBRANCH  30  33
ENDBRANCH   1  30
TORSDOF 7
ENDMDL
MODEL 6
REMARK VINA RESULT:     -10.7      4.303      8.866
REMARK  Name = CHEMBL30910
REMARK  7 active torsions:
REMARK  status: ('A' for Active; 'I' for Inactive)
REMARK    1  A    between atoms: C_2  and  C_3
REMARK    2  A    between atoms: C_3  and  N_4
REMARK    3  A    between atoms: C_6  and  C_7
REMARK    4  A    between atoms: N_15  and  C_16
REMARK    5  A    between atoms: C_16  and  C_17
REMARK    6  A    between atoms: C_21  and  C_22
REMARK    7  A    between atoms: C_27  and  N_28
REMARK                            x       y       z     vdW  Elec       q    Type
REMARK                         _______ _______ _______ _____ _____    ______ ____
ROOT
ATOM      1  C   UNL     1      -7.233  -2.381 130.860  0.00  0.00    +0.000 A 
ATOM      2  C   UNL     1      -6.663  -3.471 130.210  0.00  0.00    +0.000 A 
ATOM      3  C   UNL     1      -7.123  -3.357 128.878  0.00  0.00    +0.000 A 
ATOM      4  C   UNL     1      -6.970  -2.358 127.875  0.00  0.00    +0.000 A 
ATOM      5  C   UNL     1      -7.834  -2.204 126.771  0.00  0.00    +0.000 A 
ATOM      6  C   UNL     1      -8.861  -3.129 126.660  0.00  0.00    +0.000 A 
ATOM      7  C   UNL     1      -9.206  -3.857 127.835  0.00  0.00    +0.000 A 
ATOM      8  C   UNL     1      -8.485  -3.561 129.060  0.00  0.00    +0.000 A 
ATOM      9  O   UNL     1      -8.559  -2.350 130.138  0.00  0.00    +0.000 OA
ENDROOT
BRANCH   5  10
ATOM     10  C   UNL     1      -7.767  -0.991 125.874  0.00  0.00    +0.000 C 
ATOM     11  O   UNL     1      -8.476  -0.967 124.868  0.00  0.00    +0.000 OA
ATOM     12  N   UNL     1      -7.008   0.123 126.315  0.00  0.00    +0.000 N 
ATOM     13  C   UNL     1      -7.635   1.428 126.545  0.00  0.00    +0.000 C 
ATOM     14  C   UNL     1      -6.786   2.581 125.985  0.00  0.00    +0.000 C 
ATOM     15  C   UNL     1      -5.188   2.738 126.781  0.00  0.00    +0.000 C 
ATOM     16  C   UNL     1      -4.728   1.163 126.212  0.00  0.00    +0.000 C 
ATOM     17  C   UNL     1      -5.615   0.042 126.759  0.00  0.00    +0.000 C 
BRANCH  15  18
ATOM     18  N   UNL     1      -4.738   3.746 128.292  0.00  0.00    +0.000 N 
ATOM     19  C   UNL     1      -4.103   4.546 127.235  0.00  0.00    +0.000 C 
ATOM     20  O   UNL     1      -3.456   4.225 126.198  0.00  0.00    +0.000 OA
ATOM     21  O   UNL     1      -4.529   5.787 127.262  0.00  0.00    +0.000 OA
ATOM     22  C   UNL     1      -3.404   6.424 127.733  0.00  0.00    +0.000 C 
ATOM     23  C   UNL     1      -3.798   6.365 129.125  0.00  0.00    +0.000 A 
ATOM     24  C   UNL     1      -3.478   7.767 129.740  0.00  0.00    +0.000 A 
ATOM     25  C   UNL     1      -3.839   8.207 130.967  0.00  0.00    +0.000 A 
ATOM     26  C   UNL     1      -4.107   7.083 131.704  0.00  0.00    +0.000 A 
ATOM     27  C   UNL     1      -4.325   5.558 131.062  0.00  0.00    +0.000 A 
ATOM     28  F   UNL     1      -4.269   4.720 132.127  0.00  0.00    +0.000 F 
ATOM     29  C   UNL     1      -4.378   5.105 129.540  0.00  0.00    +0.000 A 
ENDBRANCH  15  18
ENDBRANCH   5  10
BRANCH   1  30
ATOM     30  C   UNL     1      -6.846  -1.991 132.336  0.00  0.00    +0.000 C 
BRANCH  30  33
ATOM     31  O   UNL     1      -5.041   0.981 133.279  0.00  0.00    +0.000 OA
ATOM     32  C   UNL     1      -6.045   0.361 132.912  0.00  0.00    +0.000 C 
ATOM     33  N   UNL     1      -5.852  -0.997 132.705  0.00  0.00    +0.000 N 
ATOM     34  H   UNL     1      -4.890  -1.263 132.883  0.00  0.00    +0.000 HD
BRANCH  32  35
ATOM     35  C   UNL     1      -7.443   1.073 132.721  0.00  0.00    +0.000 C 
BRANCH  35  36
ATOM     36  N   UNL     1      -7.540   2.249 131.796  0.00  0.00    +0.000 N 
ATOM     37  C   UNL     1      -7.393   3.545 132.272  0.00  0.00    +0.000 A 
ATOM     38  C   UNL     1      -7.814   4.620 131.589  0.00  0.00    +0.000 A 
ATOM     39  C   UNL     1      -8.171   4.457 130.198  0.00  0.00    +0.000 A 
ATOM     40  C   UNL     1      -8.096   3.250 129.622  0.00  0.00    +0.000 A 
ATOM     41  C   UNL     1      -7.899   2.026 130.461  0.00  0.00    +0.000 A 
ATOM     42  O   UNL     1      -8.068   0.918 129.958  0.00  0.00    +0.000 OA
BRANCH  38  43
ATOM     43  C   UNL     1      -7.901   5.983 132.213  0.00  0.00    +0.000 C 
ATOM     44  F   UNL     1      -7.313   6.016 133.435  0.00  0.00    +0.000 F 
ATOM     45  F   UNL     1      -7.276   6.918 131.451  0.00  0.00    +0.000 F 
ATOM     46  F   UNL     1      -9.178   6.410 132.381  0.00  0.00    +0.000 F 
ENDBRANCH  38  43
ENDBRANCH  35  36
ENDBRANCH  32  35
ENDBRANCH  30  33
ENDBRANCH   1  30
TORSDOF 7
ENDMDL
MODEL 7
REMARK VINA RESULT:     -10.6      4.058      9.618
REMARK  Name = CHEMBL30910
REMARK  7 active torsions:
REMARK  status: ('A' for Active; 'I' for Inactive)
REMARK    1  A    between atoms: C_2  and  C_3
REMARK    2  A    between atoms: C_3  and  N_4
REMARK    3  A    between atoms: C_6  and  C_7
REMARK    4  A    between atoms: N_15  and  C_16
REMARK    5  A    between atoms: C_16  and  C_17
REMARK    6  A    between atoms: C_21  and  C_22
REMARK    7  A    between atoms: C_27  and  N_28
REMARK                            x       y       z     vdW  Elec       q    Type
REMARK                         _______ _______ _______ _____ _____    ______ ____
ROOT
ATOM      1  C   UNL     1      -6.171   3.989 133.381  0.00  0.00    +0.000 A 
ATOM      2  C   UNL     1      -5.591   5.132 133.922  0.00  0.00    +0.000 A 
ATOM      3  C   UNL     1      -4.734   5.600 132.899  0.00  0.00    +0.000 A 
ATOM      4  C   UNL     1      -4.958   6.040 131.562  0.00  0.00    +0.000 A 
ATOM      5  C   UNL     1      -3.968   6.062 130.559  0.00  0.00    +0.000 A 
ATOM      6  C   UNL     1      -2.695   5.668 130.943  0.00  0.00    +0.000 A 
ATOM      7  C   UNL     1      -2.587   4.902 132.138  0.00  0.00    +0.000 A 
ATOM      8  C   UNL     1      -3.808   4.566 132.849  0.00  0.00    +0.000 A 
ATOM      9  O   UNL     1      -4.985   3.477 132.600  0.00  0.00    +0.000 OA
ENDROOT
BRANCH   5  10
ATOM     10  C   UNL     1      -4.312   6.308 129.110  0.00  0.00    +0.000 C 
ATOM     11  O   UNL     1      -4.002   7.390 128.610  0.00  0.00    +0.000 OA
ATOM     12  N   UNL     1      -4.837   5.227 128.356  0.00  0.00    +0.000 N 
ATOM     13  C   UNL     1      -4.135   4.706 127.180  0.00  0.00    +0.000 C 
ATOM     14  C   UNL     1      -5.095   4.432 126.011  0.00  0.00    +0.000 C 
ATOM     15  C   UNL     1      -6.305   3.161 126.371  0.00  0.00    +0.000 C 
ATOM     16  C   UNL     1      -6.979   4.135 127.641  0.00  0.00    +0.000 C 
ATOM     17  C   UNL     1      -5.987   4.421 128.771  0.00  0.00    +0.000 C 
BRANCH  15  18
ATOM     18  N   UNL     1      -6.168   1.315 126.095  0.00  0.00    +0.000 N 
ATOM     19  C   UNL     1      -6.996   1.699 124.944  0.00  0.00    +0.000 C 
ATOM     20  O   UNL     1      -7.955   2.512 124.818  0.00  0.00    +0.000 OA
ATOM     21  O   UNL     1      -6.446   1.312 123.817  0.00  0.00    +0.000 OA
ATOM     22  C   UNL     1      -7.300   0.294 123.461  0.00  0.00    +0.000 C 
ATOM     23  C   UNL     1      -6.517  -0.753 124.086  0.00  0.00    +0.000 A 
ATOM     24  C   UNL     1      -6.480  -1.946 123.076  0.00  0.00    +0.000 A 
ATOM     25  C   UNL     1      -5.722  -3.062 123.178  0.00  0.00    +0.000 A 
ATOM     26  C   UNL     1      -5.374  -3.157 124.501  0.00  0.00    +0.000 A 
ATOM     27  C   UNL     1      -5.529  -1.923 125.614  0.00  0.00    +0.000 A 
ATOM     28  F   UNL     1      -5.358  -2.518 126.820  0.00  0.00    +0.000 F 
ATOM     29  C   UNL     1      -5.985  -0.418 125.390  0.00  0.00    +0.000 A 
ENDBRANCH  15  18
ENDBRANCH   5  10
BRANCH   1  30
ATOM     30  C   UNL     1      -7.347   3.228 134.100  0.00  0.00    +0.000 C 
BRANCH  30  33
ATOM     31  O   UNL     1      -9.930   1.770 132.054  0.00  0.00    +0.000 OA
ATOM     32  C   UNL     1      -8.756   2.009 132.358  0.00  0.00    +0.000 C 
ATOM     33  N   UNL     1      -8.592   2.825 133.468  0.00  0.00    +0.000 N 
ATOM     34  H   UNL     1      -9.487   3.107 133.852  0.00  0.00    +0.000 HD
BRANCH  32  35
ATOM     35  C   UNL     1      -7.542   1.403 131.546  0.00  0.00    +0.000 C 
BRANCH  35  36
ATOM     36  N   UNL     1      -7.333  -0.082 131.551  0.00  0.00    +0.000 N 
ATOM     37  C   UNL     1      -7.434  -0.821 130.381  0.00  0.00    +0.000 A 
ATOM     38  C   UNL     1      -7.611  -2.150 130.376  0.00  0.00    +0.000 A 
ATOM     39  C   UNL     1      -7.406  -2.878 131.608  0.00  0.00    +0.000 A 
ATOM     40  C   UNL     1      -7.065  -2.224 132.726  0.00  0.00    +0.000 A 
ATOM     41  C   UNL     1      -7.148  -0.730 132.779  0.00  0.00    +0.000 A 
ATOM     42  O   UNL     1      -7.064  -0.161 133.864  0.00  0.00    +0.000 OA
BRANCH  38  43
ATOM     43  C   UNL     1      -7.988  -2.905 129.134  0.00  0.00    +0.000 C 
ATOM     44  F   UNL     1      -9.206  -3.492 129.252  0.00  0.00    +0.000 F 
ATOM     45  F   UNL     1      -8.053  -2.082 128.053  0.00  0.00    +0.000 F 
ATOM     46  F   UNL     1      -7.107  -3.888 128.820  0.00  0.00    +0.000 F 
ENDBRANCH  38  43
ENDBRANCH  35  36
ENDBRANCH  32  35
ENDBRANCH  30  33
ENDBRANCH   1  30
TORSDOF 7
ENDMDL
MODEL 8
REMARK VINA RESULT:     -10.6      4.203     10.470
REMARK  Name = CHEMBL30910
REMARK  7 active torsions:
REMARK  status: ('A' for Active; 'I' for Inactive)
REMARK    1  A    between atoms: C_2  and  C_3
REMARK    2  A    between atoms: C_3  and  N_4
REMARK    3  A    between atoms: C_6  and  C_7
REMARK    4  A    between atoms: N_15  and  C_16
REMARK    5  A    between atoms: C_16  and  C_17
REMARK    6  A    between atoms: C_21  and  C_22
REMARK    7  A    between atoms: C_27  and  N_28
REMARK                            x       y       z     vdW  Elec       q    Type
REMARK                         _______ _______ _______ _____ _____    ______ ____
ROOT
ATOM      1  C   UNL     1      -5.718   3.439 133.197  0.00  0.00    +0.000 A 
ATOM      2  C   UNL     1      -5.269   4.570 133.871  0.00  0.00    +0.000 A 
ATOM      3  C   UNL     1      -4.187   5.032 133.086  0.00  0.00    +0.000 A 
ATOM      4  C   UNL     1      -4.080   5.483 131.739  0.00  0.00    +0.000 A 
ATOM      5  C   UNL     1      -2.880   5.498 131.001  0.00  0.00    +0.000 A 
ATOM      6  C   UNL     1      -1.740   5.083 131.672  0.00  0.00    +0.000 A 
ATOM      7  C   UNL     1      -1.930   4.307 132.852  0.00  0.00    +0.000 A 
ATOM      8  C   UNL     1      -3.289   3.985 133.248  0.00  0.00    +0.000 A 
ATOM      9  O   UNL     1      -4.386   2.914 132.715  0.00  0.00    +0.000 OA
ENDROOT
BRANCH   5  10
ATOM     10  C   UNL     1      -2.865   5.758 129.514  0.00  0.00    +0.000 C 
ATOM     11  O   UNL     1      -2.173   6.683 129.087  0.00  0.00    +0.000 OA
ATOM     12  N   UNL     1      -3.528   4.832 128.668  0.00  0.00    +0.000 N 
ATOM     13  C   UNL     1      -2.798   4.077 127.645  0.00  0.00    +0.000 C 
ATOM     14  C   UNL     1      -3.563   4.025 126.313  0.00  0.00    +0.000 C 
ATOM     15  C   UNL     1      -5.130   3.165 126.428  0.00  0.00    +0.000 C 
ATOM     16  C   UNL     1      -5.721   4.350 127.550  0.00  0.00    +0.000 C 
ATOM     17  C   UNL     1      -4.916   4.402 128.851  0.00  0.00    +0.000 C 
BRANCH  15  18
ATOM     18  N   UNL     1      -5.476   1.343 126.174  0.00  0.00    +0.000 N 
ATOM     19  C   UNL     1      -6.495   1.936 125.296  0.00  0.00    +0.000 C 
ATOM     20  O   UNL     1      -7.252   2.939 125.427  0.00  0.00    +0.000 OA
ATOM     21  O   UNL     1      -6.383   1.481 124.070  0.00  0.00    +0.000 OA
ATOM     22  C   UNL     1      -7.500   0.682 124.000  0.00  0.00    +0.000 C 
ATOM     23  C   UNL     1      -6.817  -0.529 124.403  0.00  0.00    +0.000 A 
ATOM     24  C   UNL     1      -7.324  -1.666 123.456  0.00  0.00    +0.000 A 
ATOM     25  C   UNL     1      -6.826  -2.920 123.369  0.00  0.00    +0.000 A 
ATOM     26  C   UNL     1      -6.146  -3.135 124.540  0.00  0.00    +0.000 A 
ATOM     27  C   UNL     1      -5.710  -1.937 125.617  0.00  0.00    +0.000 A 
ATOM     28  F   UNL     1      -5.336  -2.598 126.741  0.00  0.00    +0.000 F 
ATOM     29  C   UNL     1      -5.877  -0.363 125.492  0.00  0.00    +0.000 A 
ENDBRANCH  15  18
ENDBRANCH   5  10
BRANCH   1  30
ATOM     30  C   UNL     1      -7.041   2.691 133.608  0.00  0.00    +0.000 C 
BRANCH  30  33
ATOM     31  O   UNL     1      -9.969   2.681 131.507  0.00  0.00    +0.000 OA
ATOM     32  C   UNL     1      -9.203   3.173 132.343  0.00  0.00    +0.000 C 
ATOM     33  N   UNL     1      -8.133   2.367 132.705  0.00  0.00    +0.000 N 
ATOM     34  H   UNL     1      -8.162   1.478 132.219  0.00  0.00    +0.000 HD
BRANCH  32  35
ATOM     35  C   UNL     1      -9.427   4.624 132.929  0.00  0.00    +0.000 C 
BRANCH  35  36
ATOM     36  N   UNL     1      -9.675   5.760 131.982  0.00  0.00    +0.000 N 
ATOM     37  C   UNL     1     -10.956   6.258 131.785  0.00  0.00    +0.000 A 
ATOM     38  C   UNL     1     -11.288   7.003 130.721  0.00  0.00    +0.000 A 
ATOM     39  C   UNL     1     -10.228   7.546 129.901  0.00  0.00    +0.000 A 
ATOM     40  C   UNL     1      -8.948   7.288 130.200  0.00  0.00    +0.000 A 
ATOM     41  C   UNL     1      -8.609   6.236 131.210  0.00  0.00    +0.000 A 
ATOM     42  O   UNL     1      -7.448   5.844 131.302  0.00  0.00    +0.000 OA
BRANCH  38  43
ATOM     43  C   UNL     1     -12.715   7.310 130.370  0.00  0.00    +0.000 C 
ATOM     44  F   UNL     1     -13.187   6.479 129.407  0.00  0.00    +0.000 F 
ATOM     45  F   UNL     1     -13.533   7.166 131.447  0.00  0.00    +0.000 F 
ATOM     46  F   UNL     1     -12.891   8.577 129.916  0.00  0.00    +0.000 F 
ENDBRANCH  38  43
ENDBRANCH  35  36
ENDBRANCH  32  35
ENDBRANCH  30  33
ENDBRANCH   1  30
TORSDOF 7
ENDMDL
MODEL 9
REMARK VINA RESULT:     -10.6      4.003      9.525
REMARK  Name = CHEMBL30910
REMARK  7 active torsions:
REMARK  status: ('A' for Active; 'I' for Inactive)
REMARK    1  A    between atoms: C_2  and  C_3
REMARK    2  A    between atoms: C_3  and  N_4
REMARK    3  A    between atoms: C_6  and  C_7
REMARK    4  A    between atoms: N_15  and  C_16
REMARK    5  A    between atoms: C_16  and  C_17
REMARK    6  A    between atoms: C_21  and  C_22
REMARK    7  A    between atoms: C_27  and  N_28
REMARK                            x       y       z     vdW  Elec       q    Type
REMARK                         _______ _______ _______ _____ _____    ______ ____
ROOT
ATOM      1  C   UNL     1      -5.125   4.747 133.600  0.00  0.00    +0.000 A 
ATOM      2  C   UNL     1      -4.852   6.109 133.671  0.00  0.00    +0.000 A 
ATOM      3  C   UNL     1      -3.917   6.328 132.634  0.00  0.00    +0.000 A 
ATOM      4  C   UNL     1      -3.969   6.155 131.220  0.00  0.00    +0.000 A 
ATOM      5  C   UNL     1      -2.833   6.013 130.397  0.00  0.00    +0.000 A 
ATOM      6  C   UNL     1      -1.602   6.097 131.029  0.00  0.00    +0.000 A 
ATOM      7  C   UNL     1      -1.582   5.897 132.439  0.00  0.00    +0.000 A 
ATOM      8  C   UNL     1      -2.836   5.594 133.105  0.00  0.00    +0.000 A 
ATOM      9  O   UNL     1      -3.749   4.256 133.218  0.00  0.00    +0.000 OA
ENDROOT
BRANCH   5  10
ATOM     10  C   UNL     1      -2.949   5.597 128.951  0.00  0.00    +0.000 C 
ATOM     11  O   UNL     1      -2.132   6.044 128.145  0.00  0.00    +0.000 OA
ATOM     12  N   UNL     1      -3.897   4.595 128.619  0.00  0.00    +0.000 N 
ATOM     13  C   UNL     1      -3.481   3.319 128.030  0.00  0.00    +0.000 C 
ATOM     14  C   UNL     1      -4.400   2.893 126.873  0.00  0.00    +0.000 C 
ATOM     15  C   UNL     1      -6.089   2.586 127.385  0.00  0.00    +0.000 C 
ATOM     16  C   UNL     1      -6.264   4.245 127.868  0.00  0.00    +0.000 C 
ATOM     17  C   UNL     1      -5.311   4.647 128.996  0.00  0.00    +0.000 C 
BRANCH  15  18
ATOM     18  N   UNL     1      -6.850   0.983 127.977  0.00  0.00    +0.000 N 
ATOM     19  C   UNL     1      -7.459   1.094 126.644  0.00  0.00    +0.000 C 
ATOM     20  O   UNL     1      -7.928   2.076 126.002  0.00  0.00    +0.000 OA
ATOM     21  O   UNL     1      -7.214   0.024 125.923  0.00  0.00    +0.000 OA
ATOM     22  C   UNL     1      -8.464  -0.550 125.901  0.00  0.00    +0.000 C 
ATOM     23  C   UNL     1      -8.235  -1.398 127.053  0.00  0.00    +0.000 A 
ATOM     24  C   UNL     1      -8.815  -2.805 126.695  0.00  0.00    +0.000 A 
ATOM     25  C   UNL     1      -8.667  -3.942 127.413  0.00  0.00    +0.000 A 
ATOM     26  C   UNL     1      -8.337  -3.541 128.682  0.00  0.00    +0.000 A 
ATOM     27  C   UNL     1      -7.836  -2.003 129.092  0.00  0.00    +0.000 A 
ATOM     28  F   UNL     1      -7.902  -1.963 130.445  0.00  0.00    +0.000 F 
ATOM     29  C   UNL     1      -7.540  -0.758 128.151  0.00  0.00    +0.000 A 
ENDBRANCH  15  18
ENDBRANCH   5  10
BRANCH   1  30
ATOM     30  C   UNL     1      -6.265   4.076 134.454  0.00  0.00    +0.000 C 
BRANCH  30  33
ATOM     31  O   UNL     1      -6.946   0.628 133.661  0.00  0.00    +0.000 OA
ATOM     32  C   UNL     1      -6.747   1.814 133.378  0.00  0.00    +0.000 C 
ATOM     33  N   UNL     1      -6.575   2.656 134.467  0.00  0.00    +0.000 N 
ATOM     34  H   UNL     1      -6.653   2.147 135.341  0.00  0.00    +0.000 HD
BRANCH  32  35
ATOM     35  C   UNL     1      -6.675   2.315 131.880  0.00  0.00    +0.000 C 
BRANCH  35  36
ATOM     36  N   UNL     1      -7.874   2.984 131.278  0.00  0.00    +0.000 N 
ATOM     37  C   UNL     1      -7.991   4.367 131.271  0.00  0.00    +0.000 A 
ATOM     38  C   UNL     1      -9.161   4.994 131.083  0.00  0.00    +0.000 A 
ATOM     39  C   UNL     1     -10.284   4.227 130.590  0.00  0.00    +0.000 A 
ATOM     40  C   UNL     1     -10.148   2.916 130.348  0.00  0.00    +0.000 A 
ATOM     41  C   UNL     1      -8.932   2.185 130.826  0.00  0.00    +0.000 A 
ATOM     42  O   UNL     1      -8.924   0.957 130.812  0.00  0.00    +0.000 OA
BRANCH  38  43
ATOM     43  C   UNL     1      -9.336   6.463 131.342  0.00  0.00    +0.000 C 
ATOM     44  F   UNL     1     -10.186   7.034 130.452  0.00  0.00    +0.000 F 
ATOM     45  F   UNL     1      -9.851   6.691 132.579  0.00  0.00    +0.000 F 
ATOM     46  F   UNL     1      -8.171   7.157 131.273  0.00  0.00    +0.000 F 
ENDBRANCH  38  43
ENDBRANCH  35  36
ENDBRANCH  32  35
ENDBRANCH  30  33
ENDBRANCH   1  30
TORSDOF 7
ENDMDL
