MODEL 1
REMARK VINA RESULT:      -8.1      0.000      0.000
REMARK  Name = CHEMBL382518
REMARK  11 active torsions:
REMARK  status: ('A' for Active; 'I' for Inactive)
REMARK    1  A    between atoms: CD1_1  and  CG_2
REMARK    2  A    between atoms: CG_2  and  CD2_3
REMARK    3  A    between atoms: CG_2  and  CB_4
REMARK    4  A    between atoms: CB_4  and  CA_5
REMARK    5  A    between atoms: C_9  and  C_10
REMARK    6  A    between atoms: N_21  and  C_22
REMARK    7  A    between atoms: C_22  and  C_23
REMARK    8  A    between atoms: C_22  and  C_29
REMARK    9  A    between atoms: N_25  and  C_26
REMARK   10  A    between atoms: C_26  and  C_27
REMARK   11  A    between atoms: C_26  and  C_28
REMARK                            x       y       z     vdW  Elec       q    Type
REMARK                         _______ _______ _______ _____ _____    ______ ____
ROOT
ATOM      1  CA  LEU A   2      -7.013  -0.438 128.844  0.00  0.00    +0.000 C 
ATOM      2  C   LEU A   2      -7.372   0.631 129.897  0.00  0.00    +0.000 C 
ATOM      3  O   LEU A   2      -7.889   0.523 130.979  0.00  0.00    +0.000 OA
ATOM      4  N   UNK A   1      -6.938   1.851 129.579  0.00  0.00    +0.000 N 
ATOM      5  C   UNK A   1      -6.180   2.135 128.407  0.00  0.00    +0.000 C 
ATOM      6  C   UNK A   1      -6.803   1.407 127.210  0.00  0.00    +0.000 C 
ATOM      7  O   UNK A   1      -6.759   1.984 126.131  0.00  0.00    +0.000 OA
ATOM      8  N   LEU A   2      -7.310   0.118 127.461  0.00  0.00    +0.000 N 
ATOM      9  H   UNK A   1      -7.154   2.509 130.314  0.00  0.00    +0.000 HD
ENDROOT
BRANCH   5  10
ATOM     10  C   UNK A   1      -6.224   3.643 128.107  0.00  0.00    +0.000 C 
ATOM     11  C   UNK A   1      -4.825   4.168 127.752  0.00  0.00    +0.000 C 
ATOM     12  C   UNK A   1      -4.312   4.590 129.099  0.00  0.00    +0.000 A 
ATOM     13  C   UNK A   1      -2.994   4.674 129.507  0.00  0.00    +0.000 A 
ATOM     14  C   UNK A   1      -2.735   4.931 130.856  0.00  0.00    +0.000 A 
ATOM     15  C   UNK A   1      -3.786   5.078 131.777  0.00  0.00    +0.000 A 
ATOM     16  C   UNK A   1      -5.114   4.968 131.364  0.00  0.00    +0.000 A 
ATOM     17  C   UNK A   1      -5.362   4.735 130.021  0.00  0.00    +0.000 A 
ATOM     18  C   UNK A   1      -6.680   4.448 129.367  0.00  0.00    +0.000 C 
ENDBRANCH   5  10
BRANCH   1  19
ATOM     19  CB  LEU A   2      -7.844  -1.628 129.202  0.00  0.00    +0.000 C 
BRANCH  19  21
ATOM     20  CD1 LEU A   2      -6.794  -3.768 129.994  0.00  0.00    +0.000 C 
ATOM     21  CG  LEU A   2      -7.452  -3.053 128.848  0.00  0.00    +0.000 C 
ATOM     22  CD2 LEU A   2      -8.626  -3.845 128.389  0.00  0.00    +0.000 C 
ENDBRANCH  19  21
ENDBRANCH   1  19
BRANCH   8  23
ATOM     23  C   UNK A   0      -8.126  -0.658 126.402  0.00  0.00    +0.000 C 
BRANCH  23  24
ATOM     24  C   UNK A   0      -7.259  -1.604 125.504  0.00  0.00    +0.000 A 
ATOM     25  C   UNK A   0      -5.888  -1.405 125.249  0.00  0.00    +0.000 A 
ATOM     26  C   UNK A   0      -5.137  -2.264 124.449  0.00  0.00    +0.000 A 
ATOM     27  C   UNK A   0      -5.693  -3.450 124.009  0.00  0.00    +0.000 A 
ATOM     28  C   UNK A   0      -7.025  -3.725 124.294  0.00  0.00    +0.000 A 
ATOM     29  C   UNK A   0      -7.818  -2.779 124.959  0.00  0.00    +0.000 A 
ENDBRANCH  23  24
BRANCH  23  30
ATOM     30  C   UNK A   0      -9.113   0.265 125.493  0.00  0.00    +0.000 C 
ATOM     31  O   UNK A   0     -10.308   0.430 125.750  0.00  0.00    +0.000 OA
ATOM     32  N   UNK A   0      -8.672   0.840 124.302  0.00  0.00    +0.000 N 
ATOM     33  H   UNK A   0      -7.693   0.945 124.078  0.00  0.00    +0.000 HD
BRANCH  32  34
ATOM     34  C   UNK A   0      -9.657   1.435 123.391  0.00  0.00    +0.000 C 
ATOM     35  C   UNK A   0      -8.889   2.529 122.704  0.00  0.00    +0.000 C 
ATOM     36  C   UNK A   0     -10.264   0.546 122.303  0.00  0.00    +0.000 C 
ENDBRANCH  32  34
ENDBRANCH  23  30
ENDBRANCH   8  23
TORSDOF 7
ENDMDL
MODEL 2
REMARK VINA RESULT:      -8.0      2.519      5.570
REMARK  Name = CHEMBL382518
REMARK  11 active torsions:
REMARK  status: ('A' for Active; 'I' for Inactive)
REMARK    1  A    between atoms: CD1_1  and  CG_2
REMARK    2  A    between atoms: CG_2  and  CD2_3
REMARK    3  A    between atoms: CG_2  and  CB_4
REMARK    4  A    between atoms: CB_4  and  CA_5
REMARK    5  A    between atoms: C_9  and  C_10
REMARK    6  A    between atoms: N_21  and  C_22
REMARK    7  A    between atoms: C_22  and  C_23
REMARK    8  A    between atoms: C_22  and  C_29
REMARK    9  A    between atoms: N_25  and  C_26
REMARK   10  A    between atoms: C_26  and  C_27
REMARK   11  A    between atoms: C_26  and  C_28
REMARK                            x       y       z     vdW  Elec       q    Type
REMARK                         _______ _______ _______ _____ _____    ______ ____
ROOT
ATOM      1  CA  LEU A   2      -7.507   1.810 126.345  0.00  0.00    +0.000 C 
ATOM      2  C   LEU A   2      -7.206   3.164 127.019  0.00  0.00    +0.000 C 
ATOM      3  O   LEU A   2      -6.644   4.143 126.598  0.00  0.00    +0.000 OA
ATOM      4  N   UNK A   1      -7.757   3.286 128.227  0.00  0.00    +0.000 N 
ATOM      5  C   UNK A   1      -8.577   2.284 128.821  0.00  0.00    +0.000 C 
ATOM      6  C   UNK A   1      -7.935   0.909 128.609  0.00  0.00    +0.000 C 
ATOM      7  O   UNK A   1      -8.067   0.093 129.512  0.00  0.00    +0.000 OA
ATOM      8  N   LEU A   2      -7.307   0.701 127.366  0.00  0.00    +0.000 N 
ATOM      9  H   UNK A   1      -7.574   4.202 128.613  0.00  0.00    +0.000 HD
ENDROOT
BRANCH   5  10
ATOM     10  C   UNK A   1      -8.677   2.521 130.339  0.00  0.00    +0.000 C 
ATOM     11  C   UNK A   1     -10.127   2.817 130.749  0.00  0.00    +0.000 C 
ATOM     12  C   UNK A   1     -10.167   4.315 130.651  0.00  0.00    +0.000 A 
ATOM     13  C   UNK A   1     -11.272   5.113 130.419  0.00  0.00    +0.000 A 
ATOM     14  C   UNK A   1     -11.067   6.478 130.201  0.00  0.00    +0.000 A 
ATOM     15  C   UNK A   1      -9.771   7.021 130.197  0.00  0.00    +0.000 A 
ATOM     16  C   UNK A   1      -8.657   6.207 130.408  0.00  0.00    +0.000 A 
ATOM     17  C   UNK A   1      -8.871   4.859 130.644  0.00  0.00    +0.000 A 
ATOM     18  C   UNK A   1      -7.844   3.773 130.763  0.00  0.00    +0.000 C 
ENDBRANCH   5  10
BRANCH   1  19
ATOM     19  CB  LEU A   2      -6.562   1.735 125.189  0.00  0.00    +0.000 C 
BRANCH  19  21
ATOM     20  CD1 LEU A   2      -8.370   0.752 123.749  0.00  0.00    +0.000 C 
ATOM     21  CG  LEU A   2      -6.998   1.364 123.781  0.00  0.00    +0.000 C 
ATOM     22  CD2 LEU A   2      -6.967   2.541 122.871  0.00  0.00    +0.000 C 
ENDBRANCH  19  21
ENDBRANCH   1  19
BRANCH   8  23
ATOM     23  C   UNK A   0      -6.464  -0.562 127.079  0.00  0.00    +0.000 C 
BRANCH  23  24
ATOM     24  C   UNK A   0      -7.231  -1.666 126.275  0.00  0.00    +0.000 A 
ATOM     25  C   UNK A   0      -8.603  -1.944 126.435  0.00  0.00    +0.000 A 
ATOM     26  C   UNK A   0      -9.263  -2.929 125.704  0.00  0.00    +0.000 A 
ATOM     27  C   UNK A   0      -8.611  -3.562 124.663  0.00  0.00    +0.000 A 
ATOM     28  C   UNK A   0      -7.274  -3.271 124.420  0.00  0.00    +0.000 A 
ATOM     29  C   UNK A   0      -6.572  -2.399 125.265  0.00  0.00    +0.000 A 
ENDBRANCH  23  24
BRANCH  23  30
ATOM     30  C   UNK A   0      -5.727  -1.199 128.384  0.00  0.00    +0.000 C 
ATOM     31  O   UNK A   0      -4.831  -0.620 129.002  0.00  0.00    +0.000 OA
ATOM     32  N   UNK A   0      -6.007  -2.496 128.812  0.00  0.00    +0.000 N 
ATOM     33  H   UNK A   0      -6.836  -2.996 128.527  0.00  0.00    +0.000 HD
BRANCH  32  34
ATOM     34  C   UNK A   0      -5.138  -3.118 129.818  0.00  0.00    +0.000 C 
ATOM     35  C   UNK A   0      -5.997  -4.199 130.411  0.00  0.00    +0.000 C 
ATOM     36  C   UNK A   0      -3.837  -3.770 129.345  0.00  0.00    +0.000 C 
ENDBRANCH  32  34
ENDBRANCH  23  30
ENDBRANCH   8  23
TORSDOF 7
ENDMDL
MODEL 3
REMARK VINA RESULT:      -8.0      3.323      7.857
REMARK  Name = CHEMBL382518
REMARK  11 active torsions:
REMARK  status: ('A' for Active; 'I' for Inactive)
REMARK    1  A    between atoms: CD1_1  and  CG_2
REMARK    2  A    between atoms: CG_2  and  CD2_3
REMARK    3  A    between atoms: CG_2  and  CB_4
REMARK    4  A    between atoms: CB_4  and  CA_5
REMARK    5  A    between atoms: C_9  and  C_10
REMARK    6  A    between atoms: N_21  and  C_22
REMARK    7  A    between atoms: C_22  and  C_23
REMARK    8  A    between atoms: C_22  and  C_29
REMARK    9  A    between atoms: N_25  and  C_26
REMARK   10  A    between atoms: C_26  and  C_27
REMARK   11  A    between atoms: C_26  and  C_28
REMARK                            x       y       z     vdW  Elec       q    Type
REMARK                         _______ _______ _______ _____ _____    ______ ____
ROOT
ATOM      1  CA  LEU A   2      -4.787   1.985 128.496  0.00  0.00    +0.000 C 
ATOM      2  C   LEU A   2      -5.304   0.808 127.643  0.00  0.00    +0.000 C 
ATOM      3  O   LEU A   2      -5.002   0.450 126.534  0.00  0.00    +0.000 OA
ATOM      4  N   UNK A   1      -6.147   0.011 128.302  0.00  0.00    +0.000 N 
ATOM      5  C   UNK A   1      -6.503   0.201 129.668  0.00  0.00    +0.000 C 
ATOM      6  C   UNK A   1      -6.789   1.686 129.917  0.00  0.00    +0.000 C 
ATOM      7  O   UNK A   1      -7.675   1.949 130.720  0.00  0.00    +0.000 OA
ATOM      8  N   LEU A   2      -5.959   2.601 129.242  0.00  0.00    +0.000 N 
ATOM      9  H   UNK A   1      -6.426  -0.769 127.724  0.00  0.00    +0.000 HD
ENDROOT
BRANCH   5  10
ATOM     10  C   UNK A   1      -7.791  -0.580 129.986  0.00  0.00    +0.000 C 
ATOM     11  C   UNK A   1      -7.826  -0.988 131.467  0.00  0.00    +0.000 C 
ATOM     12  C   UNK A   1      -7.180  -2.342 131.421  0.00  0.00    +0.000 A 
ATOM     13  C   UNK A   1      -6.498  -2.983 132.438  0.00  0.00    +0.000 A 
ATOM     14  C   UNK A   1      -5.829  -4.173 132.138  0.00  0.00    +0.000 A 
ATOM     15  C   UNK A   1      -5.832  -4.693 130.833  0.00  0.00    +0.000 A 
ATOM     16  C   UNK A   1      -6.502  -4.029 129.804  0.00  0.00    +0.000 A 
ATOM     17  C   UNK A   1      -7.180  -2.861 130.115  0.00  0.00    +0.000 A 
ATOM     18  C   UNK A   1      -7.852  -1.910 129.171  0.00  0.00    +0.000 C 
ENDBRANCH   5  10
BRANCH   1  19
ATOM     19  CB  LEU A   2      -4.145   2.916 127.519  0.00  0.00    +0.000 C 
BRANCH  19  21
ATOM     20  CD1 LEU A   2      -1.825   3.098 126.571  0.00  0.00    +0.000 C 
ATOM     21  CG  LEU A   2      -2.742   3.474 127.700  0.00  0.00    +0.000 C 
ATOM     22  CD2 LEU A   2      -2.758   4.956 127.843  0.00  0.00    +0.000 C 
ENDBRANCH  19  21
ENDBRANCH   1  19
BRANCH   8  23
ATOM     23  C   UNK A   0      -6.243   4.120 129.253  0.00  0.00    +0.000 C 
BRANCH  23  24
ATOM     24  C   UNK A   0      -5.561   4.883 130.439  0.00  0.00    +0.000 A 
ATOM     25  C   UNK A   0      -4.931   4.244 131.524  0.00  0.00    +0.000 A 
ATOM     26  C   UNK A   0      -4.327   4.945 132.566  0.00  0.00    +0.000 A 
ATOM     27  C   UNK A   0      -4.184   6.317 132.475  0.00  0.00    +0.000 A 
ATOM     28  C   UNK A   0      -4.729   6.988 131.387  0.00  0.00    +0.000 A 
ATOM     29  C   UNK A   0      -5.478   6.292 130.426  0.00  0.00    +0.000 A 
ENDBRANCH  23  24
BRANCH  23  30
ATOM     30  C   UNK A   0      -7.817   4.520 129.132  0.00  0.00    +0.000 C 
ATOM     31  O   UNK A   0      -8.372   4.755 128.056  0.00  0.00    +0.000 OA
ATOM     32  N   UNK A   0      -8.602   4.720 130.266  0.00  0.00    +0.000 N 
ATOM     33  H   UNK A   0      -8.335   4.381 131.179  0.00  0.00    +0.000 HD
BRANCH  32  34
ATOM     34  C   UNK A   0      -9.927   5.332 130.117  0.00  0.00    +0.000 C 
ATOM     35  C   UNK A   0     -10.873   4.229 130.503  0.00  0.00    +0.000 C 
ATOM     36  C   UNK A   0     -10.263   6.549 130.982  0.00  0.00    +0.000 C 
ENDBRANCH  32  34
ENDBRANCH  23  30
ENDBRANCH   8  23
TORSDOF 7
ENDMDL
MODEL 4
REMARK VINA RESULT:      -8.0      2.174      8.028
REMARK  Name = CHEMBL382518
REMARK  11 active torsions:
REMARK  status: ('A' for Active; 'I' for Inactive)
REMARK    1  A    between atoms: CD1_1  and  CG_2
REMARK    2  A    between atoms: CG_2  and  CD2_3
REMARK    3  A    between atoms: CG_2  and  CB_4
REMARK    4  A    between atoms: CB_4  and  CA_5
REMARK    5  A    between atoms: C_9  and  C_10
REMARK    6  A    between atoms: N_21  and  C_22
REMARK    7  A    between atoms: C_22  and  C_23
REMARK    8  A    between atoms: C_22  and  C_29
REMARK    9  A    between atoms: N_25  and  C_26
REMARK   10  A    between atoms: C_26  and  C_27
REMARK   11  A    between atoms: C_26  and  C_28
REMARK                            x       y       z     vdW  Elec       q    Type
REMARK                         _______ _______ _______ _____ _____    ______ ____
ROOT
ATOM      1  CA  LEU A   2      -5.126   3.035 126.999  0.00  0.00    +0.000 C 
ATOM      2  C   LEU A   2      -5.753   2.705 125.629  0.00  0.00    +0.000 C 
ATOM      3  O   LEU A   2      -5.739   3.316 124.592  0.00  0.00    +0.000 OA
ATOM      4  N   UNK A   1      -6.308   1.493 125.581  0.00  0.00    +0.000 N 
ATOM      5  C   UNK A   1      -6.288   0.576 126.671  0.00  0.00    +0.000 C 
ATOM      6  C   UNK A   1      -6.623   1.321 127.969  0.00  0.00    +0.000 C 
ATOM      7  O   UNK A   1      -7.272   0.707 128.805  0.00  0.00    +0.000 OA
ATOM      8  N   LEU A   2      -6.096   2.620 128.094  0.00  0.00    +0.000 N 
ATOM      9  H   UNK A   1      -6.665   1.300 124.656  0.00  0.00    +0.000 HD
ENDROOT
BRANCH   5  10
ATOM     10  C   UNK A   1      -7.364  -0.505 126.466  0.00  0.00    +0.000 C 
ATOM     11  C   UNK A   1      -6.752  -1.909 126.580  0.00  0.00    +0.000 C 
ATOM     12  C   UNK A   1      -6.387  -2.195 125.152  0.00  0.00    +0.000 A 
ATOM     13  C   UNK A   1      -5.397  -3.043 124.690  0.00  0.00    +0.000 A 
ATOM     14  C   UNK A   1      -5.110  -3.041 123.323  0.00  0.00    +0.000 A 
ATOM     15  C   UNK A   1      -5.796  -2.187 122.443  0.00  0.00    +0.000 A 
ATOM     16  C   UNK A   1      -6.777  -1.316 122.917  0.00  0.00    +0.000 A 
ATOM     17  C   UNK A   1      -7.069  -1.338 124.272  0.00  0.00    +0.000 A 
ATOM     18  C   UNK A   1      -7.975  -0.417 125.031  0.00  0.00    +0.000 C 
ENDBRANCH   5  10
BRANCH   1  19
ATOM     19  CB  LEU A   2      -4.863   4.506 126.959  0.00  0.00    +0.000 C 
BRANCH  19  21
ATOM     20  CD1 LEU A   2      -3.620   6.360 128.112  0.00  0.00    +0.000 C 
ATOM     21  CG  LEU A   2      -3.507   5.117 127.274  0.00  0.00    +0.000 C 
ATOM     22  CD2 LEU A   2      -2.615   4.144 127.963  0.00  0.00    +0.000 C 
ENDBRANCH  19  21
ENDBRANCH   1  19
BRANCH   8  23
ATOM     23  C   UNK A   0      -6.498   3.555 129.257  0.00  0.00    +0.000 C 
BRANCH  23  24
ATOM     24  C   UNK A   0      -5.398   3.699 130.362  0.00  0.00    +0.000 A 
ATOM     25  C   UNK A   0      -4.514   2.665 130.730  0.00  0.00    +0.000 A 
ATOM     26  C   UNK A   0      -3.540   2.820 131.714  0.00  0.00    +0.000 A 
ATOM     27  C   UNK A   0      -3.302   4.071 132.251  0.00  0.00    +0.000 A 
ATOM     28  C   UNK A   0      -4.102   5.140 131.867  0.00  0.00    +0.000 A 
ATOM     29  C   UNK A   0      -5.186   4.940 131.000  0.00  0.00    +0.000 A 
ENDBRANCH  23  24
BRANCH  23  30
ATOM     30  C   UNK A   0      -7.949   3.231 129.920  0.00  0.00    +0.000 C 
ATOM     31  O   UNK A   0      -9.015   3.608 129.428  0.00  0.00    +0.000 OA
ATOM     32  N   UNK A   0      -8.054   2.588 131.153  0.00  0.00    +0.000 N 
ATOM     33  H   UNK A   0      -7.293   2.065 131.560  0.00  0.00    +0.000 HD
BRANCH  32  34
ATOM     34  C   UNK A   0      -9.355   2.554 131.831  0.00  0.00    +0.000 C 
ATOM     35  C   UNK A   0      -9.696   1.092 131.874  0.00  0.00    +0.000 C 
ATOM     36  C   UNK A   0      -9.438   3.089 133.262  0.00  0.00    +0.000 C 
ENDBRANCH  32  34
ENDBRANCH  23  30
ENDBRANCH   8  23
TORSDOF 7
ENDMDL
MODEL 5
REMARK VINA RESULT:      -7.9      2.408      7.885
REMARK  Name = CHEMBL382518
REMARK  11 active torsions:
REMARK  status: ('A' for Active; 'I' for Inactive)
REMARK    1  A    between atoms: CD1_1  and  CG_2
REMARK    2  A    between atoms: CG_2  and  CD2_3
REMARK    3  A    between atoms: CG_2  and  CB_4
REMARK    4  A    between atoms: CB_4  and  CA_5
REMARK    5  A    between atoms: C_9  and  C_10
REMARK    6  A    between atoms: N_21  and  C_22
REMARK    7  A    between atoms: C_22  and  C_23
REMARK    8  A    between atoms: C_22  and  C_29
REMARK    9  A    between atoms: N_25  and  C_26
REMARK   10  A    between atoms: C_26  and  C_27
REMARK   11  A    between atoms: C_26  and  C_28
REMARK                            x       y       z     vdW  Elec       q    Type
REMARK                         _______ _______ _______ _____ _____    ______ ____
ROOT
ATOM      1  CA  LEU A   2      -5.424   3.149 126.160  0.00  0.00    +0.000 C 
ATOM      2  C   LEU A   2      -5.972   3.261 124.723  0.00  0.00    +0.000 C 
ATOM      3  O   LEU A   2      -5.540   3.844 123.761  0.00  0.00    +0.000 OA
ATOM      4  N   UNK A   1      -7.043   2.497 124.506  0.00  0.00    +0.000 N 
ATOM      5  C   UNK A   1      -7.602   1.630 125.488  0.00  0.00    +0.000 C 
ATOM      6  C   UNK A   1      -7.671   2.363 126.833  0.00  0.00    +0.000 C 
ATOM      7  O   UNK A   1      -8.629   2.108 127.551  0.00  0.00    +0.000 OA
ATOM      8  N   LEU A   2      -6.589   3.212 127.135  0.00  0.00    +0.000 N 
ATOM      9  H   UNK A   1      -7.342   2.565 123.543  0.00  0.00    +0.000 HD
ENDROOT
BRANCH   5  10
ATOM     10  C   UNK A   1      -9.040   1.249 125.094  0.00  0.00    +0.000 C 
ATOM     11  C   UNK A   1      -9.558   0.099 125.970  0.00  0.00    +0.000 C 
ATOM     12  C   UNK A   1      -9.163  -1.100 125.156  0.00  0.00    +0.000 A 
ATOM     13  C   UNK A   1      -8.912  -2.380 125.612  0.00  0.00    +0.000 A 
ATOM     14  C   UNK A   1      -8.396  -3.314 124.710  0.00  0.00    +0.000 A 
ATOM     15  C   UNK A   1      -8.121  -2.956 123.380  0.00  0.00    +0.000 A 
ATOM     16  C   UNK A   1      -8.354  -1.656 122.930  0.00  0.00    +0.000 A 
ATOM     17  C   UNK A   1      -8.884  -0.742 123.826  0.00  0.00    +0.000 A 
ATOM     18  C   UNK A   1      -9.094   0.729 123.622  0.00  0.00    +0.000 C 
ENDBRANCH   5  10
BRANCH   1  19
ATOM     19  CB  LEU A   2      -4.466   4.288 126.298  0.00  0.00    +0.000 C 
BRANCH  19  21
ATOM     20  CD1 LEU A   2      -2.639   5.155 127.788  0.00  0.00    +0.000 C 
ATOM     21  CG  LEU A   2      -3.033   4.117 126.775  0.00  0.00    +0.000 C 
ATOM     22  CD2 LEU A   2      -2.806   2.763 127.351  0.00  0.00    +0.000 C 
ENDBRANCH  19  21
ENDBRANCH   1  19
BRANCH   8  23
ATOM     23  C   UNK A   0      -6.607   4.150 128.362  0.00  0.00    +0.000 C 
BRANCH  23  24
ATOM     24  C   UNK A   0      -5.711   3.657 129.549  0.00  0.00    +0.000 A 
ATOM     25  C   UNK A   0      -5.445   2.300 129.820  0.00  0.00    +0.000 A 
ATOM     26  C   UNK A   0      -4.641   1.886 130.880  0.00  0.00    +0.000 A 
ATOM     27  C   UNK A   0      -3.934   2.823 131.609  0.00  0.00    +0.000 A 
ATOM     28  C   UNK A   0      -4.109   4.174 131.333  0.00  0.00    +0.000 A 
ATOM     29  C   UNK A   0      -5.045   4.588 130.374  0.00  0.00    +0.000 A 
ENDBRANCH  23  24
BRANCH  23  30
ATOM     30  C   UNK A   0      -8.093   4.558 128.887  0.00  0.00    +0.000 C 
ATOM     31  O   UNK A   0      -8.797   5.403 128.329  0.00  0.00    +0.000 OA
ATOM     32  N   UNK A   0      -8.611   4.037 130.071  0.00  0.00    +0.000 N 
ATOM     33  H   UNK A   0      -8.235   3.210 130.512  0.00  0.00    +0.000 HD
BRANCH  32  34
ATOM     34  C   UNK A   0      -9.829   4.628 130.637  0.00  0.00    +0.000 C 
ATOM     35  C   UNK A   0     -10.844   3.525 130.525  0.00  0.00    +0.000 C 
ATOM     36  C   UNK A   0      -9.801   5.080 132.099  0.00  0.00    +0.000 C 
ENDBRANCH  32  34
ENDBRANCH  23  30
ENDBRANCH   8  23
TORSDOF 7
ENDMDL
MODEL 6
REMARK VINA RESULT:      -7.8      3.631      8.670
REMARK  Name = CHEMBL382518
REMARK  11 active torsions:
REMARK  status: ('A' for Active; 'I' for Inactive)
REMARK    1  A    between atoms: CD1_1  and  CG_2
REMARK    2  A    between atoms: CG_2  and  CD2_3
REMARK    3  A    between atoms: CG_2  and  CB_4
REMARK    4  A    between atoms: CB_4  and  CA_5
REMARK    5  A    between atoms: C_9  and  C_10
REMARK    6  A    between atoms: N_21  and  C_22
REMARK    7  A    between atoms: C_22  and  C_23
REMARK    8  A    between atoms: C_22  and  C_29
REMARK    9  A    between atoms: N_25  and  C_26
REMARK   10  A    between atoms: C_26  and  C_27
REMARK   11  A    between atoms: C_26  and  C_28
REMARK                            x       y       z     vdW  Elec       q    Type
REMARK                         _______ _______ _______ _____ _____    ______ ____
ROOT
ATOM      1  CA  LEU A   2      -4.575   2.713 129.544  0.00  0.00    +0.000 C 
ATOM      2  C   LEU A   2      -5.666   1.880 128.839  0.00  0.00    +0.000 C 
ATOM      3  O   LEU A   2      -5.963   1.801 127.675  0.00  0.00    +0.000 OA
ATOM      4  N   UNK A   1      -6.301   1.041 129.659  0.00  0.00    +0.000 N 
ATOM      5  C   UNK A   1      -5.978   0.896 131.039  0.00  0.00    +0.000 C 
ATOM      6  C   UNK A   1      -5.777   2.282 131.663  0.00  0.00    +0.000 C 
ATOM      7  O   UNK A   1      -6.143   2.422 132.823  0.00  0.00    +0.000 OA
ATOM      8  N   LEU A   2      -5.134   3.240 130.856  0.00  0.00    +0.000 N 
ATOM      9  H   UNK A   1      -6.973   0.485 129.150  0.00  0.00    +0.000 HD
ENDROOT
BRANCH   5  10
ATOM     10  C   UNK A   1      -7.144   0.218 131.781  0.00  0.00    +0.000 C 
ATOM     11  C   UNK A   1      -6.659  -1.035 132.525  0.00  0.00    +0.000 C 
ATOM     12  C   UNK A   1      -6.877  -2.102 131.491  0.00  0.00    +0.000 A 
ATOM     13  C   UNK A   1      -6.207  -3.305 131.371  0.00  0.00    +0.000 A 
ATOM     14  C   UNK A   1      -6.449  -4.086 130.238  0.00  0.00    +0.000 A 
ATOM     15  C   UNK A   1      -7.334  -3.650 129.237  0.00  0.00    +0.000 A 
ATOM     16  C   UNK A   1      -7.989  -2.424 129.352  0.00  0.00    +0.000 A 
ATOM     17  C   UNK A   1      -7.759  -1.665 130.488  0.00  0.00    +0.000 A 
ATOM     18  C   UNK A   1      -8.234  -0.273 130.775  0.00  0.00    +0.000 C 
ENDBRANCH   5  10
BRANCH   1  19
ATOM     19  CB  LEU A   2      -4.221   3.789 128.570  0.00  0.00    +0.000 C 
BRANCH  19  21
ATOM     20  CD1 LEU A   2      -2.260   3.426 127.043  0.00  0.00    +0.000 C 
ATOM     21  CG  LEU A   2      -2.788   4.171 128.236  0.00  0.00    +0.000 C 
ATOM     22  CD2 LEU A   2      -2.654   5.634 127.997  0.00  0.00    +0.000 C 
ENDBRANCH  19  21
ENDBRANCH   1  19
BRANCH   8  23
ATOM     23  C   UNK A   0      -5.026   4.722 131.279  0.00  0.00    +0.000 C 
BRANCH  23  24
ATOM     24  C   UNK A   0      -3.585   5.152 131.719  0.00  0.00    +0.000 A 
ATOM     25  C   UNK A   0      -2.634   4.267 132.265  0.00  0.00    +0.000 A 
ATOM     26  C   UNK A   0      -1.357   4.673 132.644  0.00  0.00    +0.000 A 
ATOM     27  C   UNK A   0      -0.923   5.948 132.334  0.00  0.00    +0.000 A 
ATOM     28  C   UNK A   0      -1.804   6.839 131.731  0.00  0.00    +0.000 A 
ATOM     29  C   UNK A   0      -3.138   6.473 131.502  0.00  0.00    +0.000 A 
ENDBRANCH  23  24
BRANCH  23  30
ATOM     30  C   UNK A   0      -6.134   5.200 132.372  0.00  0.00    +0.000 C 
ATOM     31  O   UNK A   0      -5.838   5.617 133.494  0.00  0.00    +0.000 OA
ATOM     32  N   UNK A   0      -7.499   5.064 132.126  0.00  0.00    +0.000 N 
ATOM     33  H   UNK A   0      -7.873   4.924 131.199  0.00  0.00    +0.000 HD
BRANCH  32  34
ATOM     34  C   UNK A   0      -8.445   5.258 133.231  0.00  0.00    +0.000 C 
ATOM     35  C   UNK A   0      -9.599   5.974 132.589  0.00  0.00    +0.000 C 
ATOM     36  C   UNK A   0      -9.005   4.017 133.929  0.00  0.00    +0.000 C 
ENDBRANCH  32  34
ENDBRANCH  23  30
ENDBRANCH   8  23
TORSDOF 7
ENDMDL
MODEL 7
REMARK VINA RESULT:      -7.8      5.458      8.681
REMARK  Name = CHEMBL382518
REMARK  11 active torsions:
REMARK  status: ('A' for Active; 'I' for Inactive)
REMARK    1  A    between atoms: CD1_1  and  CG_2
REMARK    2  A    between atoms: CG_2  and  CD2_3
REMARK    3  A    between atoms: CG_2  and  CB_4
REMARK    4  A    between atoms: CB_4  and  CA_5
REMARK    5  A    between atoms: C_9  and  C_10
REMARK    6  A    between atoms: N_21  and  C_22
REMARK    7  A    between atoms: C_22  and  C_23
REMARK    8  A    between atoms: C_22  and  C_29
REMARK    9  A    between atoms: N_25  and  C_26
REMARK   10  A    between atoms: C_26  and  C_27
REMARK   11  A    between atoms: C_26  and  C_28
REMARK                            x       y       z     vdW  Elec       q    Type
REMARK                         _______ _______ _______ _____ _____    ______ ____
ROOT
ATOM      1  CA  LEU A   2      -6.844   5.570 132.963  0.00  0.00    +0.000 C 
ATOM      2  C   LEU A   2      -8.228   4.946 133.237  0.00  0.00    +0.000 C 
ATOM      3  O   LEU A   2      -8.704   4.506 134.252  0.00  0.00    +0.000 OA
ATOM      4  N   UNK A   1      -9.051   5.008 132.189  0.00  0.00    +0.000 N 
ATOM      5  C   UNK A   1      -8.704   5.626 130.953  0.00  0.00    +0.000 C 
ATOM      6  C   UNK A   1      -7.284   5.208 130.556  0.00  0.00    +0.000 C 
ATOM      7  O   UNK A   1      -7.067   5.061 129.360  0.00  0.00    +0.000 OA
ATOM      8  N   LEU A   2      -6.352   5.094 131.606  0.00  0.00    +0.000 N 
ATOM      9  H   UNK A   1      -9.958   4.631 132.424  0.00  0.00    +0.000 HD
ENDROOT
BRANCH   5  10
ATOM     10  C   UNK A   1      -9.656   5.148 129.843  0.00  0.00    +0.000 C 
ATOM     11  C   UNK A   1      -9.764   6.200 128.729  0.00  0.00    +0.000 C 
ATOM     12  C   UNK A   1     -10.937   7.013 129.195  0.00  0.00    +0.000 A 
ATOM     13  C   UNK A   1     -11.210   8.337 128.907  0.00  0.00    +0.000 A 
ATOM     14  C   UNK A   1     -12.270   8.954 129.576  0.00  0.00    +0.000 A 
ATOM     15  C   UNK A   1     -13.025   8.253 130.532  0.00  0.00    +0.000 A 
ATOM     16  C   UNK A   1     -12.731   6.924 130.837  0.00  0.00    +0.000 A 
ATOM     17  C   UNK A   1     -11.691   6.314 130.153  0.00  0.00    +0.000 A 
ATOM     18  C   UNK A   1     -11.105   4.956 130.396  0.00  0.00    +0.000 C 
ENDBRANCH   5  10
BRANCH   1  19
ATOM     19  CB  LEU A   2      -5.986   5.120 134.101  0.00  0.00    +0.000 C 
BRANCH  19  21
ATOM     20  CD1 LEU A   2      -6.063   5.967 136.465  0.00  0.00    +0.000 C 
ATOM     21  CG  LEU A   2      -5.393   6.075 135.124  0.00  0.00    +0.000 C 
ATOM     22  CD2 LEU A   2      -3.929   5.857 135.291  0.00  0.00    +0.000 C 
ENDBRANCH  19  21
ENDBRANCH   1  19
BRANCH   8  23
ATOM     23  C   UNK A   0      -4.940   4.508 131.383  0.00  0.00    +0.000 C 
BRANCH  23  24
ATOM     24  C   UNK A   0      -3.785   5.546 131.588  0.00  0.00    +0.000 A 
ATOM     25  C   UNK A   0      -3.967   6.942 131.547  0.00  0.00    +0.000 A 
ATOM     26  C   UNK A   0      -2.924   7.845 131.738  0.00  0.00    +0.000 A 
ATOM     27  C   UNK A   0      -1.685   7.385 132.144  0.00  0.00    +0.000 A 
ATOM     28  C   UNK A   0      -1.475   6.016 132.267  0.00  0.00    +0.000 A 
ATOM     29  C   UNK A   0      -2.483   5.108 131.915  0.00  0.00    +0.000 A 
ENDBRANCH  23  24
BRANCH  23  30
ATOM     30  C   UNK A   0      -4.752   3.699 129.983  0.00  0.00    +0.000 C 
ATOM     31  O   UNK A   0      -4.994   2.495 129.862  0.00  0.00    +0.000 OA
ATOM     32  N   UNK A   0      -4.202   4.313 128.859  0.00  0.00    +0.000 N 
ATOM     33  H   UNK A   0      -4.143   5.317 128.762  0.00  0.00    +0.000 HD
BRANCH  32  34
ATOM     34  C   UNK A   0      -3.809   3.485 127.714  0.00  0.00    +0.000 C 
ATOM     35  C   UNK A   0      -4.531   4.114 126.556  0.00  0.00    +0.000 C 
ATOM     36  C   UNK A   0      -2.324   3.415 127.348  0.00  0.00    +0.000 C 
ENDBRANCH  32  34
ENDBRANCH  23  30
ENDBRANCH   8  23
TORSDOF 7
ENDMDL
MODEL 8
REMARK VINA RESULT:      -7.8      2.169      7.680
REMARK  Name = CHEMBL382518
REMARK  11 active torsions:
REMARK  status: ('A' for Active; 'I' for Inactive)
REMARK    1  A    between atoms: CD1_1  and  CG_2
REMARK    2  A    between atoms: CG_2  and  CD2_3
REMARK    3  A    between atoms: CG_2  and  CB_4
REMARK    4  A    between atoms: CB_4  and  CA_5
REMARK    5  A    between atoms: C_9  and  C_10
REMARK    6  A    between atoms: N_21  and  C_22
REMARK    7  A    between atoms: C_22  and  C_23
REMARK    8  A    between atoms: C_22  and  C_29
REMARK    9  A    between atoms: N_25  and  C_26
REMARK   10  A    between atoms: C_26  and  C_27
REMARK   11  A    between atoms: C_26  and  C_28
REMARK                            x       y       z     vdW  Elec       q    Type
REMARK                         _______ _______ _______ _____ _____    ______ ____
ROOT
ATOM      1  CA  LEU A   2      -7.813   1.009 129.818  0.00  0.00    +0.000 C 
ATOM      2  C   LEU A   2      -7.226  -0.326 129.315  0.00  0.00    +0.000 C 
ATOM      3  O   LEU A   2      -7.070  -1.377 129.882  0.00  0.00    +0.000 OA
ATOM      4  N   UNK A   1      -6.947  -0.321 128.011  0.00  0.00    +0.000 N 
ATOM      5  C   UNK A   1      -7.204   0.789 127.157  0.00  0.00    +0.000 C 
ATOM      6  C   UNK A   1      -6.759   2.080 127.853  0.00  0.00    +0.000 C 
ATOM      7  O   UNK A   1      -6.289   2.957 127.140  0.00  0.00    +0.000 OA
ATOM      8  N   LEU A   2      -6.995   2.152 129.239  0.00  0.00    +0.000 N 
ATOM      9  H   UNK A   1      -6.608  -1.226 127.715  0.00  0.00    +0.000 HD
ENDROOT
BRANCH   5  10
ATOM     10  C   UNK A   1      -6.383   0.654 125.862  0.00  0.00    +0.000 C 
ATOM     11  C   UNK A   1      -7.292   0.767 124.628  0.00  0.00    +0.000 C 
ATOM     12  C   UNK A   1      -7.652  -0.671 124.388  0.00  0.00    +0.000 A 
ATOM     13  C   UNK A   1      -8.783  -1.161 123.763  0.00  0.00    +0.000 A 
ATOM     14  C   UNK A   1      -9.007  -2.540 123.787  0.00  0.00    +0.000 A 
ATOM     15  C   UNK A   1      -8.116  -3.404 124.447  0.00  0.00    +0.000 A 
ATOM     16  C   UNK A   1      -6.988  -2.902 125.096  0.00  0.00    +0.000 A 
ATOM     17  C   UNK A   1      -6.763  -1.535 125.050  0.00  0.00    +0.000 A 
ATOM     18  C   UNK A   1      -5.709  -0.753 125.774  0.00  0.00    +0.000 C 
ENDBRANCH   5  10
BRANCH   1  19
ATOM     19  CB  LEU A   2      -7.748   0.922 131.309  0.00  0.00    +0.000 C 
BRANCH  19  21
ATOM     20  CD1 LEU A   2      -8.326   2.549 133.134  0.00  0.00    +0.000 C 
ATOM     21  CG  LEU A   2      -8.834   1.468 132.222  0.00  0.00    +0.000 C 
ATOM     22  CD2 LEU A   2      -9.991   1.990 131.444  0.00  0.00    +0.000 C 
ENDBRANCH  19  21
ENDBRANCH   1  19
BRANCH   8  23
ATOM     23  C   UNK A   0      -6.440   3.308 130.101  0.00  0.00    +0.000 C 
BRANCH  23  24
ATOM     24  C   UNK A   0      -7.361   4.575 130.131  0.00  0.00    +0.000 A 
ATOM     25  C   UNK A   0      -8.598   4.661 129.463  0.00  0.00    +0.000 A 
ATOM     26  C   UNK A   0      -9.402   5.798 129.509  0.00  0.00    +0.000 A 
ATOM     27  C   UNK A   0      -9.076   6.834 130.364  0.00  0.00    +0.000 A 
ATOM     28  C   UNK A   0      -7.898   6.765 131.098  0.00  0.00    +0.000 A 
ATOM     29  C   UNK A   0      -7.013   5.691 130.922  0.00  0.00    +0.000 A 
ENDBRANCH  23  24
BRANCH  23  30
ATOM     30  C   UNK A   0      -4.898   3.718 129.779  0.00  0.00    +0.000 C 
ATOM     31  O   UNK A   0      -3.952   3.413 130.509  0.00  0.00    +0.000 OA
ATOM     32  N   UNK A   0      -4.577   4.536 128.696  0.00  0.00    +0.000 N 
ATOM     33  H   UNK A   0      -5.211   4.691 127.926  0.00  0.00    +0.000 HD
BRANCH  32  34
ATOM     34  C   UNK A   0      -3.223   5.091 128.599  0.00  0.00    +0.000 C 
ATOM     35  C   UNK A   0      -2.635   4.389 127.408  0.00  0.00    +0.000 C 
ATOM     36  C   UNK A   0      -3.074   6.596 128.365  0.00  0.00    +0.000 C 
ENDBRANCH  32  34
ENDBRANCH  23  30
ENDBRANCH   8  23
TORSDOF 7
ENDMDL
MODEL 9
REMARK VINA RESULT:      -7.7      3.134      7.884
REMARK  Name = CHEMBL382518
REMARK  11 active torsions:
REMARK  status: ('A' for Active; 'I' for Inactive)
REMARK    1  A    between atoms: CD1_1  and  CG_2
REMARK    2  A    between atoms: CG_2  and  CD2_3
REMARK    3  A    between atoms: CG_2  and  CB_4
REMARK    4  A    between atoms: CB_4  and  CA_5
REMARK    5  A    between atoms: C_9  and  C_10
REMARK    6  A    between atoms: N_21  and  C_22
REMARK    7  A    between atoms: C_22  and  C_23
REMARK    8  A    between atoms: C_22  and  C_29
REMARK    9  A    between atoms: N_25  and  C_26
REMARK   10  A    between atoms: C_26  and  C_27
REMARK   11  A    between atoms: C_26  and  C_28
REMARK                            x       y       z     vdW  Elec       q    Type
REMARK                         _______ _______ _______ _____ _____    ______ ____
ROOT
ATOM      1  CA  LEU A   2      -7.401   2.520 130.665  0.00  0.00    +0.000 C 
ATOM      2  C   LEU A   2      -6.193   1.646 130.269  0.00  0.00    +0.000 C 
ATOM      3  O   LEU A   2      -5.572   0.832 130.903  0.00  0.00    +0.000 OA
ATOM      4  N   UNK A   1      -5.867   1.751 128.980  0.00  0.00    +0.000 N 
ATOM      5  C   UNK A   1      -6.585   2.556 128.050  0.00  0.00    +0.000 C 
ATOM      6  C   UNK A   1      -6.894   3.916 128.687  0.00  0.00    +0.000 C 
ATOM      7  O   UNK A   1      -6.878   4.888 127.943  0.00  0.00    +0.000 OA
ATOM      8  N   LEU A   2      -7.227   3.902 130.054  0.00  0.00    +0.000 N 
ATOM      9  H   UNK A   1      -5.103   1.130 128.754  0.00  0.00    +0.000 HD
ENDROOT
BRANCH   5  10
ATOM     10  C   UNK A   1      -5.722   2.812 126.803  0.00  0.00    +0.000 C 
ATOM     11  C   UNK A   1      -6.585   2.799 125.532  0.00  0.00    +0.000 C 
ATOM     12  C   UNK A   1      -6.500   1.356 125.126  0.00  0.00    +0.000 A 
ATOM     13  C   UNK A   1      -7.417   0.635 124.385  0.00  0.00    +0.000 A 
ATOM     14  C   UNK A   1      -7.227  -0.743 124.257  0.00  0.00    +0.000 A 
ATOM     15  C   UNK A   1      -6.143  -1.383 124.881  0.00  0.00    +0.000 A 
ATOM     16  C   UNK A   1      -5.232  -0.654 125.647  0.00  0.00    +0.000 A 
ATOM     17  C   UNK A   1      -5.418   0.715 125.752  0.00  0.00    +0.000 A 
ATOM     18  C   UNK A   1      -4.662   1.680 126.616  0.00  0.00    +0.000 C 
ENDBRANCH   5  10
BRANCH   1  19
ATOM     19  CB  LEU A   2      -7.402   2.523 132.160  0.00  0.00    +0.000 C 
BRANCH  19  21
ATOM     20  CD1 LEU A   2      -8.902   3.477 133.935  0.00  0.00    +0.000 C 
ATOM     21  CG  LEU A   2      -8.661   2.332 132.991  0.00  0.00    +0.000 C 
ATOM     22  CD2 LEU A   2      -9.862   2.148 132.130  0.00  0.00    +0.000 C 
ENDBRANCH  19  21
ENDBRANCH   1  19
BRANCH   8  23
ATOM     23  C   UNK A   0      -7.383   5.205 130.870  0.00  0.00    +0.000 C 
BRANCH  23  24
ATOM     24  C   UNK A   0      -8.825   5.815 130.819  0.00  0.00    +0.000 A 
ATOM     25  C   UNK A   0      -9.511   6.109 129.624  0.00  0.00    +0.000 A 
ATOM     26  C   UNK A   0     -10.796   6.646 129.606  0.00  0.00    +0.000 A 
ATOM     27  C   UNK A   0     -11.510   6.755 130.784  0.00  0.00    +0.000 A 
ATOM     28  C   UNK A   0     -10.899   6.412 131.984  0.00  0.00    +0.000 A 
ATOM     29  C   UNK A   0      -9.551   6.027 132.010  0.00  0.00    +0.000 A 
ENDBRANCH  23  24
BRANCH  23  30
ATOM     30  C   UNK A   0      -6.260   6.342 130.557  0.00  0.00    +0.000 C 
ATOM     31  O   UNK A   0      -6.517   7.547 130.502  0.00  0.00    +0.000 OA
ATOM     32  N   UNK A   0      -4.950   5.995 130.230  0.00  0.00    +0.000 N 
ATOM     33  H   UNK A   0      -4.564   5.082 130.424  0.00  0.00    +0.000 HD
BRANCH  32  34
ATOM     34  C   UNK A   0      -4.050   7.026 129.702  0.00  0.00    +0.000 C 
ATOM     35  C   UNK A   0      -2.950   7.095 130.723  0.00  0.00    +0.000 C 
ATOM     36  C   UNK A   0      -3.397   6.787 128.338  0.00  0.00    +0.000 C 
ENDBRANCH  32  34
ENDBRANCH  23  30
ENDBRANCH   8  23
TORSDOF 7
ENDMDL
