MODEL 1
REMARK VINA RESULT:     -10.2      0.000      0.000
REMARK  Name = CHEMBL194233
REMARK  12 active torsions:
REMARK  status: ('A' for Active; 'I' for Inactive)
REMARK    1  A    between atoms: CD1_1  and  CG_2
REMARK    2  A    between atoms: CG_2  and  CD2_3
REMARK    3  A    between atoms: CG_2  and  CB_4
REMARK    4  A    between atoms: CB_4  and  CA_5
REMARK    5  A    between atoms: C_9  and  C_10
REMARK    6  A    between atoms: N_21  and  C_22
REMARK    7  A    between atoms: C_22  and  C_23
REMARK    8  A    between atoms: C_22  and  C_29
REMARK    9  A    between atoms: N_25  and  C_26
REMARK   10  A    between atoms: C_26  and  C_27
REMARK   11  A    between atoms: C_26  and  C_28
REMARK   12  A    between atoms: C_32  and  C_33
REMARK                            x       y       z     vdW  Elec       q    Type
REMARK                         _______ _______ _______ _____ _____    ______ ____
ROOT
ATOM      1  CA  LEU A   2      -5.014   3.010 128.283  0.00  0.00    +0.000 C 
ATOM      2  C   LEU A   2      -5.376   2.295 129.634  0.00  0.00    +0.000 C 
ATOM      3  O   LEU A   2      -4.715   1.537 130.271  0.00  0.00    +0.000 OA
ATOM      4  N   UNK A   1      -6.625   2.676 130.077  0.00  0.00    +0.000 N 
ATOM      5  C   UNK A   1      -7.426   3.663 129.380  0.00  0.00    +0.000 C 
ATOM      6  C   UNK A   1      -7.404   3.342 127.889  0.00  0.00    +0.000 C 
ATOM      7  O   UNK A   1      -8.364   3.620 127.170  0.00  0.00    +0.000 OA
ATOM      8  N   LEU A   2      -6.217   2.769 127.429  0.00  0.00    +0.000 N 
ATOM      9  H   UNK A   1      -6.929   2.181 130.907  0.00  0.00    +0.000 HD
ENDROOT
BRANCH   5  10
ATOM     10  C   UNK A   1      -8.916   3.614 129.750  0.00  0.00    +0.000 C 
ATOM     11  C   UNK A   1      -9.383   4.984 130.233  0.00  0.00    +0.000 C 
ATOM     12  C   UNK A   1      -9.142   4.858 131.707  0.00  0.00    +0.000 A 
ATOM     13  C   UNK A   1      -8.917   5.880 132.606  0.00  0.00    +0.000 A 
ATOM     14  C   UNK A   1      -8.579   5.541 133.918  0.00  0.00    +0.000 A 
ATOM     15  C   UNK A   1      -8.449   4.198 134.307  0.00  0.00    +0.000 A 
ATOM     16  C   UNK A   1      -8.649   3.169 133.388  0.00  0.00    +0.000 A 
ATOM     17  C   UNK A   1      -9.005   3.515 132.096  0.00  0.00    +0.000 A 
ATOM     18  C   UNK A   1      -9.167   2.611 130.919  0.00  0.00    +0.000 C 
ENDBRANCH   5  10
BRANCH   1  19
ATOM     19  CB  LEU A   2      -3.728   2.450 127.753  0.00  0.00    +0.000 C 
BRANCH  19  21
ATOM     20  CD1 LEU A   2      -1.610   3.072 126.520  0.00  0.00    +0.000 C 
ATOM     21  CG  LEU A   2      -2.477   3.421 127.676  0.00  0.00    +0.000 C 
ATOM     22  CD2 LEU A   2      -2.550   4.927 127.727  0.00  0.00    +0.000 C 
ENDBRANCH  19  21
ENDBRANCH   1  19
BRANCH   8  23
ATOM     23  C   UNK A   0      -6.238   2.165 126.028  0.00  0.00    +0.000 C 
BRANCH  23  24
ATOM     24  C   UNK A   0      -7.012   0.583 126.279  0.00  0.00    +0.000 A 
ATOM     25  C   UNK A   0      -8.396   0.315 125.888  0.00  0.00    +0.000 A 
ATOM     26  C   UNK A   0      -9.019  -0.947 125.993  0.00  0.00    +0.000 A 
ATOM     27  C   UNK A   0      -8.249  -2.070 126.267  0.00  0.00    +0.000 A 
ATOM     28  C   UNK A   0      -6.878  -1.879 126.481  0.00  0.00    +0.000 A 
ATOM     29  C   UNK A   0      -6.287  -0.588 126.555  0.00  0.00    +0.000 A 
BRANCH  27  30
ATOM     30  C   UNK A   0      -8.879  -3.441 126.331  0.00  0.00    +0.000 C 
ATOM     31  F   UNK A   0      -8.352  -4.289 125.405  0.00  0.00    +0.000 F 
ATOM     32  F   UNK A   0      -8.713  -4.056 127.536  0.00  0.00    +0.000 F 
ATOM     33  F   UNK A   0     -10.223  -3.431 126.104  0.00  0.00    +0.000 F 
ENDBRANCH  27  30
ENDBRANCH  23  24
BRANCH  23  34
ATOM     34  C   UNK A   0      -6.597   3.297 124.564  0.00  0.00    +0.000 C 
ATOM     35  O   UNK A   0      -6.463   4.529 124.602  0.00  0.00    +0.000 OA
ATOM     36  N   UNK A   0      -7.126   2.780 123.331  0.00  0.00    +0.000 N 
ATOM     37  H   UNK A   0      -6.936   1.807 123.235  0.00  0.00    +0.000 HD
BRANCH  36  38
ATOM     38  C   UNK A   0      -8.463   3.131 122.579  0.00  0.00    +0.000 C 
ATOM     39  C   UNK A   0      -8.340   3.576 121.098  0.00  0.00    +0.000 C 
ATOM     40  C   UNK A   0      -9.416   1.939 122.647  0.00  0.00    +0.000 C 
ENDBRANCH  36  38
ENDBRANCH  23  34
ENDBRANCH   8  23
TORSDOF 8
ENDMDL
MODEL 2
REMARK VINA RESULT:     -10.1      1.999      4.441
REMARK  Name = CHEMBL194233
REMARK  12 active torsions:
REMARK  status: ('A' for Active; 'I' for Inactive)
REMARK    1  A    between atoms: CD1_1  and  CG_2
REMARK    2  A    between atoms: CG_2  and  CD2_3
REMARK    3  A    between atoms: CG_2  and  CB_4
REMARK    4  A    between atoms: CB_4  and  CA_5
REMARK    5  A    between atoms: C_9  and  C_10
REMARK    6  A    between atoms: N_21  and  C_22
REMARK    7  A    between atoms: C_22  and  C_23
REMARK    8  A    between atoms: C_22  and  C_29
REMARK    9  A    between atoms: N_25  and  C_26
REMARK   10  A    between atoms: C_26  and  C_27
REMARK   11  A    between atoms: C_26  and  C_28
REMARK   12  A    between atoms: C_32  and  C_33
REMARK                            x       y       z     vdW  Elec       q    Type
REMARK                         _______ _______ _______ _____ _____    ______ ____
ROOT
ATOM      1  CA  LEU A   2      -7.493   2.623 126.984  0.00  0.00    +0.000 C 
ATOM      2  C   LEU A   2      -7.465   4.179 127.201  0.00  0.00    +0.000 C 
ATOM      3  O   LEU A   2      -6.891   5.005 126.564  0.00  0.00    +0.000 OA
ATOM      4  N   UNK A   1      -8.259   4.546 128.267  0.00  0.00    +0.000 N 
ATOM      5  C   UNK A   1      -9.046   3.583 129.013  0.00  0.00    +0.000 C 
ATOM      6  C   UNK A   1      -8.170   2.372 129.320  0.00  0.00    +0.000 C 
ATOM      7  O   UNK A   1      -8.352   1.705 130.338  0.00  0.00    +0.000 OA
ATOM      8  N   LEU A   2      -7.213   2.077 128.348  0.00  0.00    +0.000 N 
ATOM      9  H   UNK A   1      -8.211   5.533 128.488  0.00  0.00    +0.000 HD
ENDROOT
BRANCH   5  10
ATOM     10  C   UNK A   1      -9.481   4.089 130.396  0.00  0.00    +0.000 C 
ATOM     11  C   UNK A   1     -11.003   4.163 130.475  0.00  0.00    +0.000 C 
ATOM     12  C   UNK A   1     -11.237   5.574 130.024  0.00  0.00    +0.000 A 
ATOM     13  C   UNK A   1     -12.378   6.085 129.440  0.00  0.00    +0.000 A 
ATOM     14  C   UNK A   1     -12.346   7.398 128.968  0.00  0.00    +0.000 A 
ATOM     15  C   UNK A   1     -11.178   8.173 129.064  0.00  0.00    +0.000 A 
ATOM     16  C   UNK A   1     -10.018   7.643 129.628  0.00  0.00    +0.000 A 
ATOM     17  C   UNK A   1     -10.068   6.346 130.112  0.00  0.00    +0.000 A 
ATOM     18  C   UNK A   1      -8.942   5.530 130.656  0.00  0.00    +0.000 C 
ENDBRANCH   5  10
BRANCH   1  19
ATOM     19  CB  LEU A   2      -6.498   2.250 125.927  0.00  0.00    +0.000 C 
BRANCH  19  21
ATOM     20  CD1 LEU A   2      -6.338   3.161 123.573  0.00  0.00    +0.000 C 
ATOM     21  CG  LEU A   2      -7.013   2.151 124.431  0.00  0.00    +0.000 C 
ATOM     22  CD2 LEU A   2      -7.087   0.877 123.627  0.00  0.00    +0.000 C 
ENDBRANCH  19  21
ENDBRANCH   1  19
BRANCH   8  23
ATOM     23  C   UNK A   0      -6.130   1.073 128.726  0.00  0.00    +0.000 C 
BRANCH  23  24
ATOM     24  C   UNK A   0      -6.482  -0.320 127.677  0.00  0.00    +0.000 A 
ATOM     25  C   UNK A   0      -7.848  -0.757 127.385  0.00  0.00    +0.000 A 
ATOM     26  C   UNK A   0      -8.171  -1.803 126.495  0.00  0.00    +0.000 A 
ATOM     27  C   UNK A   0      -7.189  -2.323 125.662  0.00  0.00    +0.000 A 
ATOM     28  C   UNK A   0      -5.892  -1.809 125.792  0.00  0.00    +0.000 A 
ATOM     29  C   UNK A   0      -5.531  -0.887 126.813  0.00  0.00    +0.000 A 
BRANCH  27  30
ATOM     30  C   UNK A   0      -7.517  -3.404 124.661  0.00  0.00    +0.000 C 
ATOM     31  F   UNK A   0      -8.227  -2.922 123.603  0.00  0.00    +0.000 F 
ATOM     32  F   UNK A   0      -6.414  -4.001 124.128  0.00  0.00    +0.000 F 
ATOM     33  F   UNK A   0      -8.268  -4.415 125.182  0.00  0.00    +0.000 F 
ENDBRANCH  27  30
ENDBRANCH  23  24
BRANCH  23  34
ATOM     34  C   UNK A   0      -4.393   1.714 129.085  0.00  0.00    +0.000 C 
ATOM     35  O   UNK A   0      -4.007   2.051 130.214  0.00  0.00    +0.000 OA
ATOM     36  N   UNK A   0      -3.438   1.916 128.029  0.00  0.00    +0.000 N 
ATOM     37  H   UNK A   0      -3.664   1.371 127.226  0.00  0.00    +0.000 HD
BRANCH  36  38
ATOM     38  C   UNK A   0      -2.690   3.226 127.580  0.00  0.00    +0.000 C 
ATOM     39  C   UNK A   0      -1.576   3.068 126.512  0.00  0.00    +0.000 C 
ATOM     40  C   UNK A   0      -3.705   4.247 127.071  0.00  0.00    +0.000 C 
ENDBRANCH  36  38
ENDBRANCH  23  34
ENDBRANCH   8  23
TORSDOF 8
ENDMDL
MODEL 3
REMARK VINA RESULT:     -10.1      2.753      5.257
REMARK  Name = CHEMBL194233
REMARK  12 active torsions:
REMARK  status: ('A' for Active; 'I' for Inactive)
REMARK    1  A    between atoms: CD1_1  and  CG_2
REMARK    2  A    between atoms: CG_2  and  CD2_3
REMARK    3  A    between atoms: CG_2  and  CB_4
REMARK    4  A    between atoms: CB_4  and  CA_5
REMARK    5  A    between atoms: C_9  and  C_10
REMARK    6  A    between atoms: N_21  and  C_22
REMARK    7  A    between atoms: C_22  and  C_23
REMARK    8  A    between atoms: C_22  and  C_29
REMARK    9  A    between atoms: N_25  and  C_26
REMARK   10  A    between atoms: C_26  and  C_27
REMARK   11  A    between atoms: C_26  and  C_28
REMARK   12  A    between atoms: C_32  and  C_33
REMARK                            x       y       z     vdW  Elec       q    Type
REMARK                         _______ _______ _______ _____ _____    ______ ____
ROOT
ATOM      1  CA  LEU A   2      -7.510   2.847 128.155  0.00  0.00    +0.000 C 
ATOM      2  C   LEU A   2      -7.770   4.311 127.649  0.00  0.00    +0.000 C 
ATOM      3  O   LEU A   2      -7.376   4.831 126.653  0.00  0.00    +0.000 OA
ATOM      4  N   UNK A   1      -8.594   4.996 128.516  0.00  0.00    +0.000 N 
ATOM      5  C   UNK A   1      -9.170   4.373 129.693  0.00  0.00    +0.000 C 
ATOM      6  C   UNK A   1      -8.075   3.592 130.413  0.00  0.00    +0.000 C 
ATOM      7  O   UNK A   1      -8.106   3.448 131.636  0.00  0.00    +0.000 OA
ATOM      8  N   LEU A   2      -7.102   3.039 129.581  0.00  0.00    +0.000 N 
ATOM      9  H   UNK A   1      -8.728   5.968 128.266  0.00  0.00    +0.000 HD
ENDROOT
BRANCH   5  10
ATOM     10  C   UNK A   1      -9.661   5.381 130.741  0.00  0.00    +0.000 C 
ATOM     11  C   UNK A   1     -11.185   5.365 130.814  0.00  0.00    +0.000 C 
ATOM     12  C   UNK A   1     -11.524   6.429 129.814  0.00  0.00    +0.000 A 
ATOM     13  C   UNK A   1     -12.695   6.555 129.094  0.00  0.00    +0.000 A 
ATOM     14  C   UNK A   1     -12.761   7.543 128.111  0.00  0.00    +0.000 A 
ATOM     15  C   UNK A   1     -11.659   8.373 127.845  0.00  0.00    +0.000 A 
ATOM     16  C   UNK A   1     -10.468   8.223 128.554  0.00  0.00    +0.000 A 
ATOM     17  C   UNK A   1     -10.421   7.254 129.542  0.00  0.00    +0.000 A 
ATOM     18  C   UNK A   1      -9.241   6.834 130.355  0.00  0.00    +0.000 C 
ENDBRANCH   5  10
BRANCH   1  19
ATOM     19  CB  LEU A   2      -6.486   2.191 127.277  0.00  0.00    +0.000 C 
BRANCH  19  21
ATOM     20  CD1 LEU A   2      -5.703   0.105 126.082  0.00  0.00    +0.000 C 
ATOM     21  CG  LEU A   2      -6.905   0.862 126.521  0.00  0.00    +0.000 C 
ATOM     22  CD2 LEU A   2      -7.892  -0.152 127.043  0.00  0.00    +0.000 C 
ENDBRANCH  19  21
ENDBRANCH   1  19
BRANCH   8  23
ATOM     23  C   UNK A   0      -5.841   2.503 130.251  0.00  0.00    +0.000 C 
BRANCH  23  24
ATOM     24  C   UNK A   0      -6.018   0.740 130.103  0.00  0.00    +0.000 A 
ATOM     25  C   UNK A   0      -4.918  -0.126 129.676  0.00  0.00    +0.000 A 
ATOM     26  C   UNK A   0      -4.994  -1.535 129.626  0.00  0.00    +0.000 A 
ATOM     27  C   UNK A   0      -6.071  -2.185 130.214  0.00  0.00    +0.000 A 
ATOM     28  C   UNK A   0      -7.071  -1.391 130.789  0.00  0.00    +0.000 A 
ATOM     29  C   UNK A   0      -7.083   0.027 130.677  0.00  0.00    +0.000 A 
BRANCH  27  30
ATOM     30  C   UNK A   0      -6.151  -3.693 130.225  0.00  0.00    +0.000 C 
ATOM     31  F   UNK A   0      -6.382  -4.183 131.474  0.00  0.00    +0.000 F 
ATOM     32  F   UNK A   0      -7.150  -4.187 129.440  0.00  0.00    +0.000 F 
ATOM     33  F   UNK A   0      -5.009  -4.299 129.793  0.00  0.00    +0.000 F 
ENDBRANCH  27  30
ENDBRANCH  23  24
BRANCH  23  34
ATOM     34  C   UNK A   0      -4.219   3.429 129.988  0.00  0.00    +0.000 C 
ATOM     35  O   UNK A   0      -3.888   4.429 130.642  0.00  0.00    +0.000 OA
ATOM     36  N   UNK A   0      -3.306   3.055 128.942  0.00  0.00    +0.000 N 
ATOM     37  H   UNK A   0      -3.448   2.111 128.657  0.00  0.00    +0.000 HD
BRANCH  36  38
ATOM     38  C   UNK A   0      -2.762   3.893 127.726  0.00  0.00    +0.000 C 
ATOM     39  C   UNK A   0      -1.986   3.118 126.629  0.00  0.00    +0.000 C 
ATOM     40  C   UNK A   0      -3.916   4.642 127.064  0.00  0.00    +0.000 C 
ENDBRANCH  36  38
ENDBRANCH  23  34
ENDBRANCH   8  23
TORSDOF 8
ENDMDL
MODEL 4
REMARK VINA RESULT:     -10.0      4.113      8.191
REMARK  Name = CHEMBL194233
REMARK  12 active torsions:
REMARK  status: ('A' for Active; 'I' for Inactive)
REMARK    1  A    between atoms: CD1_1  and  CG_2
REMARK    2  A    between atoms: CG_2  and  CD2_3
REMARK    3  A    between atoms: CG_2  and  CB_4
REMARK    4  A    between atoms: CB_4  and  CA_5
REMARK    5  A    between atoms: C_9  and  C_10
REMARK    6  A    between atoms: N_21  and  C_22
REMARK    7  A    between atoms: C_22  and  C_23
REMARK    8  A    between atoms: C_22  and  C_29
REMARK    9  A    between atoms: N_25  and  C_26
REMARK   10  A    between atoms: C_26  and  C_27
REMARK   11  A    between atoms: C_26  and  C_28
REMARK   12  A    between atoms: C_32  and  C_33
REMARK                            x       y       z     vdW  Elec       q    Type
REMARK                         _______ _______ _______ _____ _____    ______ ____
ROOT
ATOM      1  CA  LEU A   2      -5.588   3.004 127.151  0.00  0.00    +0.000 C 
ATOM      2  C   LEU A   2      -6.210   2.733 125.734  0.00  0.00    +0.000 C 
ATOM      3  O   LEU A   2      -6.301   3.478 124.810  0.00  0.00    +0.000 OA
ATOM      4  N   UNK A   1      -6.653   1.432 125.629  0.00  0.00    +0.000 N 
ATOM      5  C   UNK A   1      -6.481   0.466 126.696  0.00  0.00    +0.000 C 
ATOM      6  C   UNK A   1      -6.885   1.120 128.014  0.00  0.00    +0.000 C 
ATOM      7  O   UNK A   1      -7.359   0.449 128.931  0.00  0.00    +0.000 OA
ATOM      8  N   LEU A   2      -6.630   2.490 128.093  0.00  0.00    +0.000 N 
ATOM      9  H   UNK A   1      -7.129   1.235 124.757  0.00  0.00    +0.000 HD
ENDROOT
BRANCH   5  10
ATOM     10  C   UNK A   1      -7.415  -0.748 126.581  0.00  0.00    +0.000 C 
ATOM     11  C   UNK A   1      -6.607  -2.041 126.636  0.00  0.00    +0.000 C 
ATOM     12  C   UNK A   1      -6.339  -2.266 125.179  0.00  0.00    +0.000 A 
ATOM     13  C   UNK A   1      -5.294  -2.974 124.621  0.00  0.00    +0.000 A 
ATOM     14  C   UNK A   1      -5.149  -2.952 123.233  0.00  0.00    +0.000 A 
ATOM     15  C   UNK A   1      -6.028  -2.212 122.426  0.00  0.00    +0.000 A 
ATOM     16  C   UNK A   1      -7.066  -1.474 122.995  0.00  0.00    +0.000 A 
ATOM     17  C   UNK A   1      -7.213  -1.520 124.371  0.00  0.00    +0.000 A 
ATOM     18  C   UNK A   1      -8.169  -0.742 125.214  0.00  0.00    +0.000 C 
ENDBRANCH   5  10
BRANCH   1  19
ATOM     19  CB  LEU A   2      -5.268   4.463 127.283  0.00  0.00    +0.000 C 
BRANCH  19  21
ATOM     20  CD1 LEU A   2      -3.612   6.256 127.946  0.00  0.00    +0.000 C 
ATOM     21  CG  LEU A   2      -3.743   4.876 127.409  0.00  0.00    +0.000 C 
ATOM     22  CD2 LEU A   2      -2.678   4.044 128.081  0.00  0.00    +0.000 C 
ENDBRANCH  19  21
ENDBRANCH   1  19
BRANCH   8  23
ATOM     23  C   UNK A   0      -7.268   3.247 129.252  0.00  0.00    +0.000 C 
BRANCH  23  24
ATOM     24  C   UNK A   0      -5.907   3.509 130.366  0.00  0.00    +0.000 A 
ATOM     25  C   UNK A   0      -4.934   2.461 130.677  0.00  0.00    +0.000 A 
ATOM     26  C   UNK A   0      -3.796   2.654 131.489  0.00  0.00    +0.000 A 
ATOM     27  C   UNK A   0      -3.420   3.941 131.850  0.00  0.00    +0.000 A 
ATOM     28  C   UNK A   0      -4.238   4.997 131.426  0.00  0.00    +0.000 A 
ATOM     29  C   UNK A   0      -5.480   4.786 130.765  0.00  0.00    +0.000 A 
BRANCH  27  30
ATOM     30  C   UNK A   0      -2.177   4.181 132.672  0.00  0.00    +0.000 C 
ATOM     31  F   UNK A   0      -1.563   3.017 133.021  0.00  0.00    +0.000 F 
ATOM     32  F   UNK A   0      -1.233   4.920 132.021  0.00  0.00    +0.000 F 
ATOM     33  F   UNK A   0      -2.418   4.840 133.840  0.00  0.00    +0.000 F 
ENDBRANCH  27  30
ENDBRANCH  23  24
BRANCH  23  34
ATOM     34  C   UNK A   0      -8.583   4.542 128.866  0.00  0.00    +0.000 C 
ATOM     35  O   UNK A   0      -8.636   5.167 127.796  0.00  0.00    +0.000 OA
ATOM     36  N   UNK A   0      -9.563   4.927 129.845  0.00  0.00    +0.000 N 
ATOM     37  H   UNK A   0      -9.678   4.222 130.540  0.00  0.00    +0.000 HD
BRANCH  36  38
ATOM     38  C   UNK A   0      -9.863   6.338 130.475  0.00  0.00    +0.000 C 
ATOM     39  C   UNK A   0     -10.805   6.372 131.708  0.00  0.00    +0.000 C 
ATOM     40  C   UNK A   0      -8.550   7.020 130.852  0.00  0.00    +0.000 C 
ENDBRANCH  36  38
ENDBRANCH  23  34
ENDBRANCH   8  23
TORSDOF 8
ENDMDL
MODEL 5
REMARK VINA RESULT:      -9.8      4.949      8.100
REMARK  Name = CHEMBL194233
REMARK  12 active torsions:
REMARK  status: ('A' for Active; 'I' for Inactive)
REMARK    1  A    between atoms: CD1_1  and  CG_2
REMARK    2  A    between atoms: CG_2  and  CD2_3
REMARK    3  A    between atoms: CG_2  and  CB_4
REMARK    4  A    between atoms: CB_4  and  CA_5
REMARK    5  A    between atoms: C_9  and  C_10
REMARK    6  A    between atoms: N_21  and  C_22
REMARK    7  A    between atoms: C_22  and  C_23
REMARK    8  A    between atoms: C_22  and  C_29
REMARK    9  A    between atoms: N_25  and  C_26
REMARK   10  A    between atoms: C_26  and  C_27
REMARK   11  A    between atoms: C_26  and  C_28
REMARK   12  A    between atoms: C_32  and  C_33
REMARK                            x       y       z     vdW  Elec       q    Type
REMARK                         _______ _______ _______ _____ _____    ______ ____
ROOT
ATOM      1  CA  LEU A   2      -8.097   2.582 129.144  0.00  0.00    +0.000 C 
ATOM      2  C   LEU A   2      -8.016   3.945 128.368  0.00  0.00    +0.000 C 
ATOM      3  O   LEU A   2      -7.525   4.164 127.305  0.00  0.00    +0.000 OA
ATOM      4  N   UNK A   1      -8.644   4.953 129.068  0.00  0.00    +0.000 N 
ATOM      5  C   UNK A   1      -9.332   4.712 130.322  0.00  0.00    +0.000 C 
ATOM      6  C   UNK A   1      -8.440   3.848 131.207  0.00  0.00    +0.000 C 
ATOM      7  O   UNK A   1      -8.486   3.946 132.434  0.00  0.00    +0.000 OA
ATOM      8  N   LEU A   2      -7.635   2.938 130.521  0.00  0.00    +0.000 N 
ATOM      9  H   UNK A   1      -8.551   5.865 128.638  0.00  0.00    +0.000 HD
ENDROOT
BRANCH   5  10
ATOM     10  C   UNK A   1      -9.559   5.985 131.150  0.00  0.00    +0.000 C 
ATOM     11  C   UNK A   1     -11.041   6.145 131.474  0.00  0.00    +0.000 C 
ATOM     12  C   UNK A   1     -11.494   6.973 130.309  0.00  0.00    +0.000 A 
ATOM     13  C   UNK A   1     -12.768   7.047 129.783  0.00  0.00    +0.000 A 
ATOM     14  C   UNK A   1     -12.955   7.776 128.607  0.00  0.00    +0.000 A 
ATOM     15  C   UNK A   1     -11.873   8.400 127.964  0.00  0.00    +0.000 A 
ATOM     16  C   UNK A   1     -10.582   8.298 128.483  0.00  0.00    +0.000 A 
ATOM     17  C   UNK A   1     -10.413   7.590 129.661  0.00  0.00    +0.000 A 
ATOM     18  C   UNK A   1      -9.130   7.254 130.348  0.00  0.00    +0.000 C 
ENDBRANCH   5  10
BRANCH   1  19
ATOM     19  CB  LEU A   2      -7.268   1.555 128.435  0.00  0.00    +0.000 C 
BRANCH  19  21
ATOM     20  CD1 LEU A   2      -8.004  -0.491 127.143  0.00  0.00    +0.000 C 
ATOM     21  CG  LEU A   2      -7.745   0.044 128.506  0.00  0.00    +0.000 C 
ATOM     22  CD2 LEU A   2      -7.043  -1.047 129.276  0.00  0.00    +0.000 C 
ENDBRANCH  19  21
ENDBRANCH   1  19
BRANCH   8  23
ATOM     23  C   UNK A   0      -6.524   2.260 131.317  0.00  0.00    +0.000 C 
BRANCH  23  24
ATOM     24  C   UNK A   0      -5.227   3.477 131.325  0.00  0.00    +0.000 A 
ATOM     25  C   UNK A   0      -4.855   4.219 132.530  0.00  0.00    +0.000 A 
ATOM     26  C   UNK A   0      -3.779   5.130 132.598  0.00  0.00    +0.000 A 
ATOM     27  C   UNK A   0      -2.864   5.189 131.555  0.00  0.00    +0.000 A 
ATOM     28  C   UNK A   0      -3.092   4.364 130.447  0.00  0.00    +0.000 A 
ATOM     29  C   UNK A   0      -4.271   3.583 130.302  0.00  0.00    +0.000 A 
BRANCH  27  30
ATOM     30  C   UNK A   0      -1.673   6.115 131.625  0.00  0.00    +0.000 C 
ATOM     31  F   UNK A   0      -1.262   6.512 130.388  0.00  0.00    +0.000 F 
ATOM     32  F   UNK A   0      -1.918   7.260 132.322  0.00  0.00    +0.000 F 
ATOM     33  F   UNK A   0      -0.582   5.550 132.215  0.00  0.00    +0.000 F 
ENDBRANCH  27  30
ENDBRANCH  23  24
BRANCH  23  34
ATOM     34  C   UNK A   0      -6.998   1.209 132.809  0.00  0.00    +0.000 C 
ATOM     35  O   UNK A   0      -6.865   1.586 133.982  0.00  0.00    +0.000 OA
ATOM     36  N   UNK A   0      -7.477  -0.138 132.653  0.00  0.00    +0.000 N 
ATOM     37  H   UNK A   0      -7.846  -0.288 131.739  0.00  0.00    +0.000 HD
BRANCH  36  38
ATOM     38  C   UNK A   0      -6.894  -1.489 133.212  0.00  0.00    +0.000 C 
ATOM     39  C   UNK A   0      -7.466  -2.802 132.614  0.00  0.00    +0.000 C 
ATOM     40  C   UNK A   0      -5.376  -1.502 133.041  0.00  0.00    +0.000 C 
ENDBRANCH  36  38
ENDBRANCH  23  34
ENDBRANCH   8  23
TORSDOF 8
ENDMDL
MODEL 6
REMARK VINA RESULT:      -9.6      3.232      4.977
REMARK  Name = CHEMBL194233
REMARK  12 active torsions:
REMARK  status: ('A' for Active; 'I' for Inactive)
REMARK    1  A    between atoms: CD1_1  and  CG_2
REMARK    2  A    between atoms: CG_2  and  CD2_3
REMARK    3  A    between atoms: CG_2  and  CB_4
REMARK    4  A    between atoms: CB_4  and  CA_5
REMARK    5  A    between atoms: C_9  and  C_10
REMARK    6  A    between atoms: N_21  and  C_22
REMARK    7  A    between atoms: C_22  and  C_23
REMARK    8  A    between atoms: C_22  and  C_29
REMARK    9  A    between atoms: N_25  and  C_26
REMARK   10  A    between atoms: C_26  and  C_27
REMARK   11  A    between atoms: C_26  and  C_28
REMARK   12  A    between atoms: C_32  and  C_33
REMARK                            x       y       z     vdW  Elec       q    Type
REMARK                         _______ _______ _______ _____ _____    ______ ____
ROOT
ATOM      1  CA  LEU A   2      -5.462   2.771 128.338  0.00  0.00    +0.000 C 
ATOM      2  C   LEU A   2      -5.488   2.588 129.898  0.00  0.00    +0.000 C 
ATOM      3  O   LEU A   2      -4.589   2.304 130.625  0.00  0.00    +0.000 OA
ATOM      4  N   UNK A   1      -6.745   2.838 130.405  0.00  0.00    +0.000 N 
ATOM      5  C   UNK A   1      -7.846   3.274 129.568  0.00  0.00    +0.000 C 
ATOM      6  C   UNK A   1      -7.879   2.403 128.316  0.00  0.00    +0.000 C 
ATOM      7  O   UNK A   1      -8.942   2.163 127.744  0.00  0.00    +0.000 OA
ATOM      8  N   LEU A   2      -6.631   1.962 127.874  0.00  0.00    +0.000 N 
ATOM      9  H   UNK A   1      -6.825   2.659 131.399  0.00  0.00    +0.000 HD
ENDROOT
BRANCH   5  10
ATOM     10  C   UNK A   1      -9.225   3.059 130.208  0.00  0.00    +0.000 C 
ATOM     11  C   UNK A   1      -9.857   4.403 130.559  0.00  0.00    +0.000 C 
ATOM     12  C   UNK A   1      -9.370   4.582 131.966  0.00  0.00    +0.000 A 
ATOM     13  C   UNK A   1      -9.202   5.771 132.646  0.00  0.00    +0.000 A 
ATOM     14  C   UNK A   1      -8.607   5.730 133.908  0.00  0.00    +0.000 A 
ATOM     15  C   UNK A   1      -8.172   4.515 134.463  0.00  0.00    +0.000 A 
ATOM     16  C   UNK A   1      -8.318   3.319 133.761  0.00  0.00    +0.000 A 
ATOM     17  C   UNK A   1      -8.928   3.369 132.519  0.00  0.00    +0.000 A 
ATOM     18  C   UNK A   1      -9.101   2.255 131.540  0.00  0.00    +0.000 C 
ENDBRANCH   5  10
BRANCH   1  19
ATOM     19  CB  LEU A   2      -4.130   2.334 127.808  0.00  0.00    +0.000 C 
BRANCH  19  21
ATOM     20  CD1 LEU A   2      -2.033   3.097 126.616  0.00  0.00    +0.000 C 
ATOM     21  CG  LEU A   2      -2.980   3.423 127.715  0.00  0.00    +0.000 C 
ATOM     22  CD2 LEU A   2      -3.207   4.914 127.668  0.00  0.00    +0.000 C 
ENDBRANCH  19  21
ENDBRANCH   1  19
BRANCH   8  23
ATOM     23  C   UNK A   0      -6.621   0.864 126.815  0.00  0.00    +0.000 C 
BRANCH  23  24
ATOM     24  C   UNK A   0      -6.672   1.771 125.286  0.00  0.00    +0.000 A 
ATOM     25  C   UNK A   0      -5.760   2.879 125.000  0.00  0.00    +0.000 A 
ATOM     26  C   UNK A   0      -5.713   3.568 123.769  0.00  0.00    +0.000 A 
ATOM     27  C   UNK A   0      -6.393   3.058 122.672  0.00  0.00    +0.000 A 
ATOM     28  C   UNK A   0      -7.148   1.893 122.862  0.00  0.00    +0.000 A 
ATOM     29  C   UNK A   0      -7.340   1.305 124.142  0.00  0.00    +0.000 A 
BRANCH  27  30
ATOM     30  C   UNK A   0      -6.316   3.744 121.329  0.00  0.00    +0.000 C 
ATOM     31  F   UNK A   0      -5.751   2.947 120.380  0.00  0.00    +0.000 F 
ATOM     32  F   UNK A   0      -7.535   4.103 120.835  0.00  0.00    +0.000 F 
ATOM     33  F   UNK A   0      -5.574   4.886 121.345  0.00  0.00    +0.000 F 
ENDBRANCH  27  30
ENDBRANCH  23  24
BRANCH  23  34
ATOM     34  C   UNK A   0      -5.546  -0.658 127.107  0.00  0.00    +0.000 C 
ATOM     35  O   UNK A   0      -5.317  -1.512 126.238  0.00  0.00    +0.000 OA
ATOM     36  N   UNK A   0      -4.990  -0.943 128.402  0.00  0.00    +0.000 N 
ATOM     37  H   UNK A   0      -4.937  -0.121 128.963  0.00  0.00    +0.000 HD
BRANCH  36  38
ATOM     38  C   UNK A   0      -5.181  -2.200 129.329  0.00  0.00    +0.000 C 
ATOM     39  C   UNK A   0      -6.545  -2.935 129.245  0.00  0.00    +0.000 C 
ATOM     40  C   UNK A   0      -4.070  -3.212 129.055  0.00  0.00    +0.000 C 
ENDBRANCH  36  38
ENDBRANCH  23  34
ENDBRANCH   8  23
TORSDOF 8
ENDMDL
MODEL 7
REMARK VINA RESULT:      -9.6      4.636      8.270
REMARK  Name = CHEMBL194233
REMARK  12 active torsions:
REMARK  status: ('A' for Active; 'I' for Inactive)
REMARK    1  A    between atoms: CD1_1  and  CG_2
REMARK    2  A    between atoms: CG_2  and  CD2_3
REMARK    3  A    between atoms: CG_2  and  CB_4
REMARK    4  A    between atoms: CB_4  and  CA_5
REMARK    5  A    between atoms: C_9  and  C_10
REMARK    6  A    between atoms: N_21  and  C_22
REMARK    7  A    between atoms: C_22  and  C_23
REMARK    8  A    between atoms: C_22  and  C_29
REMARK    9  A    between atoms: N_25  and  C_26
REMARK   10  A    between atoms: C_26  and  C_27
REMARK   11  A    between atoms: C_26  and  C_28
REMARK   12  A    between atoms: C_32  and  C_33
REMARK                            x       y       z     vdW  Elec       q    Type
REMARK                         _______ _______ _______ _____ _____    ______ ____
ROOT
ATOM      1  CA  LEU A   2      -7.138   3.134 131.769  0.00  0.00    +0.000 C 
ATOM      2  C   LEU A   2      -5.940   2.119 131.792  0.00  0.00    +0.000 C 
ATOM      3  O   LEU A   2      -5.096   1.988 132.622  0.00  0.00    +0.000 OA
ATOM      4  N   UNK A   1      -5.966   1.297 130.686  0.00  0.00    +0.000 N 
ATOM      5  C   UNK A   1      -7.024   1.362 129.696  0.00  0.00    +0.000 C 
ATOM      6  C   UNK A   1      -7.273   2.826 129.348  0.00  0.00    +0.000 C 
ATOM      7  O   UNK A   1      -7.665   3.148 128.226  0.00  0.00    +0.000 OA
ATOM      8  N   LEU A   2      -7.069   3.724 130.396  0.00  0.00    +0.000 N 
ATOM      9  H   UNK A   1      -5.168   0.676 130.622  0.00  0.00    +0.000 HD
ENDROOT
BRANCH   5  10
ATOM     10  C   UNK A   1      -6.649   0.718 128.355  0.00  0.00    +0.000 C 
ATOM     11  C   UNK A   1      -7.740  -0.253 127.913  0.00  0.00    +0.000 C 
ATOM     12  C   UNK A   1      -7.242  -1.529 128.523  0.00  0.00    +0.000 A 
ATOM     13  C   UNK A   1      -7.991  -2.631 128.882  0.00  0.00    +0.000 A 
ATOM     14  C   UNK A   1      -7.352  -3.670 129.561  0.00  0.00    +0.000 A 
ATOM     15  C   UNK A   1      -5.989  -3.588 129.891  0.00  0.00    +0.000 A 
ATOM     16  C   UNK A   1      -5.242  -2.460 129.552  0.00  0.00    +0.000 A 
ATOM     17  C   UNK A   1      -5.881  -1.445 128.859  0.00  0.00    +0.000 A 
ATOM     18  C   UNK A   1      -5.331  -0.109 128.483  0.00  0.00    +0.000 C 
ENDBRANCH   5  10
BRANCH   1  19
ATOM     19  CB  LEU A   2      -6.984   4.112 132.895  0.00  0.00    +0.000 C 
BRANCH  19  21
ATOM     20  CD1 LEU A   2      -7.866   5.175 135.014  0.00  0.00    +0.000 C 
ATOM     21  CG  LEU A   2      -7.991   3.998 134.114  0.00  0.00    +0.000 C 
ATOM     22  CD2 LEU A   2      -9.465   3.700 133.990  0.00  0.00    +0.000 C 
ENDBRANCH  19  21
ENDBRANCH   1  19
BRANCH   8  23
ATOM     23  C   UNK A   0      -7.018   5.206 130.039  0.00  0.00    +0.000 C 
BRANCH  23  24
ATOM     24  C   UNK A   0      -8.713   5.720 130.192  0.00  0.00    +0.000 A 
ATOM     25  C   UNK A   0      -9.258   6.271 131.434  0.00  0.00    +0.000 A 
ATOM     26  C   UNK A   0     -10.572   6.767 131.570  0.00  0.00    +0.000 A 
ATOM     27  C   UNK A   0     -11.351   6.968 130.437  0.00  0.00    +0.000 A 
ATOM     28  C   UNK A   0     -10.798   6.609 129.201  0.00  0.00    +0.000 A 
ATOM     29  C   UNK A   0      -9.548   5.942 129.084  0.00  0.00    +0.000 A 
BRANCH  27  30
ATOM     30  C   UNK A   0     -12.740   7.549 130.548  0.00  0.00    +0.000 C 
ATOM     31  F   UNK A   0     -12.755   8.887 130.295  0.00  0.00    +0.000 F 
ATOM     32  F   UNK A   0     -13.629   6.994 129.675  0.00  0.00    +0.000 F 
ATOM     33  F   UNK A   0     -13.294   7.397 131.784  0.00  0.00    +0.000 F 
ENDBRANCH  27  30
ENDBRANCH  23  24
BRANCH  23  34
ATOM     34  C   UNK A   0      -5.546   6.224 130.632  0.00  0.00    +0.000 C 
ATOM     35  O   UNK A   0      -5.361   7.409 130.316  0.00  0.00    +0.000 OA
ATOM     36  N   UNK A   0      -4.507   5.639 131.436  0.00  0.00    +0.000 N 
ATOM     37  H   UNK A   0      -4.828   4.820 131.904  0.00  0.00    +0.000 HD
BRANCH  36  38
ATOM     38  C   UNK A   0      -2.963   5.512 131.158  0.00  0.00    +0.000 C 
ATOM     39  C   UNK A   0      -2.155   4.576 132.094  0.00  0.00    +0.000 C 
ATOM     40  C   UNK A   0      -2.738   5.064 129.715  0.00  0.00    +0.000 C 
ENDBRANCH  36  38
ENDBRANCH  23  34
ENDBRANCH   8  23
TORSDOF 8
ENDMDL
MODEL 8
REMARK VINA RESULT:      -9.5      4.507      7.214
REMARK  Name = CHEMBL194233
REMARK  12 active torsions:
REMARK  status: ('A' for Active; 'I' for Inactive)
REMARK    1  A    between atoms: CD1_1  and  CG_2
REMARK    2  A    between atoms: CG_2  and  CD2_3
REMARK    3  A    between atoms: CG_2  and  CB_4
REMARK    4  A    between atoms: CB_4  and  CA_5
REMARK    5  A    between atoms: C_9  and  C_10
REMARK    6  A    between atoms: N_21  and  C_22
REMARK    7  A    between atoms: C_22  and  C_23
REMARK    8  A    between atoms: C_22  and  C_29
REMARK    9  A    between atoms: N_25  and  C_26
REMARK   10  A    between atoms: C_26  and  C_27
REMARK   11  A    between atoms: C_26  and  C_28
REMARK   12  A    between atoms: C_32  and  C_33
REMARK                            x       y       z     vdW  Elec       q    Type
REMARK                         _______ _______ _______ _____ _____    ______ ____
ROOT
ATOM      1  CA  LEU A   2      -7.593   5.621 131.808  0.00  0.00    +0.000 C 
ATOM      2  C   LEU A   2      -8.674   6.043 132.867  0.00  0.00    +0.000 C 
ATOM      3  O   LEU A   2      -8.521   6.297 134.020  0.00  0.00    +0.000 OA
ATOM      4  N   UNK A   1      -9.923   6.134 132.292  0.00  0.00    +0.000 N 
ATOM      5  C   UNK A   1     -10.140   5.921 130.874  0.00  0.00    +0.000 C 
ATOM      6  C   UNK A   1      -9.387   4.664 130.450  0.00  0.00    +0.000 C 
ATOM      7  O   UNK A   1      -9.803   3.960 129.530  0.00  0.00    +0.000 OA
ATOM      8  N   LEU A   2      -8.202   4.425 131.147  0.00  0.00    +0.000 N 
ATOM      9  H   UNK A   1     -10.663   6.330 132.955  0.00  0.00    +0.000 HD
ENDROOT
BRANCH   5  10
ATOM     10  C   UNK A   1     -11.602   5.617 130.517  0.00  0.00    +0.000 C 
ATOM     11  C   UNK A   1     -11.895   6.050 129.083  0.00  0.00    +0.000 C 
ATOM     12  C   UNK A   1     -12.372   7.454 129.307  0.00  0.00    +0.000 A 
ATOM     13  C   UNK A   1     -12.334   8.501 128.409  0.00  0.00    +0.000 A 
ATOM     14  C   UNK A   1     -12.705   9.769 128.860  0.00  0.00    +0.000 A 
ATOM     15  C   UNK A   1     -13.086   9.979 130.195  0.00  0.00    +0.000 A 
ATOM     16  C   UNK A   1     -13.095   8.924 131.107  0.00  0.00    +0.000 A 
ATOM     17  C   UNK A   1     -12.746   7.667 130.644  0.00  0.00    +0.000 A 
ATOM     18  C   UNK A   1     -12.578   6.414 131.439  0.00  0.00    +0.000 C 
ENDBRANCH   5  10
BRANCH   1  19
ATOM     19  CB  LEU A   2      -6.287   5.376 132.500  0.00  0.00    +0.000 C 
BRANCH  19  21
ATOM     20  CD1 LEU A   2      -5.363   7.029 130.823  0.00  0.00    +0.000 C 
ATOM     21  CG  LEU A   2      -4.996   6.088 131.915  0.00  0.00    +0.000 C 
ATOM     22  CD2 LEU A   2      -3.939   6.773 132.744  0.00  0.00    +0.000 C 
ENDBRANCH  19  21
ENDBRANCH   1  19
BRANCH   8  23
ATOM     23  C   UNK A   0      -7.563   3.051 130.977  0.00  0.00    +0.000 C 
BRANCH  23  24
ATOM     24  C   UNK A   0      -6.305   3.336 129.752  0.00  0.00    +0.000 A 
ATOM     25  C   UNK A   0      -4.885   3.098 130.016  0.00  0.00    +0.000 A 
ATOM     26  C   UNK A   0      -3.867   3.232 129.047  0.00  0.00    +0.000 A 
ATOM     27  C   UNK A   0      -4.208   3.379 127.709  0.00  0.00    +0.000 A 
ATOM     28  C   UNK A   0      -5.571   3.441 127.392  0.00  0.00    +0.000 A 
ATOM     29  C   UNK A   0      -6.588   3.489 128.385  0.00  0.00    +0.000 A 
BRANCH  27  30
ATOM     30  C   UNK A   0      -3.141   3.469 126.645  0.00  0.00    +0.000 C 
ATOM     31  F   UNK A   0      -3.591   4.094 125.522  0.00  0.00    +0.000 F 
ATOM     32  F   UNK A   0      -2.038   4.166 127.043  0.00  0.00    +0.000 F 
ATOM     33  F   UNK A   0      -2.680   2.254 126.235  0.00  0.00    +0.000 F 
ENDBRANCH  27  30
ENDBRANCH  23  24
BRANCH  23  34
ATOM     34  C   UNK A   0      -7.326   1.972 132.505  0.00  0.00    +0.000 C 
ATOM     35  O   UNK A   0      -7.842   2.219 133.605  0.00  0.00    +0.000 OA
ATOM     36  N   UNK A   0      -6.457   0.827 132.484  0.00  0.00    +0.000 N 
ATOM     37  H   UNK A   0      -6.314   0.497 131.555  0.00  0.00    +0.000 HD
BRANCH  36  38
ATOM     38  C   UNK A   0      -5.186   0.507 133.356  0.00  0.00    +0.000 C 
ATOM     39  C   UNK A   0      -4.383  -0.769 132.985  0.00  0.00    +0.000 C 
ATOM     40  C   UNK A   0      -4.234   1.700 133.331  0.00  0.00    +0.000 C 
ENDBRANCH  36  38
ENDBRANCH  23  34
ENDBRANCH   8  23
TORSDOF 8
ENDMDL
MODEL 9
REMARK VINA RESULT:      -9.5      4.579      7.417
REMARK  Name = CHEMBL194233
REMARK  12 active torsions:
REMARK  status: ('A' for Active; 'I' for Inactive)
REMARK    1  A    between atoms: CD1_1  and  CG_2
REMARK    2  A    between atoms: CG_2  and  CD2_3
REMARK    3  A    between atoms: CG_2  and  CB_4
REMARK    4  A    between atoms: CB_4  and  CA_5
REMARK    5  A    between atoms: C_9  and  C_10
REMARK    6  A    between atoms: N_21  and  C_22
REMARK    7  A    between atoms: C_22  and  C_23
REMARK    8  A    between atoms: C_22  and  C_29
REMARK    9  A    between atoms: N_25  and  C_26
REMARK   10  A    between atoms: C_26  and  C_27
REMARK   11  A    between atoms: C_26  and  C_28
REMARK   12  A    between atoms: C_32  and  C_33
REMARK                            x       y       z     vdW  Elec       q    Type
REMARK                         _______ _______ _______ _____ _____    ______ ____
ROOT
ATOM      1  CA  LEU A   2      -6.588   3.074 131.902  0.00  0.00    +0.000 C 
ATOM      2  C   LEU A   2      -6.392   4.425 132.678  0.00  0.00    +0.000 C 
ATOM      3  O   LEU A   2      -6.844   4.747 133.732  0.00  0.00    +0.000 OA
ATOM      4  N   UNK A   1      -5.551   5.274 131.991  0.00  0.00    +0.000 N 
ATOM      5  C   UNK A   1      -4.908   4.890 130.750  0.00  0.00    +0.000 C 
ATOM      6  C   UNK A   1      -5.947   4.232 129.847  0.00  0.00    +0.000 C 
ATOM      7  O   UNK A   1      -5.859   4.315 128.622  0.00  0.00    +0.000 OA
ATOM      8  N   LEU A   2      -6.940   3.516 130.517  0.00  0.00    +0.000 N 
ATOM      9  H   UNK A   1      -5.457   6.187 132.420  0.00  0.00    +0.000 HD
ENDROOT
BRANCH   5  10
ATOM     10  C   UNK A   1      -4.401   6.083 129.927  0.00  0.00    +0.000 C 
ATOM     11  C   UNK A   1      -2.928   5.892 129.576  0.00  0.00    +0.000 C 
ATOM     12  C   UNK A   1      -2.273   6.575 130.738  0.00  0.00    +0.000 A 
ATOM     13  C   UNK A   1      -1.009   6.340 131.240  0.00  0.00    +0.000 A 
ATOM     14  C   UNK A   1      -0.635   6.991 132.417  0.00  0.00    +0.000 A 
ATOM     15  C   UNK A   1      -1.528   7.845 133.086  0.00  0.00    +0.000 A 
ATOM     16  C   UNK A   1      -2.815   8.057 132.591  0.00  0.00    +0.000 A 
ATOM     17  C   UNK A   1      -3.167   7.423 131.412  0.00  0.00    +0.000 A 
ATOM     18  C   UNK A   1      -4.504   7.408 130.747  0.00  0.00    +0.000 C 
ENDBRANCH   5  10
BRANCH   1  19
ATOM     19  CB  LEU A   2      -7.630   2.248 132.595  0.00  0.00    +0.000 C 
BRANCH  19  21
ATOM     20  CD1 LEU A   2      -8.938   0.223 131.830  0.00  0.00    +0.000 C 
ATOM     21  CG  LEU A   2      -7.620   0.683 132.342  0.00  0.00    +0.000 C 
ATOM     22  CD2 LEU A   2      -6.565  -0.056 131.556  0.00  0.00    +0.000 C 
ENDBRANCH  19  21
ENDBRANCH   1  19
BRANCH   8  23
ATOM     23  C   UNK A   0      -8.155   3.087 129.701  0.00  0.00    +0.000 C 
BRANCH  23  24
ATOM     24  C   UNK A   0      -9.318   4.403 129.981  0.00  0.00    +0.000 A 
ATOM     25  C   UNK A   0      -9.160   5.730 129.384  0.00  0.00    +0.000 A 
ATOM     26  C   UNK A   0     -10.103   6.773 129.513  0.00  0.00    +0.000 A 
ATOM     27  C   UNK A   0     -11.360   6.501 130.036  0.00  0.00    +0.000 A 
ATOM     28  C   UNK A   0     -11.612   5.191 130.466  0.00  0.00    +0.000 A 
ATOM     29  C   UNK A   0     -10.604   4.189 130.504  0.00  0.00    +0.000 A 
BRANCH  27  30
ATOM     30  C   UNK A   0     -12.407   7.584 130.135  0.00  0.00    +0.000 C 
ATOM     31  F   UNK A   0     -11.970   8.766 129.618  0.00  0.00    +0.000 F 
ATOM     32  F   UNK A   0     -13.557   7.287 129.467  0.00  0.00    +0.000 F 
ATOM     33  F   UNK A   0     -12.785   7.857 131.416  0.00  0.00    +0.000 F 
ENDBRANCH  27  30
ENDBRANCH  23  24
BRANCH  23  34
ATOM     34  C   UNK A   0      -7.871   2.263 128.029  0.00  0.00    +0.000 C 
ATOM     35  O   UNK A   0      -8.636   2.394 127.063  0.00  0.00    +0.000 OA
ATOM     36  N   UNK A   0      -6.768   1.365 127.816  0.00  0.00    +0.000 N 
ATOM     37  H   UNK A   0      -6.041   1.520 128.480  0.00  0.00    +0.000 HD
BRANCH  36  38
ATOM     38  C   UNK A   0      -6.767  -0.147 127.379  0.00  0.00    +0.000 C 
ATOM     39  C   UNK A   0      -5.429  -0.919 127.525  0.00  0.00    +0.000 C 
ATOM     40  C   UNK A   0      -7.847  -0.904 128.148  0.00  0.00    +0.000 C 
ENDBRANCH  36  38
ENDBRANCH  23  34
ENDBRANCH   8  23
TORSDOF 8
ENDMDL
