MODEL 1
REMARK VINA RESULT:      -8.4      0.000      0.000
REMARK  Name = CHEMBL481568
REMARK  9 active torsions:
REMARK  status: ('A' for Active; 'I' for Inactive)
REMARK    1  A    between atoms: C_1  and  O_2
REMARK    2  A    between atoms: O_2  and  C_3
REMARK    3  A    between atoms: C_6  and  C_7
REMARK    4  A    between atoms: C_9  and  C_10
REMARK    5  A    between atoms: C_13  and  C_14
REMARK    6  A    between atoms: N_16  and  C_17
REMARK    7  A    between atoms: N_16  and  C_24
REMARK    8  A    between atoms: C_17  and  C_18
REMARK    9  A    between atoms: C_24  and  C_25
REMARK                            x       y       z     vdW  Elec       q    Type
REMARK                         _______ _______ _______ _____ _____    ______ ____
ROOT
ATOM      1  C   UNL     1      -8.667   1.346 124.832  0.00  0.00    +0.000 C 
ATOM      2  O   UNL     1      -9.720   1.950 124.974  0.00  0.00    +0.000 OA
ATOM      3  N   UNL     1      -8.032   1.282 123.547  0.00  0.00    +0.000 N 
ENDROOT
BRANCH   1   7
ATOM      4  C   UNL     1      -6.810  -1.265 127.783  0.00  0.00    +0.000 A 
ATOM      5  C   UNL     1      -6.270  -0.025 127.446  0.00  0.00    +0.000 A 
ATOM      6  C   UNL     1      -6.976   0.921 126.710  0.00  0.00    +0.000 A 
ATOM      7  C   UNL     1      -8.142   0.568 126.043  0.00  0.00    +0.000 A 
ATOM      8  C   UNL     1      -8.722  -0.672 126.384  0.00  0.00    +0.000 A 
ATOM      9  C   UNL     1      -8.076  -1.564 127.272  0.00  0.00    +0.000 A 
BRANCH   4  16
ATOM     10  C   UNL     1      -6.700  -2.479 129.949  0.00  0.00    +0.000 A 
ATOM     11  C   UNL     1      -6.118  -3.413 130.793  0.00  0.00    +0.000 A 
ATOM     12  C   UNL     1      -4.870  -3.944 130.484  0.00  0.00    +0.000 A 
ATOM     13  C   UNL     1      -4.175  -3.529 129.342  0.00  0.00    +0.000 A 
ATOM     14  C   UNL     1      -2.820  -4.103 129.046  0.00  0.00    +0.000 C 
ATOM     15  C   UNL     1      -4.778  -2.605 128.471  0.00  0.00    +0.000 A 
ATOM     16  C   UNL     1      -6.071  -2.113 128.734  0.00  0.00    +0.000 A 
BRANCH  10  18
ATOM     17  C   UNL     1      -8.035  -1.001 131.220  0.00  0.00    +0.000 C 
ATOM     18  O   UNL     1      -7.967  -2.005 130.210  0.00  0.00    +0.000 OA
ENDBRANCH  10  18
ENDBRANCH   4  16
ENDBRANCH   1   7
BRANCH   3  19
ATOM     19  C   UNL     1      -6.960   0.345 123.151  0.00  0.00    +0.000 C 
BRANCH  19  20
ATOM     20  C   UNL     1      -7.269  -1.139 123.195  0.00  0.00    +0.000 A 
ATOM     21  C   UNL     1      -6.370  -1.978 123.876  0.00  0.00    +0.000 A 
ATOM     22  C   UNL     1      -6.792  -3.231 124.322  0.00  0.00    +0.000 A 
ATOM     23  C   UNL     1      -8.115  -3.627 124.127  0.00  0.00    +0.000 A 
ATOM     24  C   UNL     1      -8.980  -2.827 123.384  0.00  0.00    +0.000 A 
ATOM     25  C   UNL     1      -8.525  -1.638 122.820  0.00  0.00    +0.000 A 
ENDBRANCH  19  20
ENDBRANCH   3  19
BRANCH   3  26
ATOM     26  C   UNL     1      -8.502   2.246 122.508  0.00  0.00    +0.000 C 
BRANCH  26  27
ATOM     27  C   UNL     1      -7.575   3.464 122.264  0.00  0.00    +0.000 C 
ATOM     28  C   UNL     1      -6.464   3.273 121.250  0.00  0.00    +0.000 C 
ATOM     29  C   UNL     1      -5.398   4.225 121.751  0.00  0.00    +0.000 C 
ATOM     30  C   UNL     1      -5.557   4.162 123.249  0.00  0.00    +0.000 C 
ATOM     31  O   UNL     1      -6.919   3.827 123.498  0.00  0.00    +0.000 OA
ENDBRANCH  26  27
ENDBRANCH   3  26
TORSDOF 7
ENDMDL
MODEL 2
REMARK VINA RESULT:      -8.4      7.261      9.171
REMARK  Name = CHEMBL481568
REMARK  9 active torsions:
REMARK  status: ('A' for Active; 'I' for Inactive)
REMARK    1  A    between atoms: C_1  and  O_2
REMARK    2  A    between atoms: O_2  and  C_3
REMARK    3  A    between atoms: C_6  and  C_7
REMARK    4  A    between atoms: C_9  and  C_10
REMARK    5  A    between atoms: C_13  and  C_14
REMARK    6  A    between atoms: N_16  and  C_17
REMARK    7  A    between atoms: N_16  and  C_24
REMARK    8  A    between atoms: C_17  and  C_18
REMARK    9  A    between atoms: C_24  and  C_25
REMARK                            x       y       z     vdW  Elec       q    Type
REMARK                         _______ _______ _______ _____ _____    ______ ____
ROOT
ATOM      1  C   UNL     1      -9.794   6.240 131.465  0.00  0.00    +0.000 C 
ATOM      2  O   UNL     1     -10.632   6.792 132.163  0.00  0.00    +0.000 OA
ATOM      3  N   UNL     1     -10.195   5.358 130.408  0.00  0.00    +0.000 N 
ENDROOT
BRANCH   1   7
ATOM      4  C   UNL     1      -5.510   6.143 132.253  0.00  0.00    +0.000 A 
ATOM      5  C   UNL     1      -6.048   6.812 131.154  0.00  0.00    +0.000 A 
ATOM      6  C   UNL     1      -7.409   7.070 131.029  0.00  0.00    +0.000 A 
ATOM      7  C   UNL     1      -8.325   6.433 131.856  0.00  0.00    +0.000 A 
ATOM      8  C   UNL     1      -7.809   5.770 132.990  0.00  0.00    +0.000 A 
ATOM      9  C   UNL     1      -6.414   5.656 133.201  0.00  0.00    +0.000 A 
BRANCH   4  16
ATOM     10  C   UNL     1      -3.353   4.949 131.945  0.00  0.00    +0.000 A 
ATOM     11  C   UNL     1      -1.967   4.933 131.896  0.00  0.00    +0.000 A 
ATOM     12  C   UNL     1      -1.244   6.026 132.362  0.00  0.00    +0.000 A 
ATOM     13  C   UNL     1      -1.894   7.139 132.906  0.00  0.00    +0.000 A 
ATOM     14  C   UNL     1      -1.086   8.295 133.422  0.00  0.00    +0.000 C 
ATOM     15  C   UNL     1      -3.299   7.168 132.929  0.00  0.00    +0.000 A 
ATOM     16  C   UNL     1      -4.046   6.100 132.395  0.00  0.00    +0.000 A 
BRANCH  10  18
ATOM     17  C   UNL     1      -3.825   3.635 130.040  0.00  0.00    +0.000 C 
ATOM     18  O   UNL     1      -4.077   3.903 131.418  0.00  0.00    +0.000 OA
ENDBRANCH  10  18
ENDBRANCH   4  16
ENDBRANCH   1   7
BRANCH   3  19
ATOM     19  C   UNL     1      -9.327   4.387 129.708  0.00  0.00    +0.000 C 
BRANCH  19  20
ATOM     20  C   UNL     1      -8.871   3.164 130.479  0.00  0.00    +0.000 A 
ATOM     21  C   UNL     1      -7.489   2.939 130.598  0.00  0.00    +0.000 A 
ATOM     22  C   UNL     1      -7.003   2.123 131.619  0.00  0.00    +0.000 A 
ATOM     23  C   UNL     1      -7.888   1.568 132.543  0.00  0.00    +0.000 A 
ATOM     24  C   UNL     1      -9.262   1.729 132.377  0.00  0.00    +0.000 A 
ATOM     25  C   UNL     1      -9.757   2.429 131.280  0.00  0.00    +0.000 A 
ENDBRANCH  19  20
ENDBRANCH   3  19
BRANCH   3  26
ATOM     26  C   UNL     1     -11.623   5.417 129.977  0.00  0.00    +0.000 C 
BRANCH  26  27
ATOM     27  C   UNL     1     -12.021   6.678 129.167  0.00  0.00    +0.000 C 
ATOM     28  C   UNL     1     -13.498   6.849 128.871  0.00  0.00    +0.000 C 
ATOM     29  C   UNL     1     -13.482   7.627 127.571  0.00  0.00    +0.000 C 
ATOM     30  C   UNL     1     -12.262   7.091 126.865  0.00  0.00    +0.000 C 
ATOM     31  O   UNL     1     -11.365   6.653 127.881  0.00  0.00    +0.000 OA
ENDBRANCH  26  27
ENDBRANCH   3  26
TORSDOF 7
ENDMDL
MODEL 3
REMARK VINA RESULT:      -8.0      5.537      7.928
REMARK  Name = CHEMBL481568
REMARK  9 active torsions:
REMARK  status: ('A' for Active; 'I' for Inactive)
REMARK    1  A    between atoms: C_1  and  O_2
REMARK    2  A    between atoms: O_2  and  C_3
REMARK    3  A    between atoms: C_6  and  C_7
REMARK    4  A    between atoms: C_9  and  C_10
REMARK    5  A    between atoms: C_13  and  C_14
REMARK    6  A    between atoms: N_16  and  C_17
REMARK    7  A    between atoms: N_16  and  C_24
REMARK    8  A    between atoms: C_17  and  C_18
REMARK    9  A    between atoms: C_24  and  C_25
REMARK                            x       y       z     vdW  Elec       q    Type
REMARK                         _______ _______ _______ _____ _____    ______ ____
ROOT
ATOM      1  C   UNL     1     -10.704   4.300 130.619  0.00  0.00    +0.000 C 
ATOM      2  O   UNL     1     -11.799   4.076 130.125  0.00  0.00    +0.000 OA
ATOM      3  N   UNL     1     -10.323   5.639 130.965  0.00  0.00    +0.000 N 
ENDROOT
BRANCH   1   7
ATOM      4  C   UNL     1      -8.468   0.562 130.591  0.00  0.00    +0.000 A 
ATOM      5  C   UNL     1      -8.304   1.532 129.603  0.00  0.00    +0.000 A 
ATOM      6  C   UNL     1      -8.808   2.822 129.732  0.00  0.00    +0.000 A 
ATOM      7  C   UNL     1      -9.732   3.121 130.724  0.00  0.00    +0.000 A 
ATOM      8  C   UNL     1      -9.899   2.166 131.750  0.00  0.00    +0.000 A 
ATOM      9  C   UNL     1      -9.246   0.911 131.698  0.00  0.00    +0.000 A 
BRANCH   4  16
ATOM     10  C   UNL     1      -6.569  -0.900 131.249  0.00  0.00    +0.000 A 
ATOM     11  C   UNL     1      -5.941  -2.136 131.288  0.00  0.00    +0.000 A 
ATOM     12  C   UNL     1      -6.404  -3.174 130.487  0.00  0.00    +0.000 A 
ATOM     13  C   UNL     1      -7.484  -2.985 129.617  0.00  0.00    +0.000 A 
ATOM     14  C   UNL     1      -7.948  -4.118 128.749  0.00  0.00    +0.000 C 
ATOM     15  C   UNL     1      -8.139  -1.742 129.600  0.00  0.00    +0.000 A 
ATOM     16  C   UNL     1      -7.727  -0.703 130.457  0.00  0.00    +0.000 A 
BRANCH  10  18
ATOM     17  C   UNL     1      -6.131  -0.241 133.474  0.00  0.00    +0.000 C 
ATOM     18  O   UNL     1      -6.163   0.110 132.093  0.00  0.00    +0.000 OA
ENDBRANCH  10  18
ENDBRANCH   4  16
ENDBRANCH   1   7
BRANCH   3  19
ATOM     19  C   UNL     1      -8.951   6.106 131.257  0.00  0.00    +0.000 C 
BRANCH  19  20
ATOM     20  C   UNL     1      -8.197   5.423 132.381  0.00  0.00    +0.000 A 
ATOM     21  C   UNL     1      -8.870   5.227 133.600  0.00  0.00    +0.000 A 
ATOM     22  C   UNL     1      -8.419   4.256 134.493  0.00  0.00    +0.000 A 
ATOM     23  C   UNL     1      -7.329   3.455 134.155  0.00  0.00    +0.000 A 
ATOM     24  C   UNL     1      -6.618   3.704 132.983  0.00  0.00    +0.000 A 
ATOM     25  C   UNL     1      -6.982   4.762 132.154  0.00  0.00    +0.000 A 
ENDBRANCH  19  20
ENDBRANCH   3  19
BRANCH   3  26
ATOM     26  C   UNL     1     -11.410   6.661 131.030  0.00  0.00    +0.000 C 
BRANCH  26  27
ATOM     27  C   UNL     1     -11.486   7.627 129.820  0.00  0.00    +0.000 C 
ATOM     28  C   UNL     1     -12.584   8.673 129.862  0.00  0.00    +0.000 C 
ATOM     29  C   UNL     1     -12.866   8.907 128.392  0.00  0.00    +0.000 C 
ATOM     30  C   UNL     1     -12.651   7.546 127.779  0.00  0.00    +0.000 C 
ATOM     31  O   UNL     1     -11.713   6.871 128.611  0.00  0.00    +0.000 OA
ENDBRANCH  26  27
ENDBRANCH   3  26
TORSDOF 7
ENDMDL
MODEL 4
REMARK VINA RESULT:      -8.0      1.500      2.674
REMARK  Name = CHEMBL481568
REMARK  9 active torsions:
REMARK  status: ('A' for Active; 'I' for Inactive)
REMARK    1  A    between atoms: C_1  and  O_2
REMARK    2  A    between atoms: O_2  and  C_3
REMARK    3  A    between atoms: C_6  and  C_7
REMARK    4  A    between atoms: C_9  and  C_10
REMARK    5  A    between atoms: C_13  and  C_14
REMARK    6  A    between atoms: N_16  and  C_17
REMARK    7  A    between atoms: N_16  and  C_24
REMARK    8  A    between atoms: C_17  and  C_18
REMARK    9  A    between atoms: C_24  and  C_25
REMARK                            x       y       z     vdW  Elec       q    Type
REMARK                         _______ _______ _______ _____ _____    ______ ____
ROOT
ATOM      1  C   UNL     1      -8.373   0.774 126.172  0.00  0.00    +0.000 C 
ATOM      2  O   UNL     1      -9.365   1.357 126.586  0.00  0.00    +0.000 OA
ATOM      3  N   UNL     1      -7.934   0.958 124.819  0.00  0.00    +0.000 N 
ENDROOT
BRANCH   1   7
ATOM      4  C   UNL     1      -6.965  -1.846 129.355  0.00  0.00    +0.000 A 
ATOM      5  C   UNL     1      -7.927  -2.252 128.432  0.00  0.00    +0.000 A 
ATOM      6  C   UNL     1      -8.197  -1.535 127.270  0.00  0.00    +0.000 A 
ATOM      7  C   UNL     1      -7.718  -0.241 127.114  0.00  0.00    +0.000 A 
ATOM      8  C   UNL     1      -6.724   0.186 128.021  0.00  0.00    +0.000 A 
ATOM      9  C   UNL     1      -6.329  -0.625 129.111  0.00  0.00    +0.000 A 
BRANCH   4  16
ATOM     10  C   UNL     1      -5.455  -3.583 130.293  0.00  0.00    +0.000 A 
ATOM     11  C   UNL     1      -4.979  -4.338 131.355  0.00  0.00    +0.000 A 
ATOM     12  C   UNL     1      -5.678  -4.360 132.557  0.00  0.00    +0.000 A 
ATOM     13  C   UNL     1      -6.875  -3.649 132.707  0.00  0.00    +0.000 A 
ATOM     14  C   UNL     1      -7.619  -3.710 134.009  0.00  0.00    +0.000 C 
ATOM     15  C   UNL     1      -7.341  -2.861 131.641  0.00  0.00    +0.000 A 
ATOM     16  C   UNL     1      -6.606  -2.771 130.442  0.00  0.00    +0.000 A 
BRANCH  10  18
ATOM     17  C   UNL     1      -3.320  -3.378 129.304  0.00  0.00    +0.000 C 
ATOM     18  O   UNL     1      -4.729  -3.496 129.125  0.00  0.00    +0.000 OA
ENDBRANCH  10  18
ENDBRANCH   4  16
ENDBRANCH   1   7
BRANCH   3  19
ATOM     19  C   UNL     1      -6.976   0.099 124.091  0.00  0.00    +0.000 C 
BRANCH  19  20
ATOM     20  C   UNL     1      -7.375  -1.340 123.831  0.00  0.00    +0.000 A 
ATOM     21  C   UNL     1      -6.489  -2.352 124.238  0.00  0.00    +0.000 A 
ATOM     22  C   UNL     1      -6.959  -3.652 124.430  0.00  0.00    +0.000 A 
ATOM     23  C   UNL     1      -8.314  -3.931 124.258  0.00  0.00    +0.000 A 
ATOM     24  C   UNL     1      -9.174  -2.944 123.780  0.00  0.00    +0.000 A 
ATOM     25  C   UNL     1      -8.683  -1.683 123.456  0.00  0.00    +0.000 A 
ENDBRANCH  19  20
ENDBRANCH   3  19
BRANCH   3  26
ATOM     26  C   UNL     1      -8.500   2.120 124.072  0.00  0.00    +0.000 C 
BRANCH  26  27
ATOM     27  C   UNL     1      -7.995   2.284 122.616  0.00  0.00    +0.000 C 
ATOM     28  C   UNL     1      -6.863   3.269 122.403  0.00  0.00    +0.000 C 
ATOM     29  C   UNL     1      -7.100   3.736 120.982  0.00  0.00    +0.000 C 
ATOM     30  C   UNL     1      -8.603   3.729 120.864  0.00  0.00    +0.000 C 
ATOM     31  O   UNL     1      -9.077   2.745 121.777  0.00  0.00    +0.000 OA
ENDBRANCH  26  27
ENDBRANCH   3  26
TORSDOF 7
ENDMDL
MODEL 5
REMARK VINA RESULT:      -7.7      5.599      8.022
REMARK  Name = CHEMBL481568
REMARK  9 active torsions:
REMARK  status: ('A' for Active; 'I' for Inactive)
REMARK    1  A    between atoms: C_1  and  O_2
REMARK    2  A    between atoms: O_2  and  C_3
REMARK    3  A    between atoms: C_6  and  C_7
REMARK    4  A    between atoms: C_9  and  C_10
REMARK    5  A    between atoms: C_13  and  C_14
REMARK    6  A    between atoms: N_16  and  C_17
REMARK    7  A    between atoms: N_16  and  C_24
REMARK    8  A    between atoms: C_17  and  C_18
REMARK    9  A    between atoms: C_24  and  C_25
REMARK                            x       y       z     vdW  Elec       q    Type
REMARK                         _______ _______ _______ _____ _____    ______ ____
ROOT
ATOM      1  C   UNL     1     -10.551   3.893 130.567  0.00  0.00    +0.000 C 
ATOM      2  O   UNL     1     -11.646   3.593 130.114  0.00  0.00    +0.000 OA
ATOM      3  N   UNL     1     -10.242   5.260 130.876  0.00  0.00    +0.000 N 
ENDROOT
BRANCH   1   7
ATOM      4  C   UNL     1      -7.180   1.208 131.202  0.00  0.00    +0.000 A 
ATOM      5  C   UNL     1      -8.292   1.213 132.042  0.00  0.00    +0.000 A 
ATOM      6  C   UNL     1      -9.474   1.869 131.712  0.00  0.00    +0.000 A 
ATOM      7  C   UNL     1      -9.507   2.777 130.662  0.00  0.00    +0.000 A 
ATOM      8  C   UNL     1      -8.403   2.774 129.781  0.00  0.00    +0.000 A 
ATOM      9  C   UNL     1      -7.265   1.971 130.034  0.00  0.00    +0.000 A 
BRANCH   4  16
ATOM     10  C   UNL     1      -5.954  -0.929 130.881  0.00  0.00    +0.000 A 
ATOM     11  C   UNL     1      -4.824  -1.720 131.033  0.00  0.00    +0.000 A 
ATOM     12  C   UNL     1      -3.811  -1.320 131.898  0.00  0.00    +0.000 A 
ATOM     13  C   UNL     1      -3.923  -0.139 132.641  0.00  0.00    +0.000 A 
ATOM     14  C   UNL     1      -2.823   0.254 133.583  0.00  0.00    +0.000 C 
ATOM     15  C   UNL     1      -5.054   0.676 132.464  0.00  0.00    +0.000 A 
ATOM     16  C   UNL     1      -6.055   0.321 131.539  0.00  0.00    +0.000 A 
BRANCH  10  18
ATOM     17  C   UNL     1      -7.657  -2.460 130.301  0.00  0.00    +0.000 C 
ATOM     18  O   UNL     1      -6.927  -1.281 129.971  0.00  0.00    +0.000 OA
ENDBRANCH  10  18
ENDBRANCH   4  16
ENDBRANCH   1   7
BRANCH   3  19
ATOM     19  C   UNL     1      -8.892   5.814 131.113  0.00  0.00    +0.000 C 
BRANCH  19  20
ATOM     20  C   UNL     1      -8.166   5.389 132.374  0.00  0.00    +0.000 A 
ATOM     21  C   UNL     1      -8.939   5.094 133.511  0.00  0.00    +0.000 A 
ATOM     22  C   UNL     1      -8.404   4.305 134.529  0.00  0.00    +0.000 A 
ATOM     23  C   UNL     1      -7.120   3.777 134.394  0.00  0.00    +0.000 A 
ATOM     24  C   UNL     1      -6.329   4.135 133.304  0.00  0.00    +0.000 A 
ATOM     25  C   UNL     1      -6.810   5.032 132.355  0.00  0.00    +0.000 A 
ENDBRANCH  19  20
ENDBRANCH   3  19
BRANCH   3  26
ATOM     26  C   UNL     1     -11.387   6.215 130.959  0.00  0.00    +0.000 C 
BRANCH  26  27
ATOM     27  C   UNL     1     -11.511   7.206 129.774  0.00  0.00    +0.000 C 
ATOM     28  C   UNL     1     -12.574   8.280 129.903  0.00  0.00    +0.000 C 
ATOM     29  C   UNL     1     -12.941   8.551 128.459  0.00  0.00    +0.000 C 
ATOM     30  C   UNL     1     -12.804   7.197 127.810  0.00  0.00    +0.000 C 
ATOM     31  O   UNL     1     -11.835   6.480 128.568  0.00  0.00    +0.000 OA
ENDBRANCH  26  27
ENDBRANCH   3  26
TORSDOF 7
ENDMDL
MODEL 6
REMARK VINA RESULT:      -7.5      4.341      7.018
REMARK  Name = CHEMBL481568
REMARK  9 active torsions:
REMARK  status: ('A' for Active; 'I' for Inactive)
REMARK    1  A    between atoms: C_1  and  O_2
REMARK    2  A    between atoms: O_2  and  C_3
REMARK    3  A    between atoms: C_6  and  C_7
REMARK    4  A    between atoms: C_9  and  C_10
REMARK    5  A    between atoms: C_13  and  C_14
REMARK    6  A    between atoms: N_16  and  C_17
REMARK    7  A    between atoms: N_16  and  C_24
REMARK    8  A    between atoms: C_17  and  C_18
REMARK    9  A    between atoms: C_24  and  C_25
REMARK                            x       y       z     vdW  Elec       q    Type
REMARK                         _______ _______ _______ _____ _____    ______ ____
ROOT
ATOM      1  C   UNL     1      -7.182   4.345 129.610  0.00  0.00    +0.000 C 
ATOM      2  O   UNL     1      -6.176   5.019 129.445  0.00  0.00    +0.000 OA
ATOM      3  N   UNL     1      -8.214   4.786 130.503  0.00  0.00    +0.000 N 
ENDROOT
BRANCH   1   7
ATOM      4  C   UNL     1      -7.671   0.232 128.260  0.00  0.00    +0.000 A 
ATOM      5  C   UNL     1      -8.527   1.253 127.852  0.00  0.00    +0.000 A 
ATOM      6  C   UNL     1      -8.238   2.598 128.061  0.00  0.00    +0.000 A 
ATOM      7  C   UNL     1      -7.221   2.974 128.929  0.00  0.00    +0.000 A 
ATOM      8  C   UNL     1      -6.325   1.963 129.337  0.00  0.00    +0.000 A 
ATOM      9  C   UNL     1      -6.532   0.610 128.977  0.00  0.00    +0.000 A 
BRANCH   4  16
ATOM     10  C   UNL     1      -7.918  -2.188 128.767  0.00  0.00    +0.000 A 
ATOM     11  C   UNL     1      -8.352  -3.463 128.435  0.00  0.00    +0.000 A 
ATOM     12  C   UNL     1      -8.763  -3.739 127.136  0.00  0.00    +0.000 A 
ATOM     13  C   UNL     1      -8.722  -2.753 126.143  0.00  0.00    +0.000 A 
ATOM     14  C   UNL     1      -9.150  -3.086 124.744  0.00  0.00    +0.000 C 
ATOM     15  C   UNL     1      -8.310  -1.453 126.486  0.00  0.00    +0.000 A 
ATOM     16  C   UNL     1      -7.960  -1.141 127.814  0.00  0.00    +0.000 A 
BRANCH  10  18
ATOM     17  C   UNL     1      -6.950  -2.949 130.783  0.00  0.00    +0.000 C 
ATOM     18  O   UNL     1      -7.581  -1.888 130.068  0.00  0.00    +0.000 OA
ENDBRANCH  10  18
ENDBRANCH   4  16
ENDBRANCH   1   7
BRANCH   3  19
ATOM     19  C   UNL     1      -9.308   3.954 131.047  0.00  0.00    +0.000 C 
BRANCH  19  20
ATOM     20  C   UNL     1      -8.928   2.743 131.876  0.00  0.00    +0.000 A 
ATOM     21  C   UNL     1      -9.505   1.506 131.537  0.00  0.00    +0.000 A 
ATOM     22  C   UNL     1      -8.896   0.320 131.947  0.00  0.00    +0.000 A 
ATOM     23  C   UNL     1      -7.696   0.366 132.656  0.00  0.00    +0.000 A 
ATOM     24  C   UNL     1      -7.169   1.592 133.057  0.00  0.00    +0.000 A 
ATOM     25  C   UNL     1      -7.846   2.774 132.767  0.00  0.00    +0.000 A 
ENDBRANCH  19  20
ENDBRANCH   3  19
BRANCH   3  26
ATOM     26  C   UNL     1      -8.179   6.216 130.932  0.00  0.00    +0.000 C 
BRANCH  26  27
ATOM     27  C   UNL     1      -9.299   7.113 130.348  0.00  0.00    +0.000 C 
ATOM     28  C   UNL     1     -10.684   6.929 130.935  0.00  0.00    +0.000 C 
ATOM     29  C   UNL     1     -11.583   7.310 129.778  0.00  0.00    +0.000 C 
ATOM     30  C   UNL     1     -10.815   6.828 128.573  0.00  0.00    +0.000 C 
ATOM     31  O   UNL     1      -9.438   6.854 128.933  0.00  0.00    +0.000 OA
ENDBRANCH  26  27
ENDBRANCH   3  26
TORSDOF 7
ENDMDL
MODEL 7
REMARK VINA RESULT:      -7.4      5.579      8.150
REMARK  Name = CHEMBL481568
REMARK  9 active torsions:
REMARK  status: ('A' for Active; 'I' for Inactive)
REMARK    1  A    between atoms: C_1  and  O_2
REMARK    2  A    between atoms: O_2  and  C_3
REMARK    3  A    between atoms: C_6  and  C_7
REMARK    4  A    between atoms: C_9  and  C_10
REMARK    5  A    between atoms: C_13  and  C_14
REMARK    6  A    between atoms: N_16  and  C_17
REMARK    7  A    between atoms: N_16  and  C_24
REMARK    8  A    between atoms: C_17  and  C_18
REMARK    9  A    between atoms: C_24  and  C_25
REMARK                            x       y       z     vdW  Elec       q    Type
REMARK                         _______ _______ _______ _____ _____    ______ ____
ROOT
ATOM      1  C   UNL     1      -9.122   4.969 129.908  0.00  0.00    +0.000 C 
ATOM      2  O   UNL     1      -8.816   5.140 128.737  0.00  0.00    +0.000 OA
ATOM      3  N   UNL     1      -9.642   6.053 130.690  0.00  0.00    +0.000 N 
ENDROOT
BRANCH   1   7
ATOM      4  C   UNL     1      -8.400   0.810 130.986  0.00  0.00    +0.000 A 
ATOM      5  C   UNL     1      -7.374   1.658 130.570  0.00  0.00    +0.000 A 
ATOM      6  C   UNL     1      -7.537   3.036 130.472  0.00  0.00    +0.000 A 
ATOM      7  C   UNL     1      -8.805   3.600 130.518  0.00  0.00    +0.000 A 
ATOM      8  C   UNL     1      -9.858   2.770 130.960  0.00  0.00    +0.000 A 
ATOM      9  C   UNL     1      -9.646   1.395 131.223  0.00  0.00    +0.000 A 
BRANCH   4  16
ATOM     10  C   UNL     1      -7.812  -1.459 130.160  0.00  0.00    +0.000 A 
ATOM     11  C   UNL     1      -7.331  -2.743 130.367  0.00  0.00    +0.000 A 
ATOM     12  C   UNL     1      -7.174  -3.223 131.663  0.00  0.00    +0.000 A 
ATOM     13  C   UNL     1      -7.519  -2.437 132.768  0.00  0.00    +0.000 A 
ATOM     14  C   UNL     1      -7.359  -2.990 134.154  0.00  0.00    +0.000 C 
ATOM     15  C   UNL     1      -7.977  -1.125 132.559  0.00  0.00    +0.000 A 
ATOM     16  C   UNL     1      -8.074  -0.600 131.255  0.00  0.00    +0.000 A 
BRANCH  10  18
ATOM     17  C   UNL     1      -6.730  -1.126 128.086  0.00  0.00    +0.000 C 
ATOM     18  O   UNL     1      -7.899  -0.950 128.882  0.00  0.00    +0.000 OA
ENDBRANCH  10  18
ENDBRANCH   4  16
ENDBRANCH   1   7
BRANCH   3  19
ATOM     19  C   UNL     1      -9.747   6.091 132.164  0.00  0.00    +0.000 C 
BRANCH  19  20
ATOM     20  C   UNL     1      -8.527   5.691 132.969  0.00  0.00    +0.000 A 
ATOM     21  C   UNL     1      -8.662   4.635 133.887  0.00  0.00    +0.000 A 
ATOM     22  C   UNL     1      -7.531   3.945 134.323  0.00  0.00    +0.000 A 
ATOM     23  C   UNL     1      -6.276   4.278 133.814  0.00  0.00    +0.000 A 
ATOM     24  C   UNL     1      -6.137   5.374 132.965  0.00  0.00    +0.000 A 
ATOM     25  C   UNL     1      -7.244   6.151 132.635  0.00  0.00    +0.000 A 
ENDBRANCH  19  20
ENDBRANCH   3  19
BRANCH   3  26
ATOM     26  C   UNL     1     -10.114   7.261 129.950  0.00  0.00    +0.000 C 
BRANCH  26  27
ATOM     27  C   UNL     1     -11.652   7.430 129.866  0.00  0.00    +0.000 C 
ATOM     28  C   UNL     1     -12.401   6.393 129.053  0.00  0.00    +0.000 C 
ATOM     29  C   UNL     1     -13.606   7.169 128.563  0.00  0.00    +0.000 C 
ATOM     30  C   UNL     1     -13.058   8.559 128.357  0.00  0.00    +0.000 C 
ATOM     31  O   UNL     1     -11.967   8.703 129.260  0.00  0.00    +0.000 OA
ENDBRANCH  26  27
ENDBRANCH   3  26
TORSDOF 7
ENDMDL
MODEL 8
REMARK VINA RESULT:      -7.4      6.816      8.649
REMARK  Name = CHEMBL481568
REMARK  9 active torsions:
REMARK  status: ('A' for Active; 'I' for Inactive)
REMARK    1  A    between atoms: C_1  and  O_2
REMARK    2  A    between atoms: O_2  and  C_3
REMARK    3  A    between atoms: C_6  and  C_7
REMARK    4  A    between atoms: C_9  and  C_10
REMARK    5  A    between atoms: C_13  and  C_14
REMARK    6  A    between atoms: N_16  and  C_17
REMARK    7  A    between atoms: N_16  and  C_24
REMARK    8  A    between atoms: C_17  and  C_18
REMARK    9  A    between atoms: C_24  and  C_25
REMARK                            x       y       z     vdW  Elec       q    Type
REMARK                         _______ _______ _______ _____ _____    ______ ____
ROOT
ATOM      1  C   UNL     1      -9.629   3.761 130.422  0.00  0.00    +0.000 C 
ATOM      2  O   UNL     1      -9.753   3.432 129.251  0.00  0.00    +0.000 OA
ATOM      3  N   UNL     1     -10.277   4.942 130.917  0.00  0.00    +0.000 N 
ENDROOT
BRANCH   1   7
ATOM      4  C   UNL     1      -6.721   2.055 133.180  0.00  0.00    +0.000 A 
ATOM      5  C   UNL     1      -8.089   2.050 133.448  0.00  0.00    +0.000 A 
ATOM      6  C   UNL     1      -9.041   2.351 132.479  0.00  0.00    +0.000 A 
ATOM      7  C   UNL     1      -8.663   2.938 131.278  0.00  0.00    +0.000 A 
ATOM      8  C   UNL     1      -7.285   2.933 130.972  0.00  0.00    +0.000 A 
ATOM      9  C   UNL     1      -6.328   2.465 131.904  0.00  0.00    +0.000 A 
BRANCH   4  16
ATOM     10  C   UNL     1      -5.407   0.170 134.125  0.00  0.00    +0.000 A 
ATOM     11  C   UNL     1      -4.417  -0.326 134.960  0.00  0.00    +0.000 A 
ATOM     12  C   UNL     1      -3.860   0.492 135.937  0.00  0.00    +0.000 A 
ATOM     13  C   UNL     1      -4.303   1.809 136.111  0.00  0.00    +0.000 A 
ATOM     14  C   UNL     1      -3.699   2.661 137.189  0.00  0.00    +0.000 C 
ATOM     15  C   UNL     1      -5.286   2.320 135.246  0.00  0.00    +0.000 A 
ATOM     16  C   UNL     1      -5.808   1.526 134.206  0.00  0.00    +0.000 A 
BRANCH  10  18
ATOM     17  C   UNL     1      -6.806  -1.637 133.528  0.00  0.00    +0.000 C 
ATOM     18  O   UNL     1      -5.910  -0.611 133.108  0.00  0.00    +0.000 OA
ENDBRANCH  10  18
ENDBRANCH   4  16
ENDBRANCH   1   7
BRANCH   3  19
ATOM     19  C   UNL     1      -9.969   5.635 132.186  0.00  0.00    +0.000 C 
BRANCH  19  20
ATOM     20  C   UNL     1      -8.546   6.111 132.403  0.00  0.00    +0.000 A 
ATOM     21  C   UNL     1      -7.894   5.720 133.585  0.00  0.00    +0.000 A 
ATOM     22  C   UNL     1      -6.501   5.744 133.650  0.00  0.00    +0.000 A 
ATOM     23  C   UNL     1      -5.761   6.117 132.528  0.00  0.00    +0.000 A 
ATOM     24  C   UNL     1      -6.411   6.579 131.386  0.00  0.00    +0.000 A 
ATOM     25  C   UNL     1      -7.799   6.686 131.364  0.00  0.00    +0.000 A 
ENDBRANCH  19  20
ENDBRANCH   3  19
BRANCH   3  26
ATOM     26  C   UNL     1     -11.356   5.532 130.072  0.00  0.00    +0.000 C 
BRANCH  26  27
ATOM     27  C   UNL     1     -10.967   6.819 129.301  0.00  0.00    +0.000 C 
ATOM     28  C   UNL     1     -11.929   7.986 129.410  0.00  0.00    +0.000 C 
ATOM     29  C   UNL     1     -11.716   8.708 128.096  0.00  0.00    +0.000 C 
ATOM     30  C   UNL     1     -11.437   7.586 127.128  0.00  0.00    +0.000 C 
ATOM     31  O   UNL     1     -10.868   6.526 127.890  0.00  0.00    +0.000 OA
ENDBRANCH  26  27
ENDBRANCH   3  26
TORSDOF 7
ENDMDL
MODEL 9
REMARK VINA RESULT:      -7.3      3.146      8.505
REMARK  Name = CHEMBL481568
REMARK  9 active torsions:
REMARK  status: ('A' for Active; 'I' for Inactive)
REMARK    1  A    between atoms: C_1  and  O_2
REMARK    2  A    between atoms: O_2  and  C_3
REMARK    3  A    between atoms: C_6  and  C_7
REMARK    4  A    between atoms: C_9  and  C_10
REMARK    5  A    between atoms: C_13  and  C_14
REMARK    6  A    between atoms: N_16  and  C_17
REMARK    7  A    between atoms: N_16  and  C_24
REMARK    8  A    between atoms: C_17  and  C_18
REMARK    9  A    between atoms: C_24  and  C_25
REMARK                            x       y       z     vdW  Elec       q    Type
REMARK                         _______ _______ _______ _____ _____    ______ ____
ROOT
ATOM      1  C   UNL     1      -7.700  -0.701 130.901  0.00  0.00    +0.000 C 
ATOM      2  O   UNL     1      -8.719  -0.160 131.306  0.00  0.00    +0.000 OA
ATOM      3  N   UNL     1      -6.623  -0.991 131.805  0.00  0.00    +0.000 N 
ENDROOT
BRANCH   1   7
ATOM      4  C   UNL     1      -6.703  -1.607 126.759  0.00  0.00    +0.000 A 
ATOM      5  C   UNL     1      -7.439  -2.484 127.554  0.00  0.00    +0.000 A 
ATOM      6  C   UNL     1      -7.981  -2.107 128.778  0.00  0.00    +0.000 A 
ATOM      7  C   UNL     1      -7.582  -0.926 129.391  0.00  0.00    +0.000 A 
ATOM      8  C   UNL     1      -6.857  -0.009 128.600  0.00  0.00    +0.000 A 
ATOM      9  C   UNL     1      -6.451  -0.337 127.284  0.00  0.00    +0.000 A 
BRANCH   4  16
ATOM     10  C   UNL     1      -6.867  -1.302 124.298  0.00  0.00    +0.000 A 
ATOM     11  C   UNL     1      -6.424  -1.553 123.008  0.00  0.00    +0.000 A 
ATOM     12  C   UNL     1      -5.516  -2.579 122.774  0.00  0.00    +0.000 A 
ATOM     13  C   UNL     1      -5.058  -3.386 123.822  0.00  0.00    +0.000 A 
ATOM     14  C   UNL     1      -4.094  -4.502 123.536  0.00  0.00    +0.000 C 
ATOM     15  C   UNL     1      -5.484  -3.113 125.133  0.00  0.00    +0.000 A 
ATOM     16  C   UNL     1      -6.348  -2.032 125.395  0.00  0.00    +0.000 A 
BRANCH  10  18
ATOM     17  C   UNL     1      -9.049  -0.420 124.096  0.00  0.00    +0.000 C 
ATOM     18  O   UNL     1      -7.709  -0.240 124.547  0.00  0.00    +0.000 OA
ENDBRANCH  10  18
ENDBRANCH   4  16
ENDBRANCH   1   7
BRANCH   3  19
ATOM     19  C   UNL     1      -5.236  -1.331 131.425  0.00  0.00    +0.000 C 
BRANCH  19  20
ATOM     20  C   UNL     1      -4.820  -2.786 131.502  0.00  0.00    +0.000 A 
ATOM     21  C   UNL     1      -3.897  -3.155 132.497  0.00  0.00    +0.000 A 
ATOM     22  C   UNL     1      -3.807  -4.487 132.901  0.00  0.00    +0.000 A 
ATOM     23  C   UNL     1      -4.661  -5.439 132.346  0.00  0.00    +0.000 A 
ATOM     24  C   UNL     1      -5.518  -5.086 131.306  0.00  0.00    +0.000 A 
ATOM     25  C   UNL     1      -5.514  -3.786 130.806  0.00  0.00    +0.000 A 
ENDBRANCH  19  20
ENDBRANCH   3  19
BRANCH   3  26
ATOM     26  C   UNL     1      -6.928  -0.938 133.266  0.00  0.00    +0.000 C 
BRANCH  26  27
ATOM     27  C   UNL     1      -6.957  -2.308 133.989  0.00  0.00    +0.000 C 
ATOM     28  C   UNL     1      -8.012  -3.292 133.524  0.00  0.00    +0.000 C 
ATOM     29  C   UNL     1      -8.275  -4.104 134.775  0.00  0.00    +0.000 C 
ATOM     30  C   UNL     1      -8.110  -3.093 135.882  0.00  0.00    +0.000 C 
ATOM     31  O   UNL     1      -7.206  -2.106 135.397  0.00  0.00    +0.000 OA
ENDBRANCH  26  27
ENDBRANCH   3  26
TORSDOF 7
ENDMDL
