MODEL 1
REMARK VINA RESULT:     -10.8      0.000      0.000
REMARK  Name = CHEMBL105514
REMARK  8 active torsions:
REMARK  status: ('A' for Active; 'I' for Inactive)
REMARK    1  A    between atoms: C_1  and  O_2
REMARK    2  A    between atoms: O_2  and  C_3
REMARK    3  A    between atoms: C_5  and  O_6
REMARK    4  A    between atoms: O_6  and  C_7
REMARK    5  A    between atoms: C_7  and  C_8
REMARK    6  A    between atoms: C_7  and  C_9
REMARK    7  A    between atoms: C_19  and  C_20
REMARK    8  A    between atoms: C_25  and  N_26
REMARK                            x       y       z     vdW  Elec       q    Type
REMARK                         _______ _______ _______ _____ _____    ______ ____
ROOT
ATOM      1  C   UNL     1      -8.011   4.964 130.292  0.00  0.00    +0.000 A 
ATOM      2  C   UNL     1      -9.094   5.664 130.789  0.00  0.00    +0.000 A 
ATOM      3  C   UNL     1     -10.378   5.182 130.924  0.00  0.00    +0.000 A 
ATOM      4  C   UNL     1     -10.605   3.934 130.363  0.00  0.00    +0.000 A 
ATOM      5  F   UNL     1     -11.841   3.412 130.364  0.00  0.00    +0.000 F 
ATOM      6  C   UNL     1      -9.556   3.219 129.743  0.00  0.00    +0.000 A 
ATOM      7  C   UNL     1      -8.230   3.718 129.724  0.00  0.00    +0.000 A 
ENDROOT
BRANCH   7   8
ATOM      8  C   UNL     1      -7.168   2.964 128.983  0.00  0.00    +0.000 C 
ATOM      9  O   UNL     1      -6.466   2.159 129.591  0.00  0.00    +0.000 OA
ATOM     10  N   UNL     1      -7.053   3.123 127.611  0.00  0.00    +0.000 N 
ATOM     11  C   UNL     1      -7.144   1.972 126.724  0.00  0.00    +0.000 C 
ATOM     12  C   UNL     1      -5.931   1.925 125.816  0.00  0.00    +0.000 C 
ATOM     13  C   UNL     1      -5.741   3.255 125.052  0.00  0.00    +0.000 C 
ATOM     14  C   UNL     1      -5.648   4.423 126.042  0.00  0.00    +0.000 C 
ATOM     15  C   UNL     1      -6.813   4.416 126.991  0.00  0.00    +0.000 C 
BRANCH  13  16
ATOM     16  N   UNL     1      -6.716   3.414 123.913  0.00  0.00    +0.000 N 
ATOM     17  C   UNL     1      -8.082   3.136 123.981  0.00  0.00    +0.000 C 
ATOM     18  O   UNL     1      -8.897   3.524 124.812  0.00  0.00    +0.000 OA
ATOM     19  O   UNL     1      -8.514   2.311 122.996  0.00  0.00    +0.000 OA
ATOM     20  C   UNL     1      -8.491   2.993 121.762  0.00  0.00    +0.000 C 
ATOM     21  C   UNL     1      -7.149   3.615 121.534  0.00  0.00    +0.000 A 
ATOM     22  C   UNL     1      -6.809   4.034 120.247  0.00  0.00    +0.000 A 
ATOM     23  C   UNL     1      -5.579   4.634 120.022  0.00  0.00    +0.000 A 
ATOM     24  C   UNL     1      -4.696   4.828 121.082  0.00  0.00    +0.000 A 
ATOM     25  C   UNL     1      -5.032   4.412 122.372  0.00  0.00    +0.000 A 
ATOM     26  C   UNL     1      -6.260   3.794 122.612  0.00  0.00    +0.000 A 
ENDBRANCH  13  16
ENDBRANCH   7   8
BRANCH   1  28
ATOM     27  C   UNL     1      -6.797   6.813 131.115  0.00  0.00    +0.000 C 
ATOM     28  O   UNL     1      -6.840   5.667 130.245  0.00  0.00    +0.000 OA
ENDBRANCH   1  28
BRANCH   3  29
ATOM     29  O   UNL     1     -11.387   5.880 131.531  0.00  0.00    +0.000 OA
BRANCH  29  30
ATOM     30  C   UNL     1     -11.752   7.222 131.092  0.00  0.00    +0.000 C 
ATOM     31  C   UNL     1     -13.018   7.746 131.804  0.00  0.00    +0.000 C 
BRANCH  30  32
ATOM     32  C   UNL     1     -11.743   7.422 129.569  0.00  0.00    +0.000 A 
ATOM     33  C   UNL     1     -10.751   8.145 128.913  0.00  0.00    +0.000 A 
ATOM     34  C   UNL     1     -10.745   8.210 127.510  0.00  0.00    +0.000 A 
ATOM     35  N   UNL     1     -11.653   7.509 126.733  0.00  0.00    +0.000 N 
ATOM     36  O   UNL     1     -11.613   7.530 125.469  0.00  0.00    +0.000 OA
ATOM     37  C   UNL     1     -12.639   6.824 127.377  0.00  0.00    +0.000 A 
ATOM     38  C   UNL     1     -12.743   6.883 128.762  0.00  0.00    +0.000 A 
ENDBRANCH  30  32
ENDBRANCH  29  30
ENDBRANCH   3  29
TORSDOF 6
ENDMDL
MODEL 2
REMARK VINA RESULT:     -10.2      1.835      2.595
REMARK  Name = CHEMBL105514
REMARK  8 active torsions:
REMARK  status: ('A' for Active; 'I' for Inactive)
REMARK    1  A    between atoms: C_1  and  O_2
REMARK    2  A    between atoms: O_2  and  C_3
REMARK    3  A    between atoms: C_5  and  O_6
REMARK    4  A    between atoms: O_6  and  C_7
REMARK    5  A    between atoms: C_7  and  C_8
REMARK    6  A    between atoms: C_7  and  C_9
REMARK    7  A    between atoms: C_19  and  C_20
REMARK    8  A    between atoms: C_25  and  N_26
REMARK                            x       y       z     vdW  Elec       q    Type
REMARK                         _______ _______ _______ _____ _____    ______ ____
ROOT
ATOM      1  C   UNL     1      -7.988   4.975 130.328  0.00  0.00    +0.000 A 
ATOM      2  C   UNL     1      -9.098   5.666 130.775  0.00  0.00    +0.000 A 
ATOM      3  C   UNL     1     -10.377   5.166 130.879  0.00  0.00    +0.000 A 
ATOM      4  C   UNL     1     -10.566   3.903 130.336  0.00  0.00    +0.000 A 
ATOM      5  F   UNL     1     -11.792   3.360 130.308  0.00  0.00    +0.000 F 
ATOM      6  C   UNL     1      -9.486   3.193 129.766  0.00  0.00    +0.000 A 
ATOM      7  C   UNL     1      -8.168   3.715 129.779  0.00  0.00    +0.000 A 
ENDROOT
BRANCH   7   8
ATOM      8  C   UNL     1      -7.070   2.964 129.088  0.00  0.00    +0.000 C 
ATOM      9  O   UNL     1      -6.099   2.583 129.738  0.00  0.00    +0.000 OA
ATOM     10  N   UNL     1      -7.209   2.637 127.748  0.00  0.00    +0.000 N 
ATOM     11  C   UNL     1      -7.130   1.249 127.315  0.00  0.00    +0.000 C 
ATOM     12  C   UNL     1      -6.098   1.113 126.212  0.00  0.00    +0.000 C 
ATOM     13  C   UNL     1      -6.380   2.088 125.047  0.00  0.00    +0.000 C 
ATOM     14  C   UNL     1      -6.446   3.528 125.569  0.00  0.00    +0.000 C 
ATOM     15  C   UNL     1      -7.411   3.639 126.715  0.00  0.00    +0.000 C 
BRANCH  13  16
ATOM     16  N   UNL     1      -7.522   1.635 124.174  0.00  0.00    +0.000 N 
ATOM     17  C   UNL     1      -8.555   2.454 123.714  0.00  0.00    +0.000 C 
ATOM     18  O   UNL     1      -8.471   3.537 123.145  0.00  0.00    +0.000 OA
ATOM     19  O   UNL     1      -9.790   1.960 123.972  0.00  0.00    +0.000 OA
ATOM     20  C   UNL     1     -10.029   0.832 123.160  0.00  0.00    +0.000 C 
ATOM     21  C   UNL     1      -8.907  -0.150 123.289  0.00  0.00    +0.000 A 
ATOM     22  C   UNL     1      -9.102  -1.460 122.848  0.00  0.00    +0.000 A 
ATOM     23  C   UNL     1      -8.066  -2.377 122.937  0.00  0.00    +0.000 A 
ATOM     24  C   UNL     1      -6.833  -1.984 123.453  0.00  0.00    +0.000 A 
ATOM     25  C   UNL     1      -6.631  -0.674 123.894  0.00  0.00    +0.000 A 
ATOM     26  C   UNL     1      -7.669   0.257 123.823  0.00  0.00    +0.000 A 
ENDBRANCH  13  16
ENDBRANCH   7   8
BRANCH   1  28
ATOM     27  C   UNL     1      -6.870   6.919 131.064  0.00  0.00    +0.000 C 
ATOM     28  O   UNL     1      -6.827   5.697 130.304  0.00  0.00    +0.000 OA
ENDBRANCH   1  28
BRANCH   3  29
ATOM     29  O   UNL     1     -11.416   5.858 131.439  0.00  0.00    +0.000 OA
BRANCH  29  30
ATOM     30  C   UNL     1     -11.744   7.214 131.011  0.00  0.00    +0.000 C 
ATOM     31  C   UNL     1     -13.012   7.755 131.703  0.00  0.00    +0.000 C 
BRANCH  30  32
ATOM     32  C   UNL     1     -11.699   7.432 129.491  0.00  0.00    +0.000 A 
ATOM     33  C   UNL     1     -10.664   8.119 128.862  0.00  0.00    +0.000 A 
ATOM     34  C   UNL     1     -10.631   8.203 127.460  0.00  0.00    +0.000 A 
ATOM     35  N   UNL     1     -11.555   7.553 126.658  0.00  0.00    +0.000 N 
ATOM     36  O   UNL     1     -11.491   7.589 125.396  0.00  0.00    +0.000 OA
ATOM     37  C   UNL     1     -12.581   6.904 127.275  0.00  0.00    +0.000 A 
ATOM     38  C   UNL     1     -12.708   6.950 128.659  0.00  0.00    +0.000 A 
ENDBRANCH  30  32
ENDBRANCH  29  30
ENDBRANCH   3  29
TORSDOF 6
ENDMDL
MODEL 3
REMARK VINA RESULT:      -9.5      4.176      5.107
REMARK  Name = CHEMBL105514
REMARK  8 active torsions:
REMARK  status: ('A' for Active; 'I' for Inactive)
REMARK    1  A    between atoms: C_1  and  O_2
REMARK    2  A    between atoms: O_2  and  C_3
REMARK    3  A    between atoms: C_5  and  O_6
REMARK    4  A    between atoms: O_6  and  C_7
REMARK    5  A    between atoms: C_7  and  C_8
REMARK    6  A    between atoms: C_7  and  C_9
REMARK    7  A    between atoms: C_19  and  C_20
REMARK    8  A    between atoms: C_25  and  N_26
REMARK                            x       y       z     vdW  Elec       q    Type
REMARK                         _______ _______ _______ _____ _____    ______ ____
ROOT
ATOM      1  C   UNL     1      -7.218   0.761 132.976  0.00  0.00    +0.000 A 
ATOM      2  C   UNL     1      -7.602   2.034 133.351  0.00  0.00    +0.000 A 
ATOM      3  C   UNL     1      -8.809   2.633 133.068  0.00  0.00    +0.000 A 
ATOM      4  C   UNL     1      -9.631   1.929 132.200  0.00  0.00    +0.000 A 
ATOM      5  F   UNL     1     -10.792   2.463 131.791  0.00  0.00    +0.000 F 
ATOM      6  C   UNL     1      -9.240   0.668 131.697  0.00  0.00    +0.000 A 
ATOM      7  C   UNL     1      -8.030   0.052 132.104  0.00  0.00    +0.000 A 
ENDROOT
BRANCH   7   8
ATOM      8  C   UNL     1      -7.617  -1.247 131.481  0.00  0.00    +0.000 C 
ATOM      9  O   UNL     1      -7.521  -2.249 132.186  0.00  0.00    +0.000 OA
ATOM     10  N   UNL     1      -7.435  -1.315 130.109  0.00  0.00    +0.000 N 
ATOM     11  C   UNL     1      -8.189  -2.272 129.311  0.00  0.00    +0.000 C 
ATOM     12  C   UNL     1      -7.238  -3.105 128.475  0.00  0.00    +0.000 C 
ATOM     13  C   UNL     1      -6.305  -2.218 127.620  0.00  0.00    +0.000 C 
ATOM     14  C   UNL     1      -5.540  -1.240 128.520  0.00  0.00    +0.000 C 
ATOM     15  C   UNL     1      -6.483  -0.474 129.404  0.00  0.00    +0.000 C 
BRANCH  13  16
ATOM     16  N   UNL     1      -7.003  -1.626 126.422  0.00  0.00    +0.000 N 
ATOM     17  C   UNL     1      -8.119  -0.789 126.477  0.00  0.00    +0.000 C 
ATOM     18  O   UNL     1      -8.276   0.227 127.146  0.00  0.00    +0.000 OA
ATOM     19  O   UNL     1      -9.142  -1.203 125.691  0.00  0.00    +0.000 OA
ATOM     20  C   UNL     1      -8.801  -1.024 124.334  0.00  0.00    +0.000 C 
ATOM     21  C   UNL     1      -7.475  -1.653 124.043  0.00  0.00    +0.000 A 
ATOM     22  C   UNL     1      -7.116  -1.889 122.715  0.00  0.00    +0.000 A 
ATOM     23  C   UNL     1      -5.881  -2.448 122.424  0.00  0.00    +0.000 A 
ATOM     24  C   UNL     1      -5.000  -2.760 123.457  0.00  0.00    +0.000 A 
ATOM     25  C   UNL     1      -5.352  -2.525 124.788  0.00  0.00    +0.000 A 
ATOM     26  C   UNL     1      -6.598  -1.975 125.097  0.00  0.00    +0.000 A 
ENDBRANCH  13  16
ENDBRANCH   7   8
BRANCH   1  28
ATOM     27  C   UNL     1      -4.900   1.005 132.605  0.00  0.00    +0.000 C 
ATOM     28  O   UNL     1      -5.959   0.397 133.367  0.00  0.00    +0.000 OA
ENDBRANCH   1  28
BRANCH   3  29
ATOM     29  O   UNL     1      -9.183   3.853 133.563  0.00  0.00    +0.000 OA
BRANCH  29  30
ATOM     30  C   UNL     1      -8.497   5.077 133.164  0.00  0.00    +0.000 C 
ATOM     31  C   UNL     1      -7.917   5.843 134.373  0.00  0.00    +0.000 C 
BRANCH  30  32
ATOM     32  C   UNL     1      -9.273   5.947 132.165  0.00  0.00    +0.000 A 
ATOM     33  C   UNL     1      -8.653   6.617 131.114  0.00  0.00    +0.000 A 
ATOM     34  C   UNL     1      -9.428   7.320 130.177  0.00  0.00    +0.000 A 
ATOM     35  N   UNL     1     -10.813   7.309 130.208  0.00  0.00    +0.000 N 
ATOM     36  O   UNL     1     -11.509   7.901 129.332  0.00  0.00    +0.000 OA
ATOM     37  C   UNL     1     -11.418   6.676 131.251  0.00  0.00    +0.000 A 
ATOM     38  C   UNL     1     -10.653   6.113 132.266  0.00  0.00    +0.000 A 
ENDBRANCH  30  32
ENDBRANCH  29  30
ENDBRANCH   3  29
TORSDOF 6
ENDMDL
MODEL 4
REMARK VINA RESULT:      -9.2      5.519      9.822
REMARK  Name = CHEMBL105514
REMARK  8 active torsions:
REMARK  status: ('A' for Active; 'I' for Inactive)
REMARK    1  A    between atoms: C_1  and  O_2
REMARK    2  A    between atoms: O_2  and  C_3
REMARK    3  A    between atoms: C_5  and  O_6
REMARK    4  A    between atoms: O_6  and  C_7
REMARK    5  A    between atoms: C_7  and  C_8
REMARK    6  A    between atoms: C_7  and  C_9
REMARK    7  A    between atoms: C_19  and  C_20
REMARK    8  A    between atoms: C_25  and  N_26
REMARK                            x       y       z     vdW  Elec       q    Type
REMARK                         _______ _______ _______ _____ _____    ______ ____
ROOT
ATOM      1  C   UNL     1      -7.188  -0.905 124.833  0.00  0.00    +0.000 A 
ATOM      2  C   UNL     1      -7.119   0.041 123.829  0.00  0.00    +0.000 A 
ATOM      3  C   UNL     1      -7.915   1.160 123.713  0.00  0.00    +0.000 A 
ATOM      4  C   UNL     1      -8.967   1.235 124.614  0.00  0.00    +0.000 A 
ATOM      5  F   UNL     1      -9.852   2.240 124.532  0.00  0.00    +0.000 F 
ATOM      6  C   UNL     1      -9.150   0.236 125.596  0.00  0.00    +0.000 A 
ATOM      7  C   UNL     1      -8.239  -0.842 125.734  0.00  0.00    +0.000 A 
ENDROOT
BRANCH   7   8
ATOM      8  C   UNL     1      -8.520  -1.921 126.735  0.00  0.00    +0.000 C 
ATOM      9  O   UNL     1      -9.287  -2.834 126.437  0.00  0.00    +0.000 OA
ATOM     10  N   UNL     1      -7.846  -1.918 127.946  0.00  0.00    +0.000 N 
ATOM     11  C   UNL     1      -7.055  -3.071 128.353  0.00  0.00    +0.000 C 
ATOM     12  C   UNL     1      -7.486  -3.529 129.732  0.00  0.00    +0.000 C 
ATOM     13  C   UNL     1      -7.431  -2.375 130.758  0.00  0.00    +0.000 C 
ATOM     14  C   UNL     1      -8.287  -1.198 130.272  0.00  0.00    +0.000 C 
ATOM     15  C   UNL     1      -7.908  -0.801 128.873  0.00  0.00    +0.000 C 
BRANCH  13  16
ATOM     16  N   UNL     1      -6.025  -2.050 131.192  0.00  0.00    +0.000 N 
ATOM     17  C   UNL     1      -5.322  -0.897 130.841  0.00  0.00    +0.000 C 
ATOM     18  O   UNL     1      -5.684   0.273 130.932  0.00  0.00    +0.000 OA
ATOM     19  O   UNL     1      -4.099  -1.149 130.316  0.00  0.00    +0.000 OA
ATOM     20  C   UNL     1      -3.239  -1.629 131.327  0.00  0.00    +0.000 C 
ATOM     21  C   UNL     1      -3.875  -2.774 132.051  0.00  0.00    +0.000 A 
ATOM     22  C   UNL     1      -3.074  -3.601 132.840  0.00  0.00    +0.000 A 
ATOM     23  C   UNL     1      -3.649  -4.652 133.539  0.00  0.00    +0.000 A 
ATOM     24  C   UNL     1      -5.023  -4.869 133.460  0.00  0.00    +0.000 A 
ATOM     25  C   UNL     1      -5.829  -4.043 132.673  0.00  0.00    +0.000 A 
ATOM     26  C   UNL     1      -5.263  -2.990 131.953  0.00  0.00    +0.000 A 
ENDBRANCH  13  16
ENDBRANCH   7   8
BRANCH   1  28
ATOM     27  C   UNL     1      -5.988  -2.309 123.364  0.00  0.00    +0.000 C 
ATOM     28  O   UNL     1      -6.296  -1.935 124.720  0.00  0.00    +0.000 OA
ENDBRANCH   1  28
BRANCH   3  29
ATOM     29  O   UNL     1      -7.727   2.126 122.763  0.00  0.00    +0.000 OA
BRANCH  29  30
ATOM     30  C   UNL     1      -6.498   2.911 122.710  0.00  0.00    +0.000 C 
ATOM     31  C   UNL     1      -6.269   3.727 124.000  0.00  0.00    +0.000 C 
BRANCH  30  32
ATOM     32  C   UNL     1      -6.299   3.700 121.407  0.00  0.00    +0.000 A 
ATOM     33  C   UNL     1      -7.272   3.766 120.414  0.00  0.00    +0.000 A 
ATOM     34  C   UNL     1      -7.069   4.582 119.289  0.00  0.00    +0.000 A 
ATOM     35  N   UNL     1      -5.958   5.399 119.159  0.00  0.00    +0.000 N 
ATOM     36  O   UNL     1      -5.804   6.170 118.168  0.00  0.00    +0.000 OA
ATOM     37  C   UNL     1      -4.994   5.313 120.117  0.00  0.00    +0.000 A 
ATOM     38  C   UNL     1      -5.117   4.393 121.153  0.00  0.00    +0.000 A 
ENDBRANCH  30  32
ENDBRANCH  29  30
ENDBRANCH   3  29
TORSDOF 6
ENDMDL
MODEL 5
REMARK VINA RESULT:      -9.0      4.068      5.466
REMARK  Name = CHEMBL105514
REMARK  8 active torsions:
REMARK  status: ('A' for Active; 'I' for Inactive)
REMARK    1  A    between atoms: C_1  and  O_2
REMARK    2  A    between atoms: O_2  and  C_3
REMARK    3  A    between atoms: C_5  and  O_6
REMARK    4  A    between atoms: O_6  and  C_7
REMARK    5  A    between atoms: C_7  and  C_8
REMARK    6  A    between atoms: C_7  and  C_9
REMARK    7  A    between atoms: C_19  and  C_20
REMARK    8  A    between atoms: C_25  and  N_26
REMARK                            x       y       z     vdW  Elec       q    Type
REMARK                         _______ _______ _______ _____ _____    ______ ____
ROOT
ATOM      1  C   UNL     1      -6.921   0.539 132.972  0.00  0.00    +0.000 A 
ATOM      2  C   UNL     1      -7.252   1.782 133.477  0.00  0.00    +0.000 A 
ATOM      3  C   UNL     1      -8.449   2.438 133.296  0.00  0.00    +0.000 A 
ATOM      4  C   UNL     1      -9.323   1.842 132.398  0.00  0.00    +0.000 A 
ATOM      5  F   UNL     1     -10.480   2.444 132.084  0.00  0.00    +0.000 F 
ATOM      6  C   UNL     1      -8.989   0.623 131.767  0.00  0.00    +0.000 A 
ATOM      7  C   UNL     1      -7.785  -0.062 132.070  0.00  0.00    +0.000 A 
ENDROOT
BRANCH   7   8
ATOM      8  C   UNL     1      -7.435  -1.308 131.314  0.00  0.00    +0.000 C 
ATOM      9  O   UNL     1      -7.443  -2.389 131.899  0.00  0.00    +0.000 OA
ATOM     10  N   UNL     1      -7.192  -1.231 129.952  0.00  0.00    +0.000 N 
ATOM     11  C   UNL     1      -7.972  -2.031 129.018  0.00  0.00    +0.000 C 
ATOM     12  C   UNL     1      -7.043  -2.832 128.126  0.00  0.00    +0.000 C 
ATOM     13  C   UNL     1      -6.010  -1.924 127.420  0.00  0.00    +0.000 C 
ATOM     14  C   UNL     1      -5.222  -1.116 128.458  0.00  0.00    +0.000 C 
ATOM     15  C   UNL     1      -6.151  -0.388 129.389  0.00  0.00    +0.000 C 
BRANCH  13  16
ATOM     16  N   UNL     1      -6.608  -1.148 126.274  0.00  0.00    +0.000 N 
ATOM     17  C   UNL     1      -6.444   0.221 126.061  0.00  0.00    +0.000 C 
ATOM     18  O   UNL     1      -5.402   0.869 126.035  0.00  0.00    +0.000 OA
ATOM     19  O   UNL     1      -7.613   0.884 125.888  0.00  0.00    +0.000 OA
ATOM     20  C   UNL     1      -8.176   0.535 124.642  0.00  0.00    +0.000 C 
ATOM     21  C   UNL     1      -8.256  -0.953 124.505  0.00  0.00    +0.000 A 
ATOM     22  C   UNL     1      -9.081  -1.497 123.518  0.00  0.00    +0.000 A 
ATOM     23  C   UNL     1      -9.148  -2.873 123.360  0.00  0.00    +0.000 A 
ATOM     24  C   UNL     1      -8.385  -3.704 124.177  0.00  0.00    +0.000 A 
ATOM     25  C   UNL     1      -7.557  -3.166 125.165  0.00  0.00    +0.000 A 
ATOM     26  C   UNL     1      -7.489  -1.783 125.345  0.00  0.00    +0.000 A 
ENDBRANCH  13  16
ENDBRANCH   7   8
BRANCH   1  28
ATOM     27  C   UNL     1      -5.146   0.611 134.526  0.00  0.00    +0.000 C 
ATOM     28  O   UNL     1      -5.662   0.106 133.280  0.00  0.00    +0.000 OA
ENDBRANCH   1  28
BRANCH   3  29
ATOM     29  O   UNL     1      -8.768   3.616 133.915  0.00  0.00    +0.000 OA
BRANCH  29  30
ATOM     30  C   UNL     1      -8.008   4.836 133.663  0.00  0.00    +0.000 C 
ATOM     31  C   UNL     1      -7.832   5.690 134.937  0.00  0.00    +0.000 C 
BRANCH  30  32
ATOM     32  C   UNL     1      -8.456   5.622 132.421  0.00  0.00    +0.000 A 
ATOM     33  C   UNL     1      -9.793   5.746 132.054  0.00  0.00    +0.000 A 
ATOM     34  C   UNL     1     -10.147   6.557 130.962  0.00  0.00    +0.000 A 
ATOM     35  N   UNL     1      -9.215   7.315 130.272  0.00  0.00    +0.000 N 
ATOM     36  O   UNL     1      -9.544   8.083 129.323  0.00  0.00    +0.000 OA
ATOM     37  C   UNL     1      -7.905   7.171 130.615  0.00  0.00    +0.000 A 
ATOM     38  C   UNL     1      -7.532   6.253 131.590  0.00  0.00    +0.000 A 
ENDBRANCH  30  32
ENDBRANCH  29  30
ENDBRANCH   3  29
TORSDOF 6
ENDMDL
MODEL 6
REMARK VINA RESULT:      -8.8      4.909      9.083
REMARK  Name = CHEMBL105514
REMARK  8 active torsions:
REMARK  status: ('A' for Active; 'I' for Inactive)
REMARK    1  A    between atoms: C_1  and  O_2
REMARK    2  A    between atoms: O_2  and  C_3
REMARK    3  A    between atoms: C_5  and  O_6
REMARK    4  A    between atoms: O_6  and  C_7
REMARK    5  A    between atoms: C_7  and  C_8
REMARK    6  A    between atoms: C_7  and  C_9
REMARK    7  A    between atoms: C_19  and  C_20
REMARK    8  A    between atoms: C_25  and  N_26
REMARK                            x       y       z     vdW  Elec       q    Type
REMARK                         _______ _______ _______ _____ _____    ______ ____
ROOT
ATOM      1  C   UNL     1      -4.975   1.966 130.527  0.00  0.00    +0.000 A 
ATOM      2  C   UNL     1      -4.292   0.918 129.940  0.00  0.00    +0.000 A 
ATOM      3  C   UNL     1      -4.117  -0.338 130.477  0.00  0.00    +0.000 A 
ATOM      4  C   UNL     1      -4.543  -0.486 131.789  0.00  0.00    +0.000 A 
ATOM      5  F   UNL     1      -4.340  -1.644 132.435  0.00  0.00    +0.000 F 
ATOM      6  C   UNL     1      -5.151   0.587 132.477  0.00  0.00    +0.000 A 
ATOM      7  C   UNL     1      -5.399   1.829 131.840  0.00  0.00    +0.000 A 
ENDROOT
BRANCH   7   8
ATOM      8  C   UNL     1      -5.970   2.965 132.634  0.00  0.00    +0.000 C 
ATOM      9  O   UNL     1      -5.407   3.319 133.667  0.00  0.00    +0.000 OA
ATOM     10  N   UNL     1      -7.071   3.650 132.146  0.00  0.00    +0.000 N 
ATOM     11  C   UNL     1      -7.009   5.089 131.932  0.00  0.00    +0.000 C 
ATOM     12  C   UNL     1      -8.159   5.766 132.652  0.00  0.00    +0.000 C 
ATOM     13  C   UNL     1      -9.521   5.159 132.245  0.00  0.00    +0.000 C 
ATOM     14  C   UNL     1      -9.520   3.646 132.500  0.00  0.00    +0.000 C 
ATOM     15  C   UNL     1      -8.333   2.993 131.850  0.00  0.00    +0.000 C 
BRANCH  13  16
ATOM     16  N   UNL     1      -9.974   5.612 130.881  0.00  0.00    +0.000 N 
ATOM     17  C   UNL     1      -9.400   5.214 129.672  0.00  0.00    +0.000 C 
ATOM     18  O   UNL     1      -9.160   4.076 129.280  0.00  0.00    +0.000 OA
ATOM     19  O   UNL     1      -9.060   6.252 128.869  0.00  0.00    +0.000 OA
ATOM     20  C   UNL     1     -10.227   6.865 128.366  0.00  0.00    +0.000 C 
ATOM     21  C   UNL     1     -11.164   7.199 129.485  0.00  0.00    +0.000 A 
ATOM     22  C   UNL     1     -12.201   8.103 129.249  0.00  0.00    +0.000 A 
ATOM     23  C   UNL     1     -13.094   8.406 130.266  0.00  0.00    +0.000 A 
ATOM     24  C   UNL     1     -12.958   7.799 131.512  0.00  0.00    +0.000 A 
ATOM     25  C   UNL     1     -11.923   6.892 131.753  0.00  0.00    +0.000 A 
ATOM     26  C   UNL     1     -11.009   6.587 130.744  0.00  0.00    +0.000 A 
ENDBRANCH  13  16
ENDBRANCH   7   8
BRANCH   1  28
ATOM     27  C   UNL     1      -3.728   3.500 129.239  0.00  0.00    +0.000 C 
ATOM     28  O   UNL     1      -4.999   3.123 129.798  0.00  0.00    +0.000 OA
ENDBRANCH   1  28
BRANCH   3  29
ATOM     29  O   UNL     1      -3.533  -1.374 129.801  0.00  0.00    +0.000 OA
BRANCH  29  30
ATOM     30  C   UNL     1      -4.205  -2.661 129.657  0.00  0.00    +0.000 C 
ATOM     31  C   UNL     1      -3.236  -3.782 129.224  0.00  0.00    +0.000 C 
BRANCH  30  32
ATOM     32  C   UNL     1      -5.521  -2.609 128.866  0.00  0.00    +0.000 A 
ATOM     33  C   UNL     1      -5.585  -2.181 127.543  0.00  0.00    +0.000 A 
ATOM     34  C   UNL     1      -6.802  -2.246 126.844  0.00  0.00    +0.000 A 
ATOM     35  N   UNL     1      -7.943  -2.803 127.398  0.00  0.00    +0.000 N 
ATOM     36  O   UNL     1      -9.023  -2.907 126.748  0.00  0.00    +0.000 OA
ATOM     37  C   UNL     1      -7.886  -3.197 128.700  0.00  0.00    +0.000 A 
ATOM     38  C   UNL     1      -6.730  -2.991 129.445  0.00  0.00    +0.000 A 
ENDBRANCH  30  32
ENDBRANCH  29  30
ENDBRANCH   3  29
TORSDOF 6
ENDMDL
MODEL 7
REMARK VINA RESULT:      -8.6      4.684      9.328
REMARK  Name = CHEMBL105514
REMARK  8 active torsions:
REMARK  status: ('A' for Active; 'I' for Inactive)
REMARK    1  A    between atoms: C_1  and  O_2
REMARK    2  A    between atoms: O_2  and  C_3
REMARK    3  A    between atoms: C_5  and  O_6
REMARK    4  A    between atoms: O_6  and  C_7
REMARK    5  A    between atoms: C_7  and  C_8
REMARK    6  A    between atoms: C_7  and  C_9
REMARK    7  A    between atoms: C_19  and  C_20
REMARK    8  A    between atoms: C_25  and  N_26
REMARK                            x       y       z     vdW  Elec       q    Type
REMARK                         _______ _______ _______ _____ _____    ______ ____
ROOT
ATOM      1  C   UNL     1      -6.266  -2.148 127.595  0.00  0.00    +0.000 A 
ATOM      2  C   UNL     1      -6.374  -2.441 126.249  0.00  0.00    +0.000 A 
ATOM      3  C   UNL     1      -7.537  -2.744 125.576  0.00  0.00    +0.000 A 
ATOM      4  C   UNL     1      -8.658  -2.912 126.376  0.00  0.00    +0.000 A 
ATOM      5  F   UNL     1      -9.823  -3.293 125.829  0.00  0.00    +0.000 F 
ATOM      6  C   UNL     1      -8.581  -2.732 127.775  0.00  0.00    +0.000 A 
ATOM      7  C   UNL     1      -7.379  -2.319 128.403  0.00  0.00    +0.000 A 
ENDROOT
BRANCH   7   8
ATOM      8  C   UNL     1      -7.324  -2.223 129.897  0.00  0.00    +0.000 C 
ATOM      9  O   UNL     1      -7.270  -3.252 130.566  0.00  0.00    +0.000 OA
ATOM     10  N   UNL     1      -7.247  -0.974 130.495  0.00  0.00    +0.000 N 
ATOM     11  C   UNL     1      -6.145  -0.651 131.389  0.00  0.00    +0.000 C 
ATOM     12  C   UNL     1      -6.686  -0.148 132.713  0.00  0.00    +0.000 C 
ATOM     13  C   UNL     1      -7.662   1.035 132.515  0.00  0.00    +0.000 C 
ATOM     14  C   UNL     1      -8.799   0.627 131.569  0.00  0.00    +0.000 C 
ATOM     15  C   UNL     1      -8.254   0.054 130.292  0.00  0.00    +0.000 C 
BRANCH  13  16
ATOM     16  N   UNL     1      -6.953   2.326 132.197  0.00  0.00    +0.000 N 
ATOM     17  C   UNL     1      -6.141   2.542 131.082  0.00  0.00    +0.000 C 
ATOM     18  O   UNL     1      -6.394   2.321 129.902  0.00  0.00    +0.000 OA
ATOM     19  O   UNL     1      -4.920   3.040 131.392  0.00  0.00    +0.000 OA
ATOM     20  C   UNL     1      -5.048   4.374 131.831  0.00  0.00    +0.000 C 
ATOM     21  C   UNL     1      -6.074   4.470 132.916  0.00  0.00    +0.000 A 
ATOM     22  C   UNL     1      -6.109   5.615 133.713  0.00  0.00    +0.000 A 
ATOM     23  C   UNL     1      -7.068   5.732 134.708  0.00  0.00    +0.000 A 
ATOM     24  C   UNL     1      -7.998   4.713 134.899  0.00  0.00    +0.000 A 
ATOM     25  C   UNL     1      -7.969   3.565 134.103  0.00  0.00    +0.000 A 
ATOM     26  C   UNL     1      -7.002   3.427 133.107  0.00  0.00    +0.000 A 
ENDBRANCH  13  16
ENDBRANCH   7   8
BRANCH   1  28
ATOM     27  C   UNL     1      -4.314  -3.035 128.582  0.00  0.00    +0.000 C 
ATOM     28  O   UNL     1      -4.996  -1.893 128.032  0.00  0.00    +0.000 OA
ENDBRANCH   1  28
BRANCH   3  29
ATOM     29  O   UNL     1      -7.604  -2.911 124.220  0.00  0.00    +0.000 OA
BRANCH  29  30
ATOM     30  C   UNL     1      -7.428  -1.786 123.307  0.00  0.00    +0.000 C 
ATOM     31  C   UNL     1      -6.049  -1.805 122.614  0.00  0.00    +0.000 C 
BRANCH  30  32
ATOM     32  C   UNL     1      -7.837  -0.423 123.886  0.00  0.00    +0.000 A 
ATOM     33  C   UNL     1      -6.907   0.520 124.313  0.00  0.00    +0.000 A 
ATOM     34  C   UNL     1      -7.340   1.785 124.744  0.00  0.00    +0.000 A 
ATOM     35  N   UNL     1      -8.669   2.170 124.686  0.00  0.00    +0.000 N 
ATOM     36  O   UNL     1      -9.048   3.328 125.027  0.00  0.00    +0.000 OA
ATOM     37  C   UNL     1      -9.581   1.238 124.294  0.00  0.00    +0.000 A 
ATOM     38  C   UNL     1      -9.177  -0.063 124.016  0.00  0.00    +0.000 A 
ENDBRANCH  30  32
ENDBRANCH  29  30
ENDBRANCH   3  29
TORSDOF 6
ENDMDL
MODEL 8
REMARK VINA RESULT:      -8.6      5.459      9.199
REMARK  Name = CHEMBL105514
REMARK  8 active torsions:
REMARK  status: ('A' for Active; 'I' for Inactive)
REMARK    1  A    between atoms: C_1  and  O_2
REMARK    2  A    between atoms: O_2  and  C_3
REMARK    3  A    between atoms: C_5  and  O_6
REMARK    4  A    between atoms: O_6  and  C_7
REMARK    5  A    between atoms: C_7  and  C_8
REMARK    6  A    between atoms: C_7  and  C_9
REMARK    7  A    between atoms: C_19  and  C_20
REMARK    8  A    between atoms: C_25  and  N_26
REMARK                            x       y       z     vdW  Elec       q    Type
REMARK                         _______ _______ _______ _____ _____    ______ ____
ROOT
ATOM      1  C   UNL     1      -4.031   5.105 132.547  0.00  0.00    +0.000 A 
ATOM      2  C   UNL     1      -3.227   6.059 133.138  0.00  0.00    +0.000 A 
ATOM      3  C   UNL     1      -3.470   6.695 134.336  0.00  0.00    +0.000 A 
ATOM      4  C   UNL     1      -4.714   6.446 134.897  0.00  0.00    +0.000 A 
ATOM      5  F   UNL     1      -5.085   7.083 136.019  0.00  0.00    +0.000 F 
ATOM      6  C   UNL     1      -5.623   5.561 134.277  0.00  0.00    +0.000 A 
ATOM      7  C   UNL     1      -5.279   4.854 133.097  0.00  0.00    +0.000 A 
ENDROOT
BRANCH   7   8
ATOM      8  C   UNL     1      -6.305   3.990 132.429  0.00  0.00    +0.000 C 
ATOM      9  O   UNL     1      -6.153   2.770 132.422  0.00  0.00    +0.000 OA
ATOM     10  N   UNL     1      -7.448   4.574 131.906  0.00  0.00    +0.000 N 
ATOM     11  C   UNL     1      -8.766   4.142 132.350  0.00  0.00    +0.000 C 
ATOM     12  C   UNL     1      -9.615   3.767 131.151  0.00  0.00    +0.000 C 
ATOM     13  C   UNL     1      -9.678   4.914 130.118  0.00  0.00    +0.000 C 
ATOM     14  C   UNL     1      -8.261   5.316 129.690  0.00  0.00    +0.000 C 
ATOM     15  C   UNL     1      -7.402   5.609 130.888  0.00  0.00    +0.000 C 
BRANCH  13  16
ATOM     16  N   UNL     1     -10.595   6.031 130.547  0.00  0.00    +0.000 N 
ATOM     17  C   UNL     1     -10.956   6.311 131.866  0.00  0.00    +0.000 C 
ATOM     18  O   UNL     1     -10.226   6.456 132.841  0.00  0.00    +0.000 OA
ATOM     19  O   UNL     1     -12.295   6.405 132.050  0.00  0.00    +0.000 OA
ATOM     20  C   UNL     1     -12.778   7.581 131.437  0.00  0.00    +0.000 C 
ATOM     21  C   UNL     1     -12.319   7.652 130.014  0.00  0.00    +0.000 A 
ATOM     22  C   UNL     1     -12.955   8.540 129.144  0.00  0.00    +0.000 A 
ATOM     23  C   UNL     1     -12.528   8.638 127.829  0.00  0.00    +0.000 A 
ATOM     24  C   UNL     1     -11.460   7.861 127.385  0.00  0.00    +0.000 A 
ATOM     25  C   UNL     1     -10.819   6.972 128.252  0.00  0.00    +0.000 A 
ATOM     26  C   UNL     1     -11.246   6.853 129.575  0.00  0.00    +0.000 A 
ENDBRANCH  13  16
ENDBRANCH   7   8
BRANCH   1  28
ATOM     27  C   UNL     1      -3.661   5.575 130.264  0.00  0.00    +0.000 C 
ATOM     28  O   UNL     1      -3.580   4.630 131.347  0.00  0.00    +0.000 OA
ENDBRANCH   1  28
BRANCH   3  29
ATOM     29  O   UNL     1      -2.581   7.547 134.933  0.00  0.00    +0.000 OA
BRANCH  29  30
ATOM     30  C   UNL     1      -1.236   7.738 134.401  0.00  0.00    +0.000 C 
ATOM     31  C   UNL     1      -0.144   7.327 135.411  0.00  0.00    +0.000 C 
BRANCH  30  32
ATOM     32  C   UNL     1      -1.005   9.096 133.722  0.00  0.00    +0.000 A 
ATOM     33  C   UNL     1      -2.048   9.884 133.246  0.00  0.00    +0.000 A 
ATOM     34  C   UNL     1      -1.779  11.159 132.721  0.00  0.00    +0.000 A 
ATOM     35  N   UNL     1      -0.508  11.708 132.729  0.00  0.00    +0.000 N 
ATOM     36  O   UNL     1      -0.278  12.877 132.302  0.00  0.00    +0.000 OA
ATOM     37  C   UNL     1       0.516  10.926 133.170  0.00  0.00    +0.000 A 
ATOM     38  C   UNL     1       0.279   9.608 133.545  0.00  0.00    +0.000 A 
ENDBRANCH  30  32
ENDBRANCH  29  30
ENDBRANCH   3  29
TORSDOF 6
ENDMDL
MODEL 9
REMARK VINA RESULT:      -8.6      5.747      9.493
REMARK  Name = CHEMBL105514
REMARK  8 active torsions:
REMARK  status: ('A' for Active; 'I' for Inactive)
REMARK    1  A    between atoms: C_1  and  O_2
REMARK    2  A    between atoms: O_2  and  C_3
REMARK    3  A    between atoms: C_5  and  O_6
REMARK    4  A    between atoms: O_6  and  C_7
REMARK    5  A    between atoms: C_7  and  C_8
REMARK    6  A    between atoms: C_7  and  C_9
REMARK    7  A    between atoms: C_19  and  C_20
REMARK    8  A    between atoms: C_25  and  N_26
REMARK                            x       y       z     vdW  Elec       q    Type
REMARK                         _______ _______ _______ _____ _____    ______ ____
ROOT
ATOM      1  C   UNL     1      -5.969   5.069 133.235  0.00  0.00    +0.000 A 
ATOM      2  C   UNL     1      -7.339   5.240 133.280  0.00  0.00    +0.000 A 
ATOM      3  C   UNL     1      -8.092   5.986 132.400  0.00  0.00    +0.000 A 
ATOM      4  C   UNL     1      -7.366   6.743 131.492  0.00  0.00    +0.000 A 
ATOM      5  F   UNL     1      -8.000   7.570 130.647  0.00  0.00    +0.000 F 
ATOM      6  C   UNL     1      -5.954   6.691 131.474  0.00  0.00    +0.000 A 
ATOM      7  C   UNL     1      -5.234   5.826 132.336  0.00  0.00    +0.000 A 
ENDROOT
BRANCH   7   8
ATOM      8  C   UNL     1      -3.736   5.866 132.338  0.00  0.00    +0.000 C 
ATOM      9  O   UNL     1      -3.109   4.990 131.748  0.00  0.00    +0.000 OA
ATOM     10  N   UNL     1      -3.086   6.936 132.933  0.00  0.00    +0.000 N 
ATOM     11  C   UNL     1      -2.153   7.750 132.166  0.00  0.00    +0.000 C 
ATOM     12  C   UNL     1      -0.824   7.829 132.891  0.00  0.00    +0.000 C 
ATOM     13  C   UNL     1      -0.997   8.325 134.345  0.00  0.00    +0.000 C 
ATOM     14  C   UNL     1      -1.986   7.424 135.095  0.00  0.00    +0.000 C 
ATOM     15  C   UNL     1      -3.272   7.286 134.331  0.00  0.00    +0.000 C 
BRANCH  13  16
ATOM     16  N   UNL     1      -1.245   9.810 134.425  0.00  0.00    +0.000 N 
ATOM     17  C   UNL     1      -2.316  10.410 135.089  0.00  0.00    +0.000 C 
ATOM     18  O   UNL     1      -2.700  10.223 136.239  0.00  0.00    +0.000 OA
ATOM     19  O   UNL     1      -3.005  11.287 134.319  0.00  0.00    +0.000 OA
ATOM     20  C   UNL     1      -2.219  12.436 134.089  0.00  0.00    +0.000 C 
ATOM     21  C   UNL     1      -0.870  12.049 133.571  0.00  0.00    +0.000 A 
ATOM     22  C   UNL     1      -0.075  13.023 132.964  0.00  0.00    +0.000 A 
ATOM     23  C   UNL     1       1.188  12.689 132.500  0.00  0.00    +0.000 A 
ATOM     24  C   UNL     1       1.662  11.388 132.651  0.00  0.00    +0.000 A 
ATOM     25  C   UNL     1       0.872  10.410 133.259  0.00  0.00    +0.000 A 
ATOM     26  C   UNL     1      -0.406  10.727 133.720  0.00  0.00    +0.000 A 
ENDBRANCH  13  16
ENDBRANCH   7   8
BRANCH   1  28
ATOM     27  C   UNL     1      -5.365   2.890 133.912  0.00  0.00    +0.000 C 
ATOM     28  O   UNL     1      -5.450   4.291 134.233  0.00  0.00    +0.000 OA
ENDBRANCH   1  28
BRANCH   3  29
ATOM     29  O   UNL     1      -9.460   6.026 132.420  0.00  0.00    +0.000 OA
BRANCH  29  30
ATOM     30  C   UNL     1     -10.255   5.335 131.411  0.00  0.00    +0.000 C 
ATOM     31  C   UNL     1      -9.436   4.272 130.648  0.00  0.00    +0.000 C 
BRANCH  30  32
ATOM     32  C   UNL     1     -11.098   6.258 130.519  0.00  0.00    +0.000 A 
ATOM     33  C   UNL     1     -10.756   6.546 129.201  0.00  0.00    +0.000 A 
ATOM     34  C   UNL     1     -11.617   7.320 128.407  0.00  0.00    +0.000 A 
ATOM     35  N   UNL     1     -12.853   7.751 128.861  0.00  0.00    +0.000 N 
ATOM     36  O   UNL     1     -13.648   8.405 128.126  0.00  0.00    +0.000 OA
ATOM     37  C   UNL     1     -13.175   7.492 130.159  0.00  0.00    +0.000 A 
ATOM     38  C   UNL     1     -12.260   6.863 130.995  0.00  0.00    +0.000 A 
ENDBRANCH  30  32
ENDBRANCH  29  30
ENDBRANCH   3  29
TORSDOF 6
ENDMDL
