MODEL 1
REMARK VINA RESULT:      -9.4      0.000      0.000
REMARK  Name = CHEMBL271057
REMARK  13 active torsions:
REMARK  status: ('A' for Active; 'I' for Inactive)
REMARK    1  A    between atoms: C_1  and  N_2
REMARK    2  A    between atoms: C_3  and  C_5
REMARK    3  A    between atoms: C_8  and  C_9
REMARK    4  A    between atoms: C_9  and  C_10
REMARK    5  A    between atoms: C_9  and  N_16
REMARK    6  A    between atoms: N_12  and  C_13
REMARK    7  A    between atoms: C_13  and  C_14
REMARK    8  A    between atoms: C_13  and  C_15
REMARK    9  A    between atoms: C_19  and  C_20
REMARK   10  A    between atoms: CA_32  and  CB_33
REMARK   11  A    between atoms: CB_33  and  CG_34
REMARK   12  A    between atoms: CG_34  and  CD1_35
REMARK   13  A    between atoms: CG_34  and  CD2_36
REMARK                            x       y       z     vdW  Elec       q    Type
REMARK                         _______ _______ _______ _____ _____    ______ ____
ROOT
ATOM      1  N   LEU A   1      -7.988   0.979 127.158  0.00  0.00    +0.000 N 
ATOM      2  C   UNK A   2      -7.919   2.078 126.309  0.00  0.00    +0.000 C 
ATOM      3  O   UNK A   2      -7.597   3.182 126.737  0.00  0.00    +0.000 OA
ATOM      4  C   UNK A   2      -8.396   1.824 124.852  0.00  0.00    +0.000 C 
ATOM      5  N   UNK A   2      -7.793   0.600 124.384  0.00  0.00    +0.000 N 
ATOM      6  C   LEU A   1      -8.201  -0.521 125.032  0.00  0.00    +0.000 C 
ATOM      7  O   LEU A   1      -8.345  -1.560 124.399  0.00  0.00    +0.000 OA
ATOM      8  CA  LEU A   1      -8.449  -0.340 126.550  0.00  0.00    +0.000 C 
ATOM      9  H   UNK A   2      -7.624   0.442 123.395  0.00  0.00    +0.000 HD
ENDROOT
BRANCH   4  10
ATOM     10  C   UNK A   2      -8.050   2.942 123.904  0.00  0.00    +0.000 C 
ATOM     11  C   UNK A   2      -6.554   2.965 123.545  0.00  0.00    +0.000 C 
ATOM     12  C   UNK A   2      -6.620   3.479 122.150  0.00  0.00    +0.000 A 
ATOM     13  C   UNK A   2      -5.570   3.937 121.386  0.00  0.00    +0.000 A 
ATOM     14  C   UNK A   2      -5.849   4.389 120.099  0.00  0.00    +0.000 A 
ATOM     15  C   UNK A   2      -7.155   4.343 119.584  0.00  0.00    +0.000 A 
ATOM     16  C   UNK A   2      -8.203   3.838 120.346  0.00  0.00    +0.000 A 
ATOM     17  C   UNK A   2      -7.919   3.419 121.630  0.00  0.00    +0.000 A 
ATOM     18  C   UNK A   2      -8.867   2.818 122.600  0.00  0.00    +0.000 C 
ENDBRANCH   4  10
BRANCH   1  19
ATOM     19  C   UNK A   0      -7.423   1.209 128.568  0.00  0.00    +0.000 C 
BRANCH  19  23
ATOM     20  C   UNK A   0      -9.912   3.195 130.422  0.00  0.00    +0.000 A 
ATOM     21  C   UNK A   0      -9.822   2.143 131.294  0.00  0.00    +0.000 A 
ATOM     22  C   UNK A   0      -8.689   1.398 130.927  0.00  0.00    +0.000 A 
ATOM     23  C   UNK A   0      -8.332   1.833 129.651  0.00  0.00    +0.000 A 
ATOM     24  O   UNK A   0      -9.050   2.985 129.370  0.00  0.00    +0.000 OA
BRANCH  20  27
ATOM     25  C   UNK A   0     -11.194   6.327 131.946  0.00  0.00    +0.000 C 
ATOM     26  N   UNK A   0     -10.524   5.088 131.678  0.00  0.00    +0.000 N 
ATOM     27  C   UNK A   0     -10.798   4.341 130.527  0.00  0.00    +0.000 C 
ATOM     28  O   UNK A   0     -11.680   4.633 129.748  0.00  0.00    +0.000 OA
ATOM     29  H   UNK A   0      -9.734   4.843 132.259  0.00  0.00    +0.000 HD
ENDBRANCH  20  27
ENDBRANCH  19  23
BRANCH  19  30
ATOM     30  C   UNK A   0      -6.046   1.912 128.716  0.00  0.00    +0.000 C 
ATOM     31  O   UNK A   0      -5.036   1.312 128.329  0.00  0.00    +0.000 OA
ATOM     32  N   UNK A   0      -5.947   3.173 129.284  0.00  0.00    +0.000 N 
ATOM     33  H   UNK A   0      -6.777   3.719 129.478  0.00  0.00    +0.000 HD
BRANCH  32  34
ATOM     34  C   UNK A   0      -4.620   3.770 129.422  0.00  0.00    +0.000 C 
ATOM     35  C   UNK A   0      -4.367   4.862 128.374  0.00  0.00    +0.000 C 
ATOM     36  C   UNK A   0      -4.355   4.364 130.805  0.00  0.00    +0.000 C 
ENDBRANCH  32  34
ENDBRANCH  19  30
ENDBRANCH   1  19
BRANCH   8  37
ATOM     37  CB  LEU A   1      -7.697  -1.466 127.210  0.00  0.00    +0.000 C 
BRANCH  37  38
ATOM     38  CG  LEU A   1      -8.197  -2.477 128.235  0.00  0.00    +0.000 C 
ATOM     39  CD1 LEU A   1      -8.812  -3.702 127.523  0.00  0.00    +0.000 C 
ATOM     40  CD2 LEU A   1      -7.074  -3.059 129.102  0.00  0.00    +0.000 C 
ENDBRANCH  37  38
ENDBRANCH   8  37
TORSDOF 8
ENDMDL
MODEL 2
REMARK VINA RESULT:      -9.2      2.624      6.036
REMARK  Name = CHEMBL271057
REMARK  13 active torsions:
REMARK  status: ('A' for Active; 'I' for Inactive)
REMARK    1  A    between atoms: C_1  and  N_2
REMARK    2  A    between atoms: C_3  and  C_5
REMARK    3  A    between atoms: C_8  and  C_9
REMARK    4  A    between atoms: C_9  and  C_10
REMARK    5  A    between atoms: C_9  and  N_16
REMARK    6  A    between atoms: N_12  and  C_13
REMARK    7  A    between atoms: C_13  and  C_14
REMARK    8  A    between atoms: C_13  and  C_15
REMARK    9  A    between atoms: C_19  and  C_20
REMARK   10  A    between atoms: CA_32  and  CB_33
REMARK   11  A    between atoms: CB_33  and  CG_34
REMARK   12  A    between atoms: CG_34  and  CD1_35
REMARK   13  A    between atoms: CG_34  and  CD2_36
REMARK                            x       y       z     vdW  Elec       q    Type
REMARK                         _______ _______ _______ _____ _____    ______ ____
ROOT
ATOM      1  N   LEU A   1      -7.267   1.761 125.923  0.00  0.00    +0.000 N 
ATOM      2  C   UNK A   2      -6.883   1.721 124.587  0.00  0.00    +0.000 C 
ATOM      3  O   UNK A   2      -6.826   0.654 123.982  0.00  0.00    +0.000 OA
ATOM      4  C   UNK A   2      -6.421   3.078 123.987  0.00  0.00    +0.000 C 
ATOM      5  N   UNK A   2      -7.381   4.088 124.359  0.00  0.00    +0.000 N 
ATOM      6  C   LEU A   1      -7.442   4.354 125.689  0.00  0.00    +0.000 C 
ATOM      7  O   LEU A   1      -7.628   5.507 126.061  0.00  0.00    +0.000 OA
ATOM      8  CA  LEU A   1      -7.258   3.121 126.607  0.00  0.00    +0.000 C 
ATOM      9  H   UNK A   2      -7.523   4.915 123.786  0.00  0.00    +0.000 HD
ENDROOT
BRANCH   4  10
ATOM     10  C   UNK A   2      -6.282   3.054 122.488  0.00  0.00    +0.000 C 
ATOM     11  C   UNK A   2      -7.633   3.220 121.769  0.00  0.00    +0.000 C 
ATOM     12  C   UNK A   2      -7.200   3.952 120.548  0.00  0.00    +0.000 A 
ATOM     13  C   UNK A   2      -7.942   4.172 119.409  0.00  0.00    +0.000 A 
ATOM     14  C   UNK A   2      -7.342   4.875 118.367  0.00  0.00    +0.000 A 
ATOM     15  C   UNK A   2      -6.035   5.377 118.491  0.00  0.00    +0.000 A 
ATOM     16  C   UNK A   2      -5.309   5.188 119.662  0.00  0.00    +0.000 A 
ATOM     17  C   UNK A   2      -5.904   4.466 120.677  0.00  0.00    +0.000 A 
ATOM     18  C   UNK A   2      -5.332   4.175 122.014  0.00  0.00    +0.000 C 
ENDBRANCH   4  10
BRANCH   1  19
ATOM     19  C   UNK A   0      -7.816   0.439 126.482  0.00  0.00    +0.000 C 
BRANCH  19  23
ATOM     20  C   UNK A   0      -6.383  -2.182 128.639  0.00  0.00    +0.000 A 
ATOM     21  C   UNK A   0      -5.266  -1.922 127.891  0.00  0.00    +0.000 A 
ATOM     22  C   UNK A   0      -5.505  -0.725 127.195  0.00  0.00    +0.000 A 
ATOM     23  C   UNK A   0      -6.876  -0.486 127.287  0.00  0.00    +0.000 A 
ATOM     24  O   UNK A   0      -7.404  -1.353 128.232  0.00  0.00    +0.000 OA
BRANCH  20  27
ATOM     25  C   UNK A   0      -5.162  -4.761 131.013  0.00  0.00    +0.000 C 
ATOM     26  N   UNK A   0      -5.298  -3.804 129.954  0.00  0.00    +0.000 N 
ATOM     27  C   UNK A   0      -6.526  -3.196 129.670  0.00  0.00    +0.000 C 
ATOM     28  O   UNK A   0      -7.559  -3.512 130.220  0.00  0.00    +0.000 OA
ATOM     29  H   UNK A   0      -4.454  -3.459 129.518  0.00  0.00    +0.000 HD
ENDBRANCH  20  27
ENDBRANCH  19  23
BRANCH  19  30
ATOM     30  C   UNK A   0      -8.621  -0.496 125.538  0.00  0.00    +0.000 C 
ATOM     31  O   UNK A   0      -9.786  -0.187 125.259  0.00  0.00    +0.000 OA
ATOM     32  N   UNK A   0      -8.055  -1.658 125.034  0.00  0.00    +0.000 N 
ATOM     33  H   UNK A   0      -7.068  -1.845 125.150  0.00  0.00    +0.000 HD
BRANCH  32  34
ATOM     34  C   UNK A   0      -8.873  -2.511 124.173  0.00  0.00    +0.000 C 
ATOM     35  C   UNK A   0      -8.624  -2.237 122.684  0.00  0.00    +0.000 C 
ATOM     36  C   UNK A   0      -8.675  -4.005 124.424  0.00  0.00    +0.000 C 
ENDBRANCH  32  34
ENDBRANCH  19  30
ENDBRANCH   1  19
BRANCH   8  37
ATOM     37  CB  LEU A   1      -8.404   3.180 127.583  0.00  0.00    +0.000 C 
BRANCH  37  38
ATOM     38  CG  LEU A   1      -8.363   3.378 129.094  0.00  0.00    +0.000 C 
ATOM     39  CD1 LEU A   1      -8.563   2.027 129.816  0.00  0.00    +0.000 C 
ATOM     40  CD2 LEU A   1      -7.006   3.886 129.596  0.00  0.00    +0.000 C 
ENDBRANCH  37  38
ENDBRANCH   8  37
TORSDOF 8
ENDMDL
MODEL 3
REMARK VINA RESULT:      -9.1      1.148      1.403
REMARK  Name = CHEMBL271057
REMARK  13 active torsions:
REMARK  status: ('A' for Active; 'I' for Inactive)
REMARK    1  A    between atoms: C_1  and  N_2
REMARK    2  A    between atoms: C_3  and  C_5
REMARK    3  A    between atoms: C_8  and  C_9
REMARK    4  A    between atoms: C_9  and  C_10
REMARK    5  A    between atoms: C_9  and  N_16
REMARK    6  A    between atoms: N_12  and  C_13
REMARK    7  A    between atoms: C_13  and  C_14
REMARK    8  A    between atoms: C_13  and  C_15
REMARK    9  A    between atoms: C_19  and  C_20
REMARK   10  A    between atoms: CA_32  and  CB_33
REMARK   11  A    between atoms: CB_33  and  CG_34
REMARK   12  A    between atoms: CG_34  and  CD1_35
REMARK   13  A    between atoms: CG_34  and  CD2_36
REMARK                            x       y       z     vdW  Elec       q    Type
REMARK                         _______ _______ _______ _____ _____    ______ ____
ROOT
ATOM      1  N   LEU A   1      -7.524   1.206 126.058  0.00  0.00    +0.000 N 
ATOM      2  C   UNK A   2      -7.509   2.343 125.258  0.00  0.00    +0.000 C 
ATOM      3  O   UNK A   2      -7.118   3.418 125.703  0.00  0.00    +0.000 OA
ATOM      4  C   UNK A   2      -8.132   2.170 123.845  0.00  0.00    +0.000 C 
ATOM      5  N   UNK A   2      -7.609   0.958 123.265  0.00  0.00    +0.000 N 
ATOM      6  C   LEU A   1      -7.982  -0.184 123.898  0.00  0.00    +0.000 C 
ATOM      7  O   LEU A   1      -8.213  -1.188 123.234  0.00  0.00    +0.000 OA
ATOM      8  CA  LEU A   1      -8.076  -0.071 125.439  0.00  0.00    +0.000 C 
ATOM      9  H   UNK A   2      -7.540   0.843 122.258  0.00  0.00    +0.000 HD
ENDROOT
BRANCH   4  10
ATOM     10  C   UNK A   2      -7.849   3.324 122.920  0.00  0.00    +0.000 C 
ATOM     11  C   UNK A   2      -6.353   3.457 122.586  0.00  0.00    +0.000 C 
ATOM     12  C   UNK A   2      -6.433   3.988 121.198  0.00  0.00    +0.000 A 
ATOM     13  C   UNK A   2      -5.406   4.530 120.459  0.00  0.00    +0.000 A 
ATOM     14  C   UNK A   2      -5.696   4.983 119.174  0.00  0.00    +0.000 A 
ATOM     15  C   UNK A   2      -6.988   4.855 118.637  0.00  0.00    +0.000 A 
ATOM     16  C   UNK A   2      -8.010   4.266 119.374  0.00  0.00    +0.000 A 
ATOM     17  C   UNK A   2      -7.717   3.847 120.656  0.00  0.00    +0.000 A 
ATOM     18  C   UNK A   2      -8.635   3.166 121.601  0.00  0.00    +0.000 C 
ENDBRANCH   4  10
BRANCH   1  19
ATOM     19  C   UNK A   0      -6.820   1.355 127.416  0.00  0.00    +0.000 C 
BRANCH  19  23
ATOM     20  C   UNK A   0      -9.038   3.152 129.745  0.00  0.00    +0.000 A 
ATOM     21  C   UNK A   0      -9.058   1.932 130.367  0.00  0.00    +0.000 A 
ATOM     22  C   UNK A   0      -8.024   1.165 129.807  0.00  0.00    +0.000 A 
ATOM     23  C   UNK A   0      -7.636   1.824 128.641  0.00  0.00    +0.000 A 
ATOM     24  O   UNK A   0      -8.220   3.082 128.641  0.00  0.00    +0.000 OA
BRANCH  20  27
ATOM     25  C   UNK A   0      -9.421   6.667 130.874  0.00  0.00    +0.000 C 
ATOM     26  N   UNK A   0      -8.927   5.361 130.549  0.00  0.00    +0.000 N 
ATOM     27  C   UNK A   0      -9.784   4.338 130.127  0.00  0.00    +0.000 C 
ATOM     28  O   UNK A   0     -10.991   4.455 130.112  0.00  0.00    +0.000 OA
ATOM     29  H   UNK A   0      -7.927   5.238 130.479  0.00  0.00    +0.000 HD
ENDBRANCH  20  27
ENDBRANCH  19  23
BRANCH  19  30
ATOM     30  C   UNK A   0      -5.477   2.134 127.480  0.00  0.00    +0.000 C 
ATOM     31  O   UNK A   0      -4.478   1.627 126.955  0.00  0.00    +0.000 OA
ATOM     32  N   UNK A   0      -5.394   3.360 128.123  0.00  0.00    +0.000 N 
ATOM     33  H   UNK A   0      -6.230   3.837 128.435  0.00  0.00    +0.000 HD
BRANCH  32  34
ATOM     34  C   UNK A   0      -4.096   4.031 128.174  0.00  0.00    +0.000 C 
ATOM     35  C   UNK A   0      -4.171   5.472 127.654  0.00  0.00    +0.000 C 
ATOM     36  C   UNK A   0      -3.474   4.058 129.570  0.00  0.00    +0.000 C 
ENDBRANCH  32  34
ENDBRANCH  19  30
ENDBRANCH   1  19
BRANCH   8  37
ATOM     37  CB  LEU A   1      -7.294  -1.244 125.969  0.00  0.00    +0.000 C 
BRANCH  37  38
ATOM     38  CG  LEU A   1      -7.810  -2.514 126.637  0.00  0.00    +0.000 C 
ATOM     39  CD1 LEU A   1      -7.910  -2.313 128.165  0.00  0.00    +0.000 C 
ATOM     40  CD2 LEU A   1      -9.234  -2.883 126.203  0.00  0.00    +0.000 C 
ENDBRANCH  37  38
ENDBRANCH   8  37
TORSDOF 8
ENDMDL
MODEL 4
REMARK VINA RESULT:      -8.7      1.569      1.973
REMARK  Name = CHEMBL271057
REMARK  13 active torsions:
REMARK  status: ('A' for Active; 'I' for Inactive)
REMARK    1  A    between atoms: C_1  and  N_2
REMARK    2  A    between atoms: C_3  and  C_5
REMARK    3  A    between atoms: C_8  and  C_9
REMARK    4  A    between atoms: C_9  and  C_10
REMARK    5  A    between atoms: C_9  and  N_16
REMARK    6  A    between atoms: N_12  and  C_13
REMARK    7  A    between atoms: C_13  and  C_14
REMARK    8  A    between atoms: C_13  and  C_15
REMARK    9  A    between atoms: C_19  and  C_20
REMARK   10  A    between atoms: CA_32  and  CB_33
REMARK   11  A    between atoms: CB_33  and  CG_34
REMARK   12  A    between atoms: CG_34  and  CD1_35
REMARK   13  A    between atoms: CG_34  and  CD2_36
REMARK                            x       y       z     vdW  Elec       q    Type
REMARK                         _______ _______ _______ _____ _____    ______ ____
ROOT
ATOM      1  N   LEU A   1      -7.504   1.064 127.078  0.00  0.00    +0.000 N 
ATOM      2  C   UNK A   2      -7.541   2.161 126.225  0.00  0.00    +0.000 C 
ATOM      3  O   UNK A   2      -7.286   3.288 126.640  0.00  0.00    +0.000 OA
ATOM      4  C   UNK A   2      -8.042   1.866 124.784  0.00  0.00    +0.000 C 
ATOM      5  N   UNK A   2      -7.367   0.687 124.301  0.00  0.00    +0.000 N 
ATOM      6  C   LEU A   1      -7.672  -0.457 124.964  0.00  0.00    +0.000 C 
ATOM      7  O   LEU A   1      -7.759  -1.507 124.338  0.00  0.00    +0.000 OA
ATOM      8  CA  LEU A   1      -7.886  -0.287 126.488  0.00  0.00    +0.000 C 
ATOM      9  H   UNK A   2      -7.216   0.537 123.307  0.00  0.00    +0.000 HD
ENDROOT
BRANCH   4  10
ATOM     10  C   UNK A   2      -7.807   3.002 123.823  0.00  0.00    +0.000 C 
ATOM     11  C   UNK A   2      -6.333   3.113 123.395  0.00  0.00    +0.000 C 
ATOM     12  C   UNK A   2      -6.494   3.621 122.006  0.00  0.00    +0.000 A 
ATOM     13  C   UNK A   2      -5.509   4.140 121.195  0.00  0.00    +0.000 A 
ATOM     14  C   UNK A   2      -5.873   4.574 119.923  0.00  0.00    +0.000 A 
ATOM     15  C   UNK A   2      -7.197   4.450 119.469  0.00  0.00    +0.000 A 
ATOM     16  C   UNK A   2      -8.177   3.884 120.278  0.00  0.00    +0.000 A 
ATOM     17  C   UNK A   2      -7.809   3.484 121.546  0.00  0.00    +0.000 A 
ATOM     18  C   UNK A   2      -8.674   2.829 122.557  0.00  0.00    +0.000 C 
ENDBRANCH   4  10
BRANCH   1  19
ATOM     19  C   UNK A   0      -6.915   1.341 128.470  0.00  0.00    +0.000 C 
BRANCH  19  23
ATOM     20  C   UNK A   0      -7.752   4.167 130.680  0.00  0.00    +0.000 A 
ATOM     21  C   UNK A   0      -9.021   3.878 130.253  0.00  0.00    +0.000 A 
ATOM     22  C   UNK A   0      -8.970   2.623 129.625  0.00  0.00    +0.000 A 
ATOM     23  C   UNK A   0      -7.620   2.354 129.399  0.00  0.00    +0.000 A 
ATOM     24  O   UNK A   0      -6.870   3.279 130.108  0.00  0.00    +0.000 OA
BRANCH  20  27
ATOM     25  C   UNK A   0      -5.415   6.030 132.882  0.00  0.00    +0.000 C 
ATOM     26  N   UNK A   0      -6.073   5.042 132.077  0.00  0.00    +0.000 N 
ATOM     27  C   UNK A   0      -7.353   5.257 131.554  0.00  0.00    +0.000 C 
ATOM     28  O   UNK A   0      -8.021   6.230 131.830  0.00  0.00    +0.000 OA
ATOM     29  H   UNK A   0      -5.529   4.250 131.764  0.00  0.00    +0.000 HD
ENDBRANCH  20  27
ENDBRANCH  19  23
BRANCH  19  30
ATOM     30  C   UNK A   0      -5.396   1.643 128.592  0.00  0.00    +0.000 C 
ATOM     31  O   UNK A   0      -4.670   0.797 129.129  0.00  0.00    +0.000 OA
ATOM     32  N   UNK A   0      -4.867   2.838 128.127  0.00  0.00    +0.000 N 
ATOM     33  H   UNK A   0      -5.429   3.470 127.572  0.00  0.00    +0.000 HD
BRANCH  32  34
ATOM     34  C   UNK A   0      -3.434   3.075 128.297  0.00  0.00    +0.000 C 
ATOM     35  C   UNK A   0      -2.693   3.114 126.954  0.00  0.00    +0.000 C 
ATOM     36  C   UNK A   0      -3.112   4.361 129.058  0.00  0.00    +0.000 C 
ENDBRANCH  32  34
ENDBRANCH  19  30
ENDBRANCH   1  19
BRANCH   8  37
ATOM     37  CB  LEU A   1      -7.035  -1.353 127.127  0.00  0.00    +0.000 C 
BRANCH  37  38
ATOM     38  CG  LEU A   1      -7.474  -2.582 127.914  0.00  0.00    +0.000 C 
ATOM     39  CD1 LEU A   1      -7.912  -2.178 129.339  0.00  0.00    +0.000 C 
ATOM     40  CD2 LEU A   1      -8.706  -3.271 127.314  0.00  0.00    +0.000 C 
ENDBRANCH  37  38
ENDBRANCH   8  37
TORSDOF 8
ENDMDL
MODEL 5
REMARK VINA RESULT:      -8.5      3.556      8.076
REMARK  Name = CHEMBL271057
REMARK  13 active torsions:
REMARK  status: ('A' for Active; 'I' for Inactive)
REMARK    1  A    between atoms: C_1  and  N_2
REMARK    2  A    between atoms: C_3  and  C_5
REMARK    3  A    between atoms: C_8  and  C_9
REMARK    4  A    between atoms: C_9  and  C_10
REMARK    5  A    between atoms: C_9  and  N_16
REMARK    6  A    between atoms: N_12  and  C_13
REMARK    7  A    between atoms: C_13  and  C_14
REMARK    8  A    between atoms: C_13  and  C_15
REMARK    9  A    between atoms: C_19  and  C_20
REMARK   10  A    between atoms: CA_32  and  CB_33
REMARK   11  A    between atoms: CB_33  and  CG_34
REMARK   12  A    between atoms: CG_34  and  CD1_35
REMARK   13  A    between atoms: CG_34  and  CD2_36
REMARK                            x       y       z     vdW  Elec       q    Type
REMARK                         _______ _______ _______ _____ _____    ______ ____
ROOT
ATOM      1  N   LEU A   1      -6.277   4.074 130.198  0.00  0.00    +0.000 N 
ATOM      2  C   UNK A   2      -5.221   4.968 130.056  0.00  0.00    +0.000 C 
ATOM      3  O   UNK A   2      -5.179   5.743 129.105  0.00  0.00    +0.000 OA
ATOM      4  C   UNK A   2      -4.076   4.815 131.095  0.00  0.00    +0.000 C 
ATOM      5  N   UNK A   2      -4.665   4.706 132.407  0.00  0.00    +0.000 N 
ATOM      6  C   LEU A   1      -5.403   3.585 132.609  0.00  0.00    +0.000 C 
ATOM      7  O   LEU A   1      -5.375   3.038 133.705  0.00  0.00    +0.000 OA
ATOM      8  CA  LEU A   1      -6.218   3.114 131.379  0.00  0.00    +0.000 C 
ATOM      9  H   UNK A   2      -4.157   4.996 133.237  0.00  0.00    +0.000 HD
ENDROOT
BRANCH   4  10
ATOM     10  C   UNK A   2      -3.099   5.961 131.084  0.00  0.00    +0.000 C 
ATOM     11  C   UNK A   2      -3.678   7.232 131.731  0.00  0.00    +0.000 C 
ATOM     12  C   UNK A   2      -2.443   7.821 132.318  0.00  0.00    +0.000 A 
ATOM     13  C   UNK A   2      -2.292   9.093 132.823  0.00  0.00    +0.000 A 
ATOM     14  C   UNK A   2      -1.041   9.453 133.318  0.00  0.00    +0.000 A 
ATOM     15  C   UNK A   2       0.022   8.535 133.336  0.00  0.00    +0.000 A 
ATOM     16  C   UNK A   2      -0.151   7.237 132.863  0.00  0.00    +0.000 A 
ATOM     17  C   UNK A   2      -1.387   6.901 132.350  0.00  0.00    +0.000 A 
ATOM     18  C   UNK A   2      -1.803   5.576 131.829  0.00  0.00    +0.000 C 
ENDBRANCH   4  10
BRANCH   1  19
ATOM     19  C   UNK A   0      -7.450   4.293 129.231  0.00  0.00    +0.000 C 
BRANCH  19  23
ATOM     20  C   UNK A   0     -10.386   6.519 129.245  0.00  0.00    +0.000 A 
ATOM     21  C   UNK A   0     -10.141   6.521 130.593  0.00  0.00    +0.000 A 
ATOM     22  C   UNK A   0      -8.864   5.968 130.781  0.00  0.00    +0.000 A 
ATOM     23  C   UNK A   0      -8.526   5.347 129.579  0.00  0.00    +0.000 A 
ATOM     24  O   UNK A   0      -9.440   5.744 128.615  0.00  0.00    +0.000 OA
BRANCH  20  27
ATOM     25  C   UNK A   0     -12.901   9.196 128.708  0.00  0.00    +0.000 C 
ATOM     26  N   UNK A   0     -11.901   8.320 129.246  0.00  0.00    +0.000 N 
ATOM     27  C   UNK A   0     -11.486   7.174 128.558  0.00  0.00    +0.000 C 
ATOM     28  O   UNK A   0     -12.011   6.795 127.533  0.00  0.00    +0.000 OA
ATOM     29  H   UNK A   0     -11.388   8.631 130.058  0.00  0.00    +0.000 HD
ENDBRANCH  20  27
ENDBRANCH  19  23
BRANCH  19  30
ATOM     30  C   UNK A   0      -8.227   3.055 128.704  0.00  0.00    +0.000 C 
ATOM     31  O   UNK A   0      -9.410   2.919 129.037  0.00  0.00    +0.000 OA
ATOM     32  N   UNK A   0      -7.605   2.117 127.894  0.00  0.00    +0.000 N 
ATOM     33  H   UNK A   0      -6.684   2.292 127.513  0.00  0.00    +0.000 HD
BRANCH  32  34
ATOM     34  C   UNK A   0      -8.381   0.958 127.453  0.00  0.00    +0.000 C 
ATOM     35  C   UNK A   0      -8.906   1.128 126.021  0.00  0.00    +0.000 C 
ATOM     36  C   UNK A   0      -7.611  -0.360 127.527  0.00  0.00    +0.000 C 
ENDBRANCH  32  34
ENDBRANCH  19  30
ENDBRANCH   1  19
BRANCH   8  37
ATOM     37  CB  LEU A   1      -7.617   2.894 131.894  0.00  0.00    +0.000 C 
BRANCH  37  38
ATOM     38  CG  LEU A   1      -8.307   1.583 132.256  0.00  0.00    +0.000 C 
ATOM     39  CD1 LEU A   1      -9.841   1.751 132.197  0.00  0.00    +0.000 C 
ATOM     40  CD2 LEU A   1      -8.005   0.453 131.264  0.00  0.00    +0.000 C 
ENDBRANCH  37  38
ENDBRANCH   8  37
TORSDOF 8
ENDMDL
MODEL 6
REMARK VINA RESULT:      -8.4      2.261      4.398
REMARK  Name = CHEMBL271057
REMARK  13 active torsions:
REMARK  status: ('A' for Active; 'I' for Inactive)
REMARK    1  A    between atoms: C_1  and  N_2
REMARK    2  A    between atoms: C_3  and  C_5
REMARK    3  A    between atoms: C_8  and  C_9
REMARK    4  A    between atoms: C_9  and  C_10
REMARK    5  A    between atoms: C_9  and  N_16
REMARK    6  A    between atoms: N_12  and  C_13
REMARK    7  A    between atoms: C_13  and  C_14
REMARK    8  A    between atoms: C_13  and  C_15
REMARK    9  A    between atoms: C_19  and  C_20
REMARK   10  A    between atoms: CA_32  and  CB_33
REMARK   11  A    between atoms: CB_33  and  CG_34
REMARK   12  A    between atoms: CG_34  and  CD1_35
REMARK   13  A    between atoms: CG_34  and  CD2_36
REMARK                            x       y       z     vdW  Elec       q    Type
REMARK                         _______ _______ _______ _____ _____    ______ ____
ROOT
ATOM      1  N   LEU A   1      -7.899   0.964 125.909  0.00  0.00    +0.000 N 
ATOM      2  C   UNK A   2      -7.801   2.137 125.169  0.00  0.00    +0.000 C 
ATOM      3  O   UNK A   2      -7.429   3.182 125.695  0.00  0.00    +0.000 OA
ATOM      4  C   UNK A   2      -8.311   2.044 123.704  0.00  0.00    +0.000 C 
ATOM      5  N   UNK A   2      -7.764   0.850 123.109  0.00  0.00    +0.000 N 
ATOM      6  C   LEU A   1      -8.205  -0.313 123.653  0.00  0.00    +0.000 C 
ATOM      7  O   LEU A   1      -8.399  -1.279 122.925  0.00  0.00    +0.000 OA
ATOM      8  CA  LEU A   1      -8.421  -0.271 125.186  0.00  0.00    +0.000 C 
ATOM      9  H   UNK A   2      -7.617   0.782 122.106  0.00  0.00    +0.000 HD
ENDROOT
BRANCH   4  10
ATOM     10  C   UNK A   2      -7.936   3.235 122.862  0.00  0.00    +0.000 C 
ATOM     11  C   UNK A   2      -6.419   3.328 122.618  0.00  0.00    +0.000 C 
ATOM     12  C   UNK A   2      -6.403   3.935 121.259  0.00  0.00    +0.000 A 
ATOM     13  C   UNK A   2      -5.316   4.477 120.608  0.00  0.00    +0.000 A 
ATOM     14  C   UNK A   2      -5.517   5.009 119.337  0.00  0.00    +0.000 A 
ATOM     15  C   UNK A   2      -6.780   4.960 118.724  0.00  0.00    +0.000 A 
ATOM     16  C   UNK A   2      -7.863   4.372 119.371  0.00  0.00    +0.000 A 
ATOM     17  C   UNK A   2      -7.658   3.873 120.641  0.00  0.00    +0.000 A 
ATOM     18  C   UNK A   2      -8.652   3.178 121.495  0.00  0.00    +0.000 C 
ENDBRANCH   4  10
BRANCH   1  19
ATOM     19  C   UNK A   0      -7.303   1.034 127.323  0.00  0.00    +0.000 C 
BRANCH  19  23
ATOM     20  C   UNK A   0      -6.207  -2.088 128.943  0.00  0.00    +0.000 A 
ATOM     21  C   UNK A   0      -5.189  -1.979 128.033  0.00  0.00    +0.000 A 
ATOM     22  C   UNK A   0      -5.246  -0.680 127.503  0.00  0.00    +0.000 A 
ATOM     23  C   UNK A   0      -6.492  -0.166 127.860  0.00  0.00    +0.000 A 
ATOM     24  O   UNK A   0      -7.055  -1.014 128.802  0.00  0.00    +0.000 OA
BRANCH  20  27
ATOM     25  C   UNK A   0      -6.158  -3.695 132.288  0.00  0.00    +0.000 C 
ATOM     26  N   UNK A   0      -5.960  -2.830 131.162  0.00  0.00    +0.000 N 
ATOM     27  C   UNK A   0      -6.421  -3.172 129.886  0.00  0.00    +0.000 C 
ATOM     28  O   UNK A   0      -6.915  -4.250 129.632  0.00  0.00    +0.000 OA
ATOM     29  H   UNK A   0      -5.618  -1.896 131.339  0.00  0.00    +0.000 HD
ENDBRANCH  20  27
ENDBRANCH  19  23
BRANCH  19  30
ATOM     30  C   UNK A   0      -8.214   1.487 128.497  0.00  0.00    +0.000 C 
ATOM     31  O   UNK A   0      -9.342   1.920 128.232  0.00  0.00    +0.000 OA
ATOM     32  N   UNK A   0      -7.770   1.425 129.810  0.00  0.00    +0.000 N 
ATOM     33  H   UNK A   0      -6.906   0.951 130.041  0.00  0.00    +0.000 HD
BRANCH  32  34
ATOM     34  C   UNK A   0      -8.663   1.892 130.868  0.00  0.00    +0.000 C 
ATOM     35  C   UNK A   0      -9.177   0.739 131.740  0.00  0.00    +0.000 C 
ATOM     36  C   UNK A   0      -8.033   2.940 131.785  0.00  0.00    +0.000 C 
ENDBRANCH  32  34
ENDBRANCH  19  30
ENDBRANCH   1  19
BRANCH   8  37
ATOM     37  CB  LEU A   1      -7.703  -1.484 125.719  0.00  0.00    +0.000 C 
BRANCH  37  38
ATOM     38  CG  LEU A   1      -8.248  -2.887 125.961  0.00  0.00    +0.000 C 
ATOM     39  CD1 LEU A   1      -9.792  -2.879 125.903  0.00  0.00    +0.000 C 
ATOM     40  CD2 LEU A   1      -7.827  -3.889 124.880  0.00  0.00    +0.000 C 
ENDBRANCH  37  38
ENDBRANCH   8  37
TORSDOF 8
ENDMDL
MODEL 7
REMARK VINA RESULT:      -8.3      1.790      2.332
REMARK  Name = CHEMBL271057
REMARK  13 active torsions:
REMARK  status: ('A' for Active; 'I' for Inactive)
REMARK    1  A    between atoms: C_1  and  N_2
REMARK    2  A    between atoms: C_3  and  C_5
REMARK    3  A    between atoms: C_8  and  C_9
REMARK    4  A    between atoms: C_9  and  C_10
REMARK    5  A    between atoms: C_9  and  N_16
REMARK    6  A    between atoms: N_12  and  C_13
REMARK    7  A    between atoms: C_13  and  C_14
REMARK    8  A    between atoms: C_13  and  C_15
REMARK    9  A    between atoms: C_19  and  C_20
REMARK   10  A    between atoms: CA_32  and  CB_33
REMARK   11  A    between atoms: CB_33  and  CG_34
REMARK   12  A    between atoms: CG_34  and  CD1_35
REMARK   13  A    between atoms: CG_34  and  CD2_36
REMARK                            x       y       z     vdW  Elec       q    Type
REMARK                         _______ _______ _______ _____ _____    ______ ____
ROOT
ATOM      1  N   LEU A   1      -7.785   2.837 128.301  0.00  0.00    +0.000 N 
ATOM      2  C   UNK A   2      -7.717   3.641 127.168  0.00  0.00    +0.000 C 
ATOM      3  O   UNK A   2      -7.481   4.842 127.264  0.00  0.00    +0.000 OA
ATOM      4  C   UNK A   2      -8.084   2.938 125.831  0.00  0.00    +0.000 C 
ATOM      5  N   UNK A   2      -7.389   1.676 125.777  0.00  0.00    +0.000 N 
ATOM      6  C   LEU A   1      -7.780   0.769 126.709  0.00  0.00    +0.000 C 
ATOM      7  O   LEU A   1      -7.828  -0.417 126.406  0.00  0.00    +0.000 OA
ATOM      8  CA  LEU A   1      -8.136   1.370 128.090  0.00  0.00    +0.000 C 
ATOM      9  H   UNK A   2      -7.146   1.246 124.889  0.00  0.00    +0.000 HD
ENDROOT
BRANCH   4  10
ATOM     10  C   UNK A   2      -7.733   3.750 124.612  0.00  0.00    +0.000 C 
ATOM     11  C   UNK A   2      -6.214   3.846 124.387  0.00  0.00    +0.000 C 
ATOM     12  C   UNK A   2      -6.166   3.901 122.900  0.00  0.00    +0.000 A 
ATOM     13  C   UNK A   2      -5.080   4.231 122.119  0.00  0.00    +0.000 A 
ATOM     14  C   UNK A   2      -5.249   4.234 120.737  0.00  0.00    +0.000 A 
ATOM     15  C   UNK A   2      -6.477   3.874 120.158  0.00  0.00    +0.000 A 
ATOM     16  C   UNK A   2      -7.556   3.500 120.952  0.00  0.00    +0.000 A 
ATOM     17  C   UNK A   2      -7.385   3.528 122.322  0.00  0.00    +0.000 A 
ATOM     18  C   UNK A   2      -8.380   3.137 123.350  0.00  0.00    +0.000 C 
ENDBRANCH   4  10
BRANCH   1  19
ATOM     19  C   UNK A   0      -7.327   3.509 129.604  0.00  0.00    +0.000 C 
BRANCH  19  23
ATOM     20  C   UNK A   0     -10.320   5.167 130.971  0.00  0.00    +0.000 A 
ATOM     21  C   UNK A   0      -9.856   4.622 132.138  0.00  0.00    +0.000 A 
ATOM     22  C   UNK A   0      -8.541   4.191 131.899  0.00  0.00    +0.000 A 
ATOM     23  C   UNK A   0      -8.378   4.184 130.514  0.00  0.00    +0.000 A 
ATOM     24  O   UNK A   0      -9.457   4.848 129.948  0.00  0.00    +0.000 OA
BRANCH  20  27
ATOM     25  C   UNK A   0     -13.052   6.719 128.995  0.00  0.00    +0.000 C 
ATOM     26  N   UNK A   0     -11.836   6.098 129.430  0.00  0.00    +0.000 N 
ATOM     27  C   UNK A   0     -11.548   5.922 130.788  0.00  0.00    +0.000 C 
ATOM     28  O   UNK A   0     -12.247   6.370 131.672  0.00  0.00    +0.000 OA
ATOM     29  H   UNK A   0     -11.260   5.647 128.732  0.00  0.00    +0.000 HD
ENDBRANCH  20  27
ENDBRANCH  19  23
BRANCH  19  30
ATOM     30  C   UNK A   0      -6.120   4.486 129.558  0.00  0.00    +0.000 C 
ATOM     31  O   UNK A   0      -6.282   5.641 129.971  0.00  0.00    +0.000 OA
ATOM     32  N   UNK A   0      -4.894   4.080 129.051  0.00  0.00    +0.000 N 
ATOM     33  H   UNK A   0      -4.720   3.106 128.838  0.00  0.00    +0.000 HD
BRANCH  32  34
ATOM     34  C   UNK A   0      -3.804   5.053 129.008  0.00  0.00    +0.000 C 
ATOM     35  C   UNK A   0      -2.873   4.930 130.221  0.00  0.00    +0.000 C 
ATOM     36  C   UNK A   0      -2.954   4.966 127.741  0.00  0.00    +0.000 C 
ENDBRANCH  32  34
ENDBRANCH  19  30
ENDBRANCH   1  19
BRANCH   8  37
ATOM     37  CB  LEU A   1      -7.372   0.542 129.090  0.00  0.00    +0.000 C 
BRANCH  37  38
ATOM     38  CG  LEU A   1      -7.909  -0.302 130.241  0.00  0.00    +0.000 C 
ATOM     39  CD1 LEU A   1      -7.839  -1.803 129.884  0.00  0.00    +0.000 C 
ATOM     40  CD2 LEU A   1      -7.075  -0.171 131.521  0.00  0.00    +0.000 C 
ENDBRANCH  37  38
ENDBRANCH   8  37
TORSDOF 8
ENDMDL
MODEL 8
REMARK VINA RESULT:      -8.3      3.842      6.447
REMARK  Name = CHEMBL271057
REMARK  13 active torsions:
REMARK  status: ('A' for Active; 'I' for Inactive)
REMARK    1  A    between atoms: C_1  and  N_2
REMARK    2  A    between atoms: C_3  and  C_5
REMARK    3  A    between atoms: C_8  and  C_9
REMARK    4  A    between atoms: C_9  and  C_10
REMARK    5  A    between atoms: C_9  and  N_16
REMARK    6  A    between atoms: N_12  and  C_13
REMARK    7  A    between atoms: C_13  and  C_14
REMARK    8  A    between atoms: C_13  and  C_15
REMARK    9  A    between atoms: C_19  and  C_20
REMARK   10  A    between atoms: CA_32  and  CB_33
REMARK   11  A    between atoms: CB_33  and  CG_34
REMARK   12  A    between atoms: CG_34  and  CD1_35
REMARK   13  A    between atoms: CG_34  and  CD2_36
REMARK                            x       y       z     vdW  Elec       q    Type
REMARK                         _______ _______ _______ _____ _____    ______ ____
ROOT
ATOM      1  N   LEU A   1      -8.571   3.050 129.436  0.00  0.00    +0.000 N 
ATOM      2  C   UNK A   2      -8.378   2.479 128.183  0.00  0.00    +0.000 C 
ATOM      3  O   UNK A   2      -8.434   3.165 127.166  0.00  0.00    +0.000 OA
ATOM      4  C   UNK A   2      -8.221   0.933 128.173  0.00  0.00    +0.000 C 
ATOM      5  N   UNK A   2      -7.287   0.565 129.208  0.00  0.00    +0.000 N 
ATOM      6  C   LEU A   1      -7.710   0.815 130.473  0.00  0.00    +0.000 C 
ATOM      7  O   LEU A   1      -7.425   0.026 131.366  0.00  0.00    +0.000 OA
ATOM      8  CA  LEU A   1      -8.537   2.114 130.637  0.00  0.00    +0.000 C 
ATOM      9  H   UNK A   2      -6.734  -0.284 129.140  0.00  0.00    +0.000 HD
ENDROOT
BRANCH   4  10
ATOM     10  C   UNK A   2      -7.741   0.388 126.854  0.00  0.00    +0.000 C 
ATOM     11  C   UNK A   2      -6.419  -0.390 126.986  0.00  0.00    +0.000 C 
ATOM     12  C   UNK A   2      -6.603  -1.414 125.922  0.00  0.00    +0.000 A 
ATOM     13  C   UNK A   2      -5.640  -2.253 125.406  0.00  0.00    +0.000 A 
ATOM     14  C   UNK A   2      -6.018  -3.137 124.399  0.00  0.00    +0.000 A 
ATOM     15  C   UNK A   2      -7.349  -3.197 123.951  0.00  0.00    +0.000 A 
ATOM     16  C   UNK A   2      -8.324  -2.376 124.508  0.00  0.00    +0.000 A 
ATOM     17  C   UNK A   2      -7.931  -1.485 125.485  0.00  0.00    +0.000 A 
ATOM     18  C   UNK A   2      -8.802  -0.547 126.236  0.00  0.00    +0.000 C 
ENDBRANCH   4  10
BRANCH   1  19
ATOM     19  C   UNK A   0      -8.626   4.585 129.451  0.00  0.00    +0.000 C 
BRANCH  19  23
ATOM     20  C   UNK A   0      -5.452   6.214 130.372  0.00  0.00    +0.000 A 
ATOM     21  C   UNK A   0      -6.287   6.973 131.149  0.00  0.00    +0.000 A 
ATOM     22  C   UNK A   0      -7.529   6.319 131.182  0.00  0.00    +0.000 A 
ATOM     23  C   UNK A   0      -7.500   5.372 130.158  0.00  0.00    +0.000 A 
ATOM     24  O   UNK A   0      -6.194   5.268 129.703  0.00  0.00    +0.000 OA
BRANCH  20  27
ATOM     25  C   UNK A   0      -2.308   6.625 128.444  0.00  0.00    +0.000 C 
ATOM     26  N   UNK A   0      -3.655   6.370 128.861  0.00  0.00    +0.000 N 
ATOM     27  C   UNK A   0      -4.018   6.381 130.213  0.00  0.00    +0.000 C 
ATOM     28  O   UNK A   0      -3.211   6.499 131.109  0.00  0.00    +0.000 OA
ATOM     29  H   UNK A   0      -4.372   6.337 128.150  0.00  0.00    +0.000 HD
ENDBRANCH  20  27
ENDBRANCH  19  23
BRANCH  19  30
ATOM     30  C   UNK A   0      -9.951   5.282 129.864  0.00  0.00    +0.000 C 
ATOM     31  O   UNK A   0     -10.565   4.843 130.844  0.00  0.00    +0.000 OA
ATOM     32  N   UNK A   0     -10.445   6.359 129.143  0.00  0.00    +0.000 N 
ATOM     33  H   UNK A   0      -9.884   6.802 128.427  0.00  0.00    +0.000 HD
BRANCH  32  34
ATOM     34  C   UNK A   0     -11.712   6.955 129.564  0.00  0.00    +0.000 C 
ATOM     35  C   UNK A   0     -11.718   8.479 129.392  0.00  0.00    +0.000 C 
ATOM     36  C   UNK A   0     -12.929   6.387 128.835  0.00  0.00    +0.000 C 
ENDBRANCH  32  34
ENDBRANCH  19  30
ENDBRANCH   1  19
BRANCH   8  37
ATOM     37  CB  LEU A   1      -7.907   2.839 131.798  0.00  0.00    +0.000 C 
BRANCH  37  38
ATOM     38  CG  LEU A   1      -8.205   2.699 133.287  0.00  0.00    +0.000 C 
ATOM     39  CD1 LEU A   1      -6.911   2.872 134.111  0.00  0.00    +0.000 C 
ATOM     40  CD2 LEU A   1      -9.147   3.788 133.815  0.00  0.00    +0.000 C 
ENDBRANCH  37  38
ENDBRANCH   8  37
TORSDOF 8
ENDMDL
MODEL 9
REMARK VINA RESULT:      -8.3      3.771      6.505
REMARK  Name = CHEMBL271057
REMARK  13 active torsions:
REMARK  status: ('A' for Active; 'I' for Inactive)
REMARK    1  A    between atoms: C_1  and  N_2
REMARK    2  A    between atoms: C_3  and  C_5
REMARK    3  A    between atoms: C_8  and  C_9
REMARK    4  A    between atoms: C_9  and  C_10
REMARK    5  A    between atoms: C_9  and  N_16
REMARK    6  A    between atoms: N_12  and  C_13
REMARK    7  A    between atoms: C_13  and  C_14
REMARK    8  A    between atoms: C_13  and  C_15
REMARK    9  A    between atoms: C_19  and  C_20
REMARK   10  A    between atoms: CA_32  and  CB_33
REMARK   11  A    between atoms: CB_33  and  CG_34
REMARK   12  A    between atoms: CG_34  and  CD1_35
REMARK   13  A    between atoms: CG_34  and  CD2_36
REMARK                            x       y       z     vdW  Elec       q    Type
REMARK                         _______ _______ _______ _____ _____    ______ ____
ROOT
ATOM      1  N   LEU A   1      -6.027   3.620 129.988  0.00  0.00    +0.000 N 
ATOM      2  C   UNK A   2      -6.834   2.487 129.959  0.00  0.00    +0.000 C 
ATOM      3  O   UNK A   2      -7.622   2.255 130.872  0.00  0.00    +0.000 OA
ATOM      4  C   UNK A   2      -6.567   1.510 128.781  0.00  0.00    +0.000 C 
ATOM      5  N   UNK A   2      -6.481   2.280 127.565  0.00  0.00    +0.000 N 
ATOM      6  C   LEU A   1      -5.420   3.125 127.498  0.00  0.00    +0.000 C 
ATOM      7  O   LEU A   1      -4.852   3.289 126.425  0.00  0.00    +0.000 OA
ATOM      8  CA  LEU A   1      -5.042   3.799 128.840  0.00  0.00    +0.000 C 
ATOM      9  H   UNK A   2      -6.712   1.869 126.664  0.00  0.00    +0.000 HD
ENDROOT
BRANCH   4  10
ATOM     10  C   UNK A   2      -7.630   0.454 128.625  0.00  0.00    +0.000 C 
ATOM     11  C   UNK A   2      -7.855   0.059 127.155  0.00  0.00    +0.000 C 
ATOM     12  C   UNK A   2      -8.216  -1.376 127.315  0.00  0.00    +0.000 A 
ATOM     13  C   UNK A   2      -8.759  -2.204 126.358  0.00  0.00    +0.000 A 
ATOM     14  C   UNK A   2      -9.035  -3.521 126.716  0.00  0.00    +0.000 A 
ATOM     15  C   UNK A   2      -8.734  -3.998 128.003  0.00  0.00    +0.000 A 
ATOM     16  C   UNK A   2      -8.145  -3.167 128.951  0.00  0.00    +0.000 A 
ATOM     17  C   UNK A   2      -7.902  -1.857 128.592  0.00  0.00    +0.000 A 
ATOM     18  C   UNK A   2      -7.254  -0.813 129.423  0.00  0.00    +0.000 C 
ENDBRANCH   4  10
BRANCH   1  19
ATOM     19  C   UNK A   0      -6.362   4.629 131.097  0.00  0.00    +0.000 C 
BRANCH  19  23
ATOM     20  C   UNK A   0      -9.353   6.401 129.877  0.00  0.00    +0.000 A 
ATOM     21  C   UNK A   0      -9.620   6.479 131.218  0.00  0.00    +0.000 A 
ATOM     22  C   UNK A   0      -8.442   6.124 131.895  0.00  0.00    +0.000 A 
ATOM     23  C   UNK A   0      -7.612   5.524 130.949  0.00  0.00    +0.000 A 
ATOM     24  O   UNK A   0      -8.152   5.754 129.693  0.00  0.00    +0.000 OA
BRANCH  20  27
ATOM     25  C   UNK A   0     -12.237   8.207 128.395  0.00  0.00    +0.000 C 
ATOM     26  N   UNK A   0     -11.313   7.558 129.278  0.00  0.00    +0.000 N 
ATOM     27  C   UNK A   0     -10.197   6.867 128.791  0.00  0.00    +0.000 C 
ATOM     28  O   UNK A   0     -10.002   6.684 127.608  0.00  0.00    +0.000 OA
ATOM     29  H   UNK A   0     -11.395   7.743 130.268  0.00  0.00    +0.000 HD
ENDBRANCH  20  27
ENDBRANCH  19  23
BRANCH  19  30
ATOM     30  C   UNK A   0      -5.236   5.561 131.624  0.00  0.00    +0.000 C 
ATOM     31  O   UNK A   0      -5.432   6.782 131.616  0.00  0.00    +0.000 OA
ATOM     32  N   UNK A   0      -4.033   5.040 132.078  0.00  0.00    +0.000 N 
ATOM     33  H   UNK A   0      -3.920   4.043 132.211  0.00  0.00    +0.000 HD
BRANCH  32  34
ATOM     34  C   UNK A   0      -3.002   5.970 132.535  0.00  0.00    +0.000 C 
ATOM     35  C   UNK A   0      -2.847   5.953 134.062  0.00  0.00    +0.000 C 
ATOM     36  C   UNK A   0      -1.630   5.719 131.912  0.00  0.00    +0.000 C 
ENDBRANCH  32  34
ENDBRANCH  19  30
ENDBRANCH   1  19
BRANCH   8  37
ATOM     37  CB  LEU A   1      -4.928   5.267 128.525  0.00  0.00    +0.000 C 
BRANCH  37  38
ATOM     38  CG  LEU A   1      -3.722   6.042 128.008  0.00  0.00    +0.000 C 
ATOM     39  CD1 LEU A   1      -3.572   7.375 128.773  0.00  0.00    +0.000 C 
ATOM     40  CD2 LEU A   1      -2.394   5.312 128.242  0.00  0.00    +0.000 C 
ENDBRANCH  37  38
ENDBRANCH   8  37
TORSDOF 8
ENDMDL
