MODEL 1
REMARK VINA RESULT:      -8.9      0.000      0.000
REMARK  Name = CHEMBL403477
REMARK  12 active torsions:
REMARK  status: ('A' for Active; 'I' for Inactive)
REMARK    1  A    between atoms: C_1  and  C_2
REMARK    2  A    between atoms: C_4  and  C_5
REMARK    3  A    between atoms: C_5  and  C_6
REMARK    4  A    between atoms: C_5  and  N_11
REMARK    5  A    between atoms: N_8  and  C_9
REMARK    6  A    between atoms: N_8  and  C_10
REMARK    7  A    between atoms: C_14  and  C_15
REMARK    8  A    between atoms: CA_27  and  CB_28
REMARK    9  A    between atoms: CB_28  and  CG_29
REMARK   10  A    between atoms: CG_29  and  CD1_30
REMARK   11  A    between atoms: CG_29  and  CD2_31
REMARK   12  A    between atoms: C_32  and  C_33
REMARK                            x       y       z     vdW  Elec       q    Type
REMARK                         _______ _______ _______ _____ _____    ______ ____
ROOT
ATOM      1  N   LEU A   1      -7.317   0.339 127.619  0.00  0.00    +0.000 N 
ATOM      2  C   UNK A   2      -7.184   1.417 126.747  0.00  0.00    +0.000 C 
ATOM      3  O   UNK A   2      -6.500   2.398 127.051  0.00  0.00    +0.000 OA
ATOM      4  C   UNK A   2      -8.174   1.417 125.546  0.00  0.00    +0.000 C 
ATOM      5  N   UNK A   2      -8.082   0.114 124.952  0.00  0.00    +0.000 N 
ATOM      6  C   LEU A   1      -8.581  -0.881 125.733  0.00  0.00    +0.000 C 
ATOM      7  O   LEU A   1      -9.232  -1.793 125.197  0.00  0.00    +0.000 OA
ATOM      8  CA  LEU A   1      -8.282  -0.751 127.255  0.00  0.00    +0.000 C 
ATOM      9  H   UNK A   2      -8.241  -0.014 123.959  0.00  0.00    +0.000 HD
ENDROOT
BRANCH   4  10
ATOM     10  C   UNK A   2      -7.907   2.515 124.555  0.00  0.00    +0.000 C 
ATOM     11  C   UNK A   2      -6.524   2.432 123.871  0.00  0.00    +0.000 C 
ATOM     12  C   UNK A   2      -6.841   3.044 122.552  0.00  0.00    +0.000 A 
ATOM     13  C   UNK A   2      -5.958   3.483 121.588  0.00  0.00    +0.000 A 
ATOM     14  C   UNK A   2      -6.493   3.986 120.405  0.00  0.00    +0.000 A 
ATOM     15  C   UNK A   2      -7.882   3.999 120.186  0.00  0.00    +0.000 A 
ATOM     16  C   UNK A   2      -8.760   3.510 121.146  0.00  0.00    +0.000 A 
ATOM     17  C   UNK A   2      -8.222   3.060 122.327  0.00  0.00    +0.000 A 
ATOM     18  C   UNK A   2      -8.977   2.474 123.457  0.00  0.00    +0.000 C 
ENDBRANCH   4  10
BRANCH   1  19
ATOM     19  C   UNK A   0      -6.595   0.493 128.943  0.00  0.00    +0.000 C 
BRANCH  19  23
ATOM     20  C   UNK A   0      -3.330  -3.605 129.285  0.00  0.00    +0.000 C 
ATOM     21  C   UNK A   0      -3.964  -2.226 129.272  0.00  0.00    +0.000 A 
ATOM     22  N   UNK A   0      -4.870  -1.623 128.494  0.00  0.00    +0.000 NA
ATOM     23  C   UNK A   0      -5.289  -0.435 129.208  0.00  0.00    +0.000 A 
ATOM     24  C   UNK A   0      -4.399  -0.327 130.253  0.00  0.00    +0.000 A 
ATOM     25  C   UNK A   0      -4.146   0.704 131.252  0.00  0.00    +0.000 C 
ATOM     26  O   UNK A   0      -3.630  -1.453 130.349  0.00  0.00    +0.000 OA
ENDBRANCH  19  23
BRANCH  19  27
ATOM     27  C   UNK A   0      -7.590   0.479 130.247  0.00  0.00    +0.000 C 
ATOM     28  O   UNK A   0      -7.538  -0.538 130.966  0.00  0.00    +0.000 OA
ATOM     29  N   UNK A   0      -8.620   1.423 130.522  0.00  0.00    +0.000 N 
ATOM     30  C   UNK A   0      -8.715   2.814 130.141  0.00  0.00    +0.000 C 
ATOM     31  C   UNK A   0      -9.536   1.154 131.623  0.00  0.00    +0.000 C 
ENDBRANCH  19  27
ENDBRANCH   1  19
BRANCH   8  32
ATOM     32  CB  LEU A   1      -7.702  -2.050 127.749  0.00  0.00    +0.000 C 
BRANCH  32  33
ATOM     33  CG  LEU A   1      -8.431  -2.989 128.676  0.00  0.00    +0.000 C 
ATOM     34  CD1 LEU A   1      -9.091  -4.112 127.868  0.00  0.00    +0.000 C 
ATOM     35  CD2 LEU A   1      -7.442  -3.672 129.605  0.00  0.00    +0.000 C 
ENDBRANCH  32  33
ENDBRANCH   8  32
TORSDOF 6
ENDMDL
MODEL 2
REMARK VINA RESULT:      -8.4      2.362      4.580
REMARK  Name = CHEMBL403477
REMARK  12 active torsions:
REMARK  status: ('A' for Active; 'I' for Inactive)
REMARK    1  A    between atoms: C_1  and  C_2
REMARK    2  A    between atoms: C_4  and  C_5
REMARK    3  A    between atoms: C_5  and  C_6
REMARK    4  A    between atoms: C_5  and  N_11
REMARK    5  A    between atoms: N_8  and  C_9
REMARK    6  A    between atoms: N_8  and  C_10
REMARK    7  A    between atoms: C_14  and  C_15
REMARK    8  A    between atoms: CA_27  and  CB_28
REMARK    9  A    between atoms: CB_28  and  CG_29
REMARK   10  A    between atoms: CG_29  and  CD1_30
REMARK   11  A    between atoms: CG_29  and  CD2_31
REMARK   12  A    between atoms: C_32  and  C_33
REMARK                            x       y       z     vdW  Elec       q    Type
REMARK                         _______ _______ _______ _____ _____    ______ ____
ROOT
ATOM      1  N   LEU A   1      -7.579   2.225 127.833  0.00  0.00    +0.000 N 
ATOM      2  C   UNK A   2      -7.438   3.118 126.773  0.00  0.00    +0.000 C 
ATOM      3  O   UNK A   2      -7.273   4.324 126.978  0.00  0.00    +0.000 OA
ATOM      4  C   UNK A   2      -7.797   2.540 125.373  0.00  0.00    +0.000 C 
ATOM      5  N   UNK A   2      -7.077   1.305 125.255  0.00  0.00    +0.000 N 
ATOM      6  C   LEU A   1      -7.522   0.328 126.090  0.00  0.00    +0.000 C 
ATOM      7  O   LEU A   1      -7.583  -0.838 125.668  0.00  0.00    +0.000 OA
ATOM      8  CA  LEU A   1      -7.927   0.801 127.516  0.00  0.00    +0.000 C 
ATOM      9  H   UNK A   2      -6.768   0.972 124.349  0.00  0.00    +0.000 HD
ENDROOT
BRANCH   4  10
ATOM     10  C   UNK A   2      -7.498   3.485 124.244  0.00  0.00    +0.000 C 
ATOM     11  C   UNK A   2      -6.013   3.516 123.817  0.00  0.00    +0.000 C 
ATOM     12  C   UNK A   2      -6.157   3.838 122.371  0.00  0.00    +0.000 A 
ATOM     13  C   UNK A   2      -5.177   4.247 121.493  0.00  0.00    +0.000 A 
ATOM     14  C   UNK A   2      -5.545   4.451 120.165  0.00  0.00    +0.000 A 
ATOM     15  C   UNK A   2      -6.859   4.201 119.731  0.00  0.00    +0.000 A 
ATOM     16  C   UNK A   2      -7.827   3.743 120.616  0.00  0.00    +0.000 A 
ATOM     17  C   UNK A   2      -7.463   3.591 121.931  0.00  0.00    +0.000 A 
ATOM     18  C   UNK A   2      -8.331   3.087 123.020  0.00  0.00    +0.000 C 
ENDBRANCH   4  10
BRANCH   1  19
ATOM     19  C   UNK A   0      -7.547   2.857 129.211  0.00  0.00    +0.000 C 
BRANCH  19  23
ATOM     20  C   UNK A   0     -10.956   6.664 130.416  0.00  0.00    +0.000 C 
ATOM     21  C   UNK A   0     -10.263   5.341 130.144  0.00  0.00    +0.000 A 
ATOM     22  N   UNK A   0      -9.396   4.915 129.219  0.00  0.00    +0.000 NA
ATOM     23  C   UNK A   0      -8.868   3.659 129.710  0.00  0.00    +0.000 A 
ATOM     24  C   UNK A   0      -9.666   3.344 130.787  0.00  0.00    +0.000 A 
ATOM     25  C   UNK A   0      -9.792   2.162 131.629  0.00  0.00    +0.000 C 
ATOM     26  O   UNK A   0     -10.475   4.397 131.110  0.00  0.00    +0.000 OA
ENDBRANCH  19  23
BRANCH  19  27
ATOM     27  C   UNK A   0      -6.191   3.732 129.508  0.00  0.00    +0.000 C 
ATOM     28  O   UNK A   0      -6.369   4.908 129.880  0.00  0.00    +0.000 OA
ATOM     29  N   UNK A   0      -4.858   3.335 129.207  0.00  0.00    +0.000 N 
ATOM     30  C   UNK A   0      -4.293   2.007 129.122  0.00  0.00    +0.000 C 
ATOM     31  C   UNK A   0      -3.788   4.313 129.361  0.00  0.00    +0.000 C 
ENDBRANCH  19  27
ENDBRANCH   1  19
BRANCH   8  32
ATOM     32  CB  LEU A   1      -7.234  -0.069 128.532  0.00  0.00    +0.000 C 
BRANCH  32  33
ATOM     33  CG  LEU A   1      -7.884  -1.257 129.194  0.00  0.00    +0.000 C 
ATOM     34  CD1 LEU A   1      -7.056  -2.519 128.929  0.00  0.00    +0.000 C 
ATOM     35  CD2 LEU A   1      -7.888  -1.072 130.702  0.00  0.00    +0.000 C 
ENDBRANCH  32  33
ENDBRANCH   8  32
TORSDOF 6
ENDMDL
MODEL 3
REMARK VINA RESULT:      -8.3      5.208      7.329
REMARK  Name = CHEMBL403477
REMARK  12 active torsions:
REMARK  status: ('A' for Active; 'I' for Inactive)
REMARK    1  A    between atoms: C_1  and  C_2
REMARK    2  A    between atoms: C_4  and  C_5
REMARK    3  A    between atoms: C_5  and  C_6
REMARK    4  A    between atoms: C_5  and  N_11
REMARK    5  A    between atoms: N_8  and  C_9
REMARK    6  A    between atoms: N_8  and  C_10
REMARK    7  A    between atoms: C_14  and  C_15
REMARK    8  A    between atoms: CA_27  and  CB_28
REMARK    9  A    between atoms: CB_28  and  CG_29
REMARK   10  A    between atoms: CG_29  and  CD1_30
REMARK   11  A    between atoms: CG_29  and  CD2_31
REMARK   12  A    between atoms: C_32  and  C_33
REMARK                            x       y       z     vdW  Elec       q    Type
REMARK                         _______ _______ _______ _____ _____    ______ ____
ROOT
ATOM      1  N   LEU A   1      -6.184   4.609 130.849  0.00  0.00    +0.000 N 
ATOM      2  C   UNK A   2      -6.972   5.754 130.760  0.00  0.00    +0.000 C 
ATOM      3  O   UNK A   2      -6.457   6.871 130.656  0.00  0.00    +0.000 OA
ATOM      4  C   UNK A   2      -8.477   5.545 131.099  0.00  0.00    +0.000 C 
ATOM      5  N   UNK A   2      -8.910   4.423 130.318  0.00  0.00    +0.000 N 
ATOM      6  C   LEU A   1      -8.362   3.240 130.707  0.00  0.00    +0.000 C 
ATOM      7  O   LEU A   1      -9.076   2.223 130.711  0.00  0.00    +0.000 OA
ATOM      8  CA  LEU A   1      -6.865   3.301 131.126  0.00  0.00    +0.000 C 
ATOM      9  H   UNK A   2      -9.869   4.355 129.998  0.00  0.00    +0.000 HD
ENDROOT
BRANCH   4  10
ATOM     10  C   UNK A   2      -9.316   6.767 130.856  0.00  0.00    +0.000 C 
ATOM     11  C   UNK A   2      -9.422   7.181 129.370  0.00  0.00    +0.000 C 
ATOM     12  C   UNK A   2     -10.776   7.798 129.360  0.00  0.00    +0.000 A 
ATOM     13  C   UNK A   2     -11.342   8.581 128.377  0.00  0.00    +0.000 A 
ATOM     14  C   UNK A   2     -12.652   9.016 128.573  0.00  0.00    +0.000 A 
ATOM     15  C   UNK A   2     -13.381   8.626 129.710  0.00  0.00    +0.000 A 
ATOM     16  C   UNK A   2     -12.816   7.797 130.670  0.00  0.00    +0.000 A 
ATOM     17  C   UNK A   2     -11.509   7.414 130.489  0.00  0.00    +0.000 A 
ATOM     18  C   UNK A   2     -10.737   6.514 131.374  0.00  0.00    +0.000 C 
ENDBRANCH   4  10
BRANCH   1  19
ATOM     19  C   UNK A   0      -4.688   4.858 130.840  0.00  0.00    +0.000 C 
BRANCH  19  23
ATOM     20  C   UNK A   0      -1.746   3.036 126.892  0.00  0.00    +0.000 C 
ATOM     21  C   UNK A   0      -2.677   3.835 127.786  0.00  0.00    +0.000 A 
ATOM     22  N   UNK A   0      -3.627   3.509 128.669  0.00  0.00    +0.000 NA
ATOM     23  C   UNK A   0      -3.903   4.713 129.426  0.00  0.00    +0.000 A 
ATOM     24  C   UNK A   0      -3.242   5.710 128.744  0.00  0.00    +0.000 A 
ATOM     25  C   UNK A   0      -3.226   7.163 128.861  0.00  0.00    +0.000 C 
ATOM     26  O   UNK A   0      -2.429   5.179 127.784  0.00  0.00    +0.000 OA
ENDBRANCH  19  23
BRANCH  19  27
ATOM     27  C   UNK A   0      -3.879   4.078 132.035  0.00  0.00    +0.000 C 
ATOM     28  O   UNK A   0      -2.998   3.276 131.668  0.00  0.00    +0.000 OA
ATOM     29  N   UNK A   0      -4.211   4.096 133.419  0.00  0.00    +0.000 N 
ATOM     30  C   UNK A   0      -4.880   5.120 134.188  0.00  0.00    +0.000 C 
ATOM     31  C   UNK A   0      -3.502   3.194 134.318  0.00  0.00    +0.000 C 
ENDBRANCH  19  27
ENDBRANCH   1  19
BRANCH   8  32
ATOM     32  CB  LEU A   1      -6.108   2.232 130.383  0.00  0.00    +0.000 C 
BRANCH  32  33
ATOM     33  CG  LEU A   1      -5.669   0.933 131.009  0.00  0.00    +0.000 C 
ATOM     34  CD1 LEU A   1      -5.950   0.960 132.516  0.00  0.00    +0.000 C 
ATOM     35  CD2 LEU A   1      -6.495  -0.215 130.453  0.00  0.00    +0.000 C 
ENDBRANCH  32  33
ENDBRANCH   8  32
TORSDOF 6
ENDMDL
MODEL 4
REMARK VINA RESULT:      -8.1      3.643      6.947
REMARK  Name = CHEMBL403477
REMARK  12 active torsions:
REMARK  status: ('A' for Active; 'I' for Inactive)
REMARK    1  A    between atoms: C_1  and  C_2
REMARK    2  A    between atoms: C_4  and  C_5
REMARK    3  A    between atoms: C_5  and  C_6
REMARK    4  A    between atoms: C_5  and  N_11
REMARK    5  A    between atoms: N_8  and  C_9
REMARK    6  A    between atoms: N_8  and  C_10
REMARK    7  A    between atoms: C_14  and  C_15
REMARK    8  A    between atoms: CA_27  and  CB_28
REMARK    9  A    between atoms: CB_28  and  CG_29
REMARK   10  A    between atoms: CG_29  and  CD1_30
REMARK   11  A    between atoms: CG_29  and  CD2_31
REMARK   12  A    between atoms: C_32  and  C_33
REMARK                            x       y       z     vdW  Elec       q    Type
REMARK                         _______ _______ _______ _____ _____    ______ ____
ROOT
ATOM      1  N   LEU A   1      -7.405   3.366 128.829  0.00  0.00    +0.000 N 
ATOM      2  C   UNK A   2      -8.208   2.402 128.224  0.00  0.00    +0.000 C 
ATOM      3  O   UNK A   2      -9.338   2.157 128.656  0.00  0.00    +0.000 OA
ATOM      4  C   UNK A   2      -7.478   1.485 127.199  0.00  0.00    +0.000 C 
ATOM      5  N   UNK A   2      -6.773   2.363 126.310  0.00  0.00    +0.000 N 
ATOM      6  C   LEU A   1      -5.736   3.020 126.895  0.00  0.00    +0.000 C 
ATOM      7  O   LEU A   1      -4.685   3.172 126.252  0.00  0.00    +0.000 OA
ATOM      8  CA  LEU A   1      -5.989   3.508 128.352  0.00  0.00    +0.000 C 
ATOM      9  H   UNK A   2      -6.610   2.099 125.345  0.00  0.00    +0.000 HD
ENDROOT
BRANCH   4  10
ATOM     10  C   UNK A   2      -8.404   0.556 126.467  0.00  0.00    +0.000 C 
ATOM     11  C   UNK A   2      -8.252   0.586 124.930  0.00  0.00    +0.000 C 
ATOM     12  C   UNK A   2      -8.625  -0.815 124.596  0.00  0.00    +0.000 A 
ATOM     13  C   UNK A   2      -8.925  -1.339 123.356  0.00  0.00    +0.000 A 
ATOM     14  C   UNK A   2      -9.209  -2.701 123.283  0.00  0.00    +0.000 A 
ATOM     15  C   UNK A   2      -9.142  -3.517 124.427  0.00  0.00    +0.000 A 
ATOM     16  C   UNK A   2      -8.792  -2.986 125.662  0.00  0.00    +0.000 A 
ATOM     17  C   UNK A   2      -8.561  -1.634 125.729  0.00  0.00    +0.000 A 
ATOM     18  C   UNK A   2      -8.148  -0.882 126.936  0.00  0.00    +0.000 C 
ENDBRANCH   4  10
BRANCH   1  19
ATOM     19  C   UNK A   0      -8.014   4.038 130.044  0.00  0.00    +0.000 C 
BRANCH  19  23
ATOM     20  C   UNK A   0     -10.454   8.301 128.190  0.00  0.00    +0.000 C 
ATOM     21  C   UNK A   0     -10.073   7.020 128.909  0.00  0.00    +0.000 A 
ATOM     22  N   UNK A   0      -9.396   5.920 128.560  0.00  0.00    +0.000 NA
ATOM     23  C   UNK A   0      -9.094   5.224 129.793  0.00  0.00    +0.000 A 
ATOM     24  C   UNK A   0      -9.843   5.873 130.750  0.00  0.00    +0.000 A 
ATOM     25  C   UNK A   0     -10.133   5.599 132.151  0.00  0.00    +0.000 C 
ATOM     26  O   UNK A   0     -10.388   7.017 130.239  0.00  0.00    +0.000 OA
ENDBRANCH  19  23
BRANCH  19  27
ATOM     27  C   UNK A   0      -6.914   4.485 131.176  0.00  0.00    +0.000 C 
ATOM     28  O   UNK A   0      -6.746   5.711 131.322  0.00  0.00    +0.000 OA
ATOM     29  N   UNK A   0      -6.019   3.616 131.860  0.00  0.00    +0.000 N 
ATOM     30  C   UNK A   0      -6.171   2.216 132.189  0.00  0.00    +0.000 C 
ATOM     31  C   UNK A   0      -4.977   4.203 132.693  0.00  0.00    +0.000 C 
ENDBRANCH  19  27
ENDBRANCH   1  19
BRANCH   8  32
ATOM     32  CB  LEU A   1      -5.626   4.966 128.445  0.00  0.00    +0.000 C 
BRANCH  32  33
ATOM     33  CG  LEU A   1      -4.290   5.463 128.938  0.00  0.00    +0.000 C 
ATOM     34  CD1 LEU A   1      -3.418   4.277 129.362  0.00  0.00    +0.000 C 
ATOM     35  CD2 LEU A   1      -3.542   6.145 127.805  0.00  0.00    +0.000 C 
ENDBRANCH  32  33
ENDBRANCH   8  32
TORSDOF 6
ENDMDL
MODEL 5
REMARK VINA RESULT:      -8.1      4.908      9.069
REMARK  Name = CHEMBL403477
REMARK  12 active torsions:
REMARK  status: ('A' for Active; 'I' for Inactive)
REMARK    1  A    between atoms: C_1  and  C_2
REMARK    2  A    between atoms: C_4  and  C_5
REMARK    3  A    between atoms: C_5  and  C_6
REMARK    4  A    between atoms: C_5  and  N_11
REMARK    5  A    between atoms: N_8  and  C_9
REMARK    6  A    between atoms: N_8  and  C_10
REMARK    7  A    between atoms: C_14  and  C_15
REMARK    8  A    between atoms: CA_27  and  CB_28
REMARK    9  A    between atoms: CB_28  and  CG_29
REMARK   10  A    between atoms: CG_29  and  CD1_30
REMARK   11  A    between atoms: CG_29  and  CD2_31
REMARK   12  A    between atoms: C_32  and  C_33
REMARK                            x       y       z     vdW  Elec       q    Type
REMARK                         _______ _______ _______ _____ _____    ______ ____
ROOT
ATOM      1  N   LEU A   1      -6.675   4.271 130.541  0.00  0.00    +0.000 N 
ATOM      2  C   UNK A   2      -5.675   5.237 130.447  0.00  0.00    +0.000 C 
ATOM      3  O   UNK A   2      -5.783   6.189 129.670  0.00  0.00    +0.000 OA
ATOM      4  C   UNK A   2      -4.334   4.865 131.146  0.00  0.00    +0.000 C 
ATOM      5  N   UNK A   2      -4.680   4.445 132.474  0.00  0.00    +0.000 N 
ATOM      6  C   LEU A   1      -5.360   3.267 132.517  0.00  0.00    +0.000 C 
ATOM      7  O   LEU A   1      -5.094   2.455 133.418  0.00  0.00    +0.000 OA
ATOM      8  CA  LEU A   1      -6.414   3.063 131.390  0.00  0.00    +0.000 C 
ATOM      9  H   UNK A   2      -4.035   4.583 133.244  0.00  0.00    +0.000 HD
ENDROOT
BRANCH   4  10
ATOM     10  C   UNK A   2      -3.332   5.985 131.146  0.00  0.00    +0.000 C 
ATOM     11  C   UNK A   2      -3.812   7.268 131.863  0.00  0.00    +0.000 C 
ATOM     12  C   UNK A   2      -2.513   7.797 132.361  0.00  0.00    +0.000 A 
ATOM     13  C   UNK A   2      -2.247   9.053 132.864  0.00  0.00    +0.000 A 
ATOM     14  C   UNK A   2      -0.952   9.308 133.310  0.00  0.00    +0.000 A 
ATOM     15  C   UNK A   2       0.031   8.303 133.292  0.00  0.00    +0.000 A 
ATOM     16  C   UNK A   2      -0.262   7.027 132.826  0.00  0.00    +0.000 A 
ATOM     17  C   UNK A   2      -1.528   6.802 132.346  0.00  0.00    +0.000 A 
ATOM     18  C   UNK A   2      -2.048   5.513 131.838  0.00  0.00    +0.000 C 
ENDBRANCH   4  10
BRANCH   1  19
ATOM     19  C   UNK A   0      -7.851   4.476 129.606  0.00  0.00    +0.000 C 
BRANCH  19  23
ATOM     20  C   UNK A   0     -12.497   6.874 130.090  0.00  0.00    +0.000 C 
ATOM     21  C   UNK A   0     -11.198   6.122 130.319  0.00  0.00    +0.000 A 
ATOM     22  N   UNK A   0     -10.522   5.197 129.628  0.00  0.00    +0.000 NA
ATOM     23  C   UNK A   0      -9.201   5.138 130.219  0.00  0.00    +0.000 A 
ATOM     24  C   UNK A   0      -9.304   5.881 131.374  0.00  0.00    +0.000 A 
ATOM     25  C   UNK A   0      -8.414   6.102 132.506  0.00  0.00    +0.000 C 
ATOM     26  O   UNK A   0     -10.496   6.549 131.411  0.00  0.00    +0.000 OA
ENDBRANCH  19  23
BRANCH  19  27
ATOM     27  C   UNK A   0      -8.213   3.158 128.698  0.00  0.00    +0.000 C 
ATOM     28  O   UNK A   0      -9.325   2.637 128.907  0.00  0.00    +0.000 OA
ATOM     29  N   UNK A   0      -7.314   2.461 127.842  0.00  0.00    +0.000 N 
ATOM     30  C   UNK A   0      -6.157   2.954 127.130  0.00  0.00    +0.000 C 
ATOM     31  C   UNK A   0      -7.746   1.198 127.257  0.00  0.00    +0.000 C 
ENDBRANCH  19  27
ENDBRANCH   1  19
BRANCH   8  32
ATOM     32  CB  LEU A   1      -7.723   2.662 132.018  0.00  0.00    +0.000 C 
BRANCH  32  33
ATOM     33  CG  LEU A   1      -8.174   1.231 132.163  0.00  0.00    +0.000 C 
ATOM     34  CD1 LEU A   1      -9.691   1.139 131.969  0.00  0.00    +0.000 C 
ATOM     35  CD2 LEU A   1      -7.563   0.380 131.063  0.00  0.00    +0.000 C 
ENDBRANCH  32  33
ENDBRANCH   8  32
TORSDOF 6
ENDMDL
MODEL 6
REMARK VINA RESULT:      -8.1      2.513      3.663
REMARK  Name = CHEMBL403477
REMARK  12 active torsions:
REMARK  status: ('A' for Active; 'I' for Inactive)
REMARK    1  A    between atoms: C_1  and  C_2
REMARK    2  A    between atoms: C_4  and  C_5
REMARK    3  A    between atoms: C_5  and  C_6
REMARK    4  A    between atoms: C_5  and  N_11
REMARK    5  A    between atoms: N_8  and  C_9
REMARK    6  A    between atoms: N_8  and  C_10
REMARK    7  A    between atoms: C_14  and  C_15
REMARK    8  A    between atoms: CA_27  and  CB_28
REMARK    9  A    between atoms: CB_28  and  CG_29
REMARK   10  A    between atoms: CG_29  and  CD1_30
REMARK   11  A    between atoms: CG_29  and  CD2_31
REMARK   12  A    between atoms: C_32  and  C_33
REMARK                            x       y       z     vdW  Elec       q    Type
REMARK                         _______ _______ _______ _____ _____    ______ ____
ROOT
ATOM      1  N   LEU A   1      -7.839   2.970 128.338  0.00  0.00    +0.000 N 
ATOM      2  C   UNK A   2      -7.636   3.720 127.182  0.00  0.00    +0.000 C 
ATOM      3  O   UNK A   2      -7.505   4.946 127.237  0.00  0.00    +0.000 OA
ATOM      4  C   UNK A   2      -7.885   2.956 125.849  0.00  0.00    +0.000 C 
ATOM      5  N   UNK A   2      -7.139   1.734 125.944  0.00  0.00    +0.000 N 
ATOM      6  C   LEU A   1      -7.628   0.864 126.868  0.00  0.00    +0.000 C 
ATOM      7  O   LEU A   1      -7.641  -0.349 126.599  0.00  0.00    +0.000 OA
ATOM      8  CA  LEU A   1      -8.142   1.508 128.188  0.00  0.00    +0.000 C 
ATOM      9  H   UNK A   2      -6.762   1.294 125.113  0.00  0.00    +0.000 HD
ENDROOT
BRANCH   4  10
ATOM     10  C   UNK A   2      -7.521   3.754 124.629  0.00  0.00    +0.000 C 
ATOM     11  C   UNK A   2      -6.007   3.785 124.318  0.00  0.00    +0.000 C 
ATOM     12  C   UNK A   2      -6.040   3.905 122.835  0.00  0.00    +0.000 A 
ATOM     13  C   UNK A   2      -5.002   4.232 121.989  0.00  0.00    +0.000 A 
ATOM     14  C   UNK A   2      -5.265   4.243 120.621  0.00  0.00    +0.000 A 
ATOM     15  C   UNK A   2      -6.531   3.886 120.124  0.00  0.00    +0.000 A 
ATOM     16  C   UNK A   2      -7.556   3.513 120.984  0.00  0.00    +0.000 A 
ATOM     17  C   UNK A   2      -7.297   3.551 122.333  0.00  0.00    +0.000 A 
ATOM     18  C   UNK A   2      -8.238   3.163 123.408  0.00  0.00    +0.000 C 
ENDBRANCH   4  10
BRANCH   1  19
ATOM     19  C   UNK A   0      -7.916   3.776 129.620  0.00  0.00    +0.000 C 
BRANCH  19  23
ATOM     20  C   UNK A   0      -6.070   2.984 134.471  0.00  0.00    +0.000 C 
ATOM     21  C   UNK A   0      -6.335   2.967 132.976  0.00  0.00    +0.000 A 
ATOM     22  N   UNK A   0      -7.442   2.975 132.225  0.00  0.00    +0.000 NA
ATOM     23  C   UNK A   0      -7.013   3.288 130.878  0.00  0.00    +0.000 A 
ATOM     24  C   UNK A   0      -5.639   3.202 130.923  0.00  0.00    +0.000 A 
ATOM     25  C   UNK A   0      -4.599   3.238 129.903  0.00  0.00    +0.000 C 
ATOM     26  O   UNK A   0      -5.207   3.079 132.213  0.00  0.00    +0.000 OA
ENDBRANCH  19  23
BRANCH  19  27
ATOM     27  C   UNK A   0      -9.447   4.112 130.101  0.00  0.00    +0.000 C 
ATOM     28  O   UNK A   0     -10.282   3.199 129.952  0.00  0.00    +0.000 OA
ATOM     29  N   UNK A   0      -9.938   5.389 130.494  0.00  0.00    +0.000 N 
ATOM     30  C   UNK A   0      -9.231   6.499 131.092  0.00  0.00    +0.000 C 
ATOM     31  C   UNK A   0     -11.371   5.550 130.708  0.00  0.00    +0.000 C 
ENDBRANCH  19  27
ENDBRANCH   1  19
BRANCH   8  32
ATOM     32  CB  LEU A   1      -7.509   0.795 129.354  0.00  0.00    +0.000 C 
BRANCH  32  33
ATOM     33  CG  LEU A   1      -8.094  -0.439 129.993  0.00  0.00    +0.000 C 
ATOM     34  CD1 LEU A   1      -6.985  -1.463 130.260  0.00  0.00    +0.000 C 
ATOM     35  CD2 LEU A   1      -8.676  -0.093 131.353  0.00  0.00    +0.000 C 
ENDBRANCH  32  33
ENDBRANCH   8  32
TORSDOF 6
ENDMDL
MODEL 7
REMARK VINA RESULT:      -8.1      5.987      8.816
REMARK  Name = CHEMBL403477
REMARK  12 active torsions:
REMARK  status: ('A' for Active; 'I' for Inactive)
REMARK    1  A    between atoms: C_1  and  C_2
REMARK    2  A    between atoms: C_4  and  C_5
REMARK    3  A    between atoms: C_5  and  C_6
REMARK    4  A    between atoms: C_5  and  N_11
REMARK    5  A    between atoms: N_8  and  C_9
REMARK    6  A    between atoms: N_8  and  C_10
REMARK    7  A    between atoms: C_14  and  C_15
REMARK    8  A    between atoms: CA_27  and  CB_28
REMARK    9  A    between atoms: CB_28  and  CG_29
REMARK   10  A    between atoms: CG_29  and  CD1_30
REMARK   11  A    between atoms: CG_29  and  CD2_31
REMARK   12  A    between atoms: C_32  and  C_33
REMARK                            x       y       z     vdW  Elec       q    Type
REMARK                         _______ _______ _______ _____ _____    ______ ____
ROOT
ATOM      1  N   LEU A   1      -6.136   4.893 132.867  0.00  0.00    +0.000 N 
ATOM      2  C   UNK A   2      -7.122   5.050 131.896  0.00  0.00    +0.000 C 
ATOM      3  O   UNK A   2      -6.950   4.639 130.745  0.00  0.00    +0.000 OA
ATOM      4  C   UNK A   2      -8.281   6.015 132.284  0.00  0.00    +0.000 C 
ATOM      5  N   UNK A   2      -8.734   5.594 133.578  0.00  0.00    +0.000 N 
ATOM      6  C   LEU A   1      -7.834   5.814 134.574  0.00  0.00    +0.000 C 
ATOM      7  O   LEU A   1      -8.245   6.211 135.676  0.00  0.00    +0.000 OA
ATOM      8  CA  LEU A   1      -6.346   5.548 134.201  0.00  0.00    +0.000 C 
ATOM      9  H   UNK A   2      -9.701   5.722 133.854  0.00  0.00    +0.000 HD
ENDROOT
BRANCH   4  10
ATOM     10  C   UNK A   2      -9.392   6.048 131.273  0.00  0.00    +0.000 C 
ATOM     11  C   UNK A   2     -10.790   6.318 131.874  0.00  0.00    +0.000 C 
ATOM     12  C   UNK A   2     -11.438   7.025 130.736  0.00  0.00    +0.000 A 
ATOM     13  C   UNK A   2     -12.777   7.302 130.563  0.00  0.00    +0.000 A 
ATOM     14  C   UNK A   2     -13.146   8.018 129.426  0.00  0.00    +0.000 A 
ATOM     15  C   UNK A   2     -12.179   8.482 128.517  0.00  0.00    +0.000 A 
ATOM     16  C   UNK A   2     -10.828   8.237 128.727  0.00  0.00    +0.000 A 
ATOM     17  C   UNK A   2     -10.481   7.490 129.826  0.00  0.00    +0.000 A 
ATOM     18  C   UNK A   2      -9.103   7.146 130.243  0.00  0.00    +0.000 C 
ENDBRANCH   4  10
BRANCH   1  19
ATOM     19  C   UNK A   0      -4.863   4.226 132.386  0.00  0.00    +0.000 C 
BRANCH  19  23
ATOM     20  C   UNK A   0      -2.442   6.688 128.430  0.00  0.00    +0.000 C 
ATOM     21  C   UNK A   0      -2.893   6.165 129.782  0.00  0.00    +0.000 A 
ATOM     22  N   UNK A   0      -4.084   5.911 130.334  0.00  0.00    +0.000 NA
ATOM     23  C   UNK A   0      -3.821   5.117 131.516  0.00  0.00    +0.000 A 
ATOM     24  C   UNK A   0      -2.455   5.180 131.678  0.00  0.00    +0.000 A 
ATOM     25  C   UNK A   0      -1.550   4.748 132.736  0.00  0.00    +0.000 C 
ATOM     26  O   UNK A   0      -1.867   5.754 130.587  0.00  0.00    +0.000 OA
ENDBRANCH  19  23
BRANCH  19  27
ATOM     27  C   UNK A   0      -5.106   2.765 131.679  0.00  0.00    +0.000 C 
ATOM     28  O   UNK A   0      -4.570   2.598 130.567  0.00  0.00    +0.000 OA
ATOM     29  N   UNK A   0      -6.009   1.760 132.128  0.00  0.00    +0.000 N 
ATOM     30  C   UNK A   0      -6.478   1.480 133.466  0.00  0.00    +0.000 C 
ATOM     31  C   UNK A   0      -6.243   0.601 131.275  0.00  0.00    +0.000 C 
ENDBRANCH  19  27
ENDBRANCH   1  19
BRANCH   8  32
ATOM     32  CB  LEU A   1      -5.737   4.649 135.245  0.00  0.00    +0.000 C 
BRANCH  32  33
ATOM     33  CG  LEU A   1      -4.828   5.142 136.342  0.00  0.00    +0.000 C 
ATOM     34  CD1 LEU A   1      -4.494   6.620 136.116  0.00  0.00    +0.000 C 
ATOM     35  CD2 LEU A   1      -5.548   5.078 137.679  0.00  0.00    +0.000 C 
ENDBRANCH  32  33
ENDBRANCH   8  32
TORSDOF 6
ENDMDL
MODEL 8
REMARK VINA RESULT:      -8.1      4.251      7.378
REMARK  Name = CHEMBL403477
REMARK  12 active torsions:
REMARK  status: ('A' for Active; 'I' for Inactive)
REMARK    1  A    between atoms: C_1  and  C_2
REMARK    2  A    between atoms: C_4  and  C_5
REMARK    3  A    between atoms: C_5  and  C_6
REMARK    4  A    between atoms: C_5  and  N_11
REMARK    5  A    between atoms: N_8  and  C_9
REMARK    6  A    between atoms: N_8  and  C_10
REMARK    7  A    between atoms: C_14  and  C_15
REMARK    8  A    between atoms: CA_27  and  CB_28
REMARK    9  A    between atoms: CB_28  and  CG_29
REMARK   10  A    between atoms: CG_29  and  CD1_30
REMARK   11  A    between atoms: CG_29  and  CD2_31
REMARK   12  A    between atoms: C_32  and  C_33
REMARK                            x       y       z     vdW  Elec       q    Type
REMARK                         _______ _______ _______ _____ _____    ______ ____
ROOT
ATOM      1  N   LEU A   1      -7.556   3.767 130.205  0.00  0.00    +0.000 N 
ATOM      2  C   UNK A   2      -8.546   4.737 130.059  0.00  0.00    +0.000 C 
ATOM      3  O   UNK A   2      -8.473   5.589 129.169  0.00  0.00    +0.000 OA
ATOM      4  C   UNK A   2      -9.545   4.840 131.249  0.00  0.00    +0.000 C 
ATOM      5  N   UNK A   2     -10.006   3.505 131.500  0.00  0.00    +0.000 N 
ATOM      6  C   LEU A   1      -9.048   2.680 132.003  0.00  0.00    +0.000 C 
ATOM      7  O   LEU A   1      -9.361   1.873 132.894  0.00  0.00    +0.000 OA
ATOM      8  CA  LEU A   1      -7.626   2.858 131.396  0.00  0.00    +0.000 C 
ATOM      9  H   UNK A   2     -10.935   3.340 131.869  0.00  0.00    +0.000 HD
ENDROOT
BRANCH   4  10
ATOM     10  C   UNK A   2     -10.677   5.795 130.993  0.00  0.00    +0.000 C 
ATOM     11  C   UNK A   2     -10.234   7.181 130.472  0.00  0.00    +0.000 C 
ATOM     12  C   UNK A   2     -11.414   7.543 129.640  0.00  0.00    +0.000 A 
ATOM     13  C   UNK A   2     -11.732   8.777 129.113  0.00  0.00    +0.000 A 
ATOM     14  C   UNK A   2     -12.877   8.866 128.325  0.00  0.00    +0.000 A 
ATOM     15  C   UNK A   2     -13.651   7.726 128.040  0.00  0.00    +0.000 A 
ATOM     16  C   UNK A   2     -13.294   6.480 128.539  0.00  0.00    +0.000 A 
ATOM     17  C   UNK A   2     -12.189   6.414 129.353  0.00  0.00    +0.000 A 
ATOM     18  C   UNK A   2     -11.627   5.185 129.955  0.00  0.00    +0.000 C 
ENDBRANCH   4  10
BRANCH   1  19
ATOM     19  C   UNK A   0      -6.406   3.875 129.223  0.00  0.00    +0.000 C 
BRANCH  19  23
ATOM     20  C   UNK A   0      -3.978   8.488 129.847  0.00  0.00    +0.000 C 
ATOM     21  C   UNK A   0      -4.351   7.018 129.787  0.00  0.00    +0.000 A 
ATOM     22  N   UNK A   0      -5.451   6.322 130.093  0.00  0.00    +0.000 NA
ATOM     23  C   UNK A   0      -5.281   5.015 129.493  0.00  0.00    +0.000 A 
ATOM     24  C   UNK A   0      -3.967   4.990 129.083  0.00  0.00    +0.000 A 
ATOM     25  C   UNK A   0      -3.101   3.942 128.557  0.00  0.00    +0.000 C 
ATOM     26  O   UNK A   0      -3.406   6.231 129.189  0.00  0.00    +0.000 OA
ENDBRANCH  19  23
BRANCH  19  27
ATOM     27  C   UNK A   0      -6.874   3.884 127.651  0.00  0.00    +0.000 C 
ATOM     28  O   UNK A   0      -6.503   4.862 126.974  0.00  0.00    +0.000 OA
ATOM     29  N   UNK A   0      -7.802   2.987 127.050  0.00  0.00    +0.000 N 
ATOM     30  C   UNK A   0      -8.119   1.622 127.405  0.00  0.00    +0.000 C 
ATOM     31  C   UNK A   0      -8.250   3.256 125.690  0.00  0.00    +0.000 C 
ENDBRANCH  19  27
ENDBRANCH   1  19
BRANCH   8  32
ATOM     32  CB  LEU A   1      -7.109   1.510 130.965  0.00  0.00    +0.000 C 
BRANCH  32  33
ATOM     33  CG  LEU A   1      -5.939   0.819 131.617  0.00  0.00    +0.000 C 
ATOM     34  CD1 LEU A   1      -4.680   1.010 130.764  0.00  0.00    +0.000 C 
ATOM     35  CD2 LEU A   1      -5.635   1.468 132.957  0.00  0.00    +0.000 C 
ENDBRANCH  32  33
ENDBRANCH   8  32
TORSDOF 6
ENDMDL
MODEL 9
REMARK VINA RESULT:      -8.1      2.728      3.920
REMARK  Name = CHEMBL403477
REMARK  12 active torsions:
REMARK  status: ('A' for Active; 'I' for Inactive)
REMARK    1  A    between atoms: C_1  and  C_2
REMARK    2  A    between atoms: C_4  and  C_5
REMARK    3  A    between atoms: C_5  and  C_6
REMARK    4  A    between atoms: C_5  and  N_11
REMARK    5  A    between atoms: N_8  and  C_9
REMARK    6  A    between atoms: N_8  and  C_10
REMARK    7  A    between atoms: C_14  and  C_15
REMARK    8  A    between atoms: CA_27  and  CB_28
REMARK    9  A    between atoms: CB_28  and  CG_29
REMARK   10  A    between atoms: CG_29  and  CD1_30
REMARK   11  A    between atoms: CG_29  and  CD2_31
REMARK   12  A    between atoms: C_32  and  C_33
REMARK                            x       y       z     vdW  Elec       q    Type
REMARK                         _______ _______ _______ _____ _____    ______ ____
ROOT
ATOM      1  N   LEU A   1      -5.917   2.984 128.093  0.00  0.00    +0.000 N 
ATOM      2  C   UNK A   2      -6.147   3.755 126.956  0.00  0.00    +0.000 C 
ATOM      3  O   UNK A   2      -6.333   4.972 127.042  0.00  0.00    +0.000 OA
ATOM      4  C   UNK A   2      -6.444   2.944 125.660  0.00  0.00    +0.000 C 
ATOM      5  N   UNK A   2      -5.402   1.964 125.555  0.00  0.00    +0.000 N 
ATOM      6  C   LEU A   1      -5.456   1.001 126.513  0.00  0.00    +0.000 C 
ATOM      7  O   LEU A   1      -5.204  -0.174 126.196  0.00  0.00    +0.000 OA
ATOM      8  CA  LEU A   1      -5.851   1.494 127.936  0.00  0.00    +0.000 C 
ATOM      9  H   UNK A   2      -5.093   1.635 124.647  0.00  0.00    +0.000 HD
ENDROOT
BRANCH   4  10
ATOM     10  C   UNK A   2      -6.547   3.803 124.431  0.00  0.00    +0.000 C 
ATOM     11  C   UNK A   2      -5.193   4.096 123.746  0.00  0.00    +0.000 C 
ATOM     12  C   UNK A   2      -5.632   4.221 122.329  0.00  0.00    +0.000 A 
ATOM     13  C   UNK A   2      -4.920   4.728 121.264  0.00  0.00    +0.000 A 
ATOM     14  C   UNK A   2      -5.529   4.706 120.011  0.00  0.00    +0.000 A 
ATOM     15  C   UNK A   2      -6.805   4.141 119.837  0.00  0.00    +0.000 A 
ATOM     16  C   UNK A   2      -7.494   3.590 120.910  0.00  0.00    +0.000 A 
ATOM     17  C   UNK A   2      -6.902   3.661 122.148  0.00  0.00    +0.000 A 
ATOM     18  C   UNK A   2      -7.452   3.109 123.406  0.00  0.00    +0.000 C 
ENDBRANCH   4  10
BRANCH   1  19
ATOM     19  C   UNK A   0      -5.948   3.748 129.402  0.00  0.00    +0.000 C 
BRANCH  19  23
ATOM     20  C   UNK A   0      -2.453   4.407 133.264  0.00  0.00    +0.000 C 
ATOM     21  C   UNK A   0      -3.157   4.127 131.948  0.00  0.00    +0.000 A 
ATOM     22  N   UNK A   0      -4.303   3.522 131.615  0.00  0.00    +0.000 NA
ATOM     23  C   UNK A   0      -4.562   3.883 130.236  0.00  0.00    +0.000 A 
ATOM     24  C   UNK A   0      -3.399   4.486 129.811  0.00  0.00    +0.000 A 
ATOM     25  C   UNK A   0      -2.921   4.935 128.509  0.00  0.00    +0.000 C 
ATOM     26  O   UNK A   0      -2.560   4.709 130.865  0.00  0.00    +0.000 OA
ENDBRANCH  19  23
BRANCH  19  27
ATOM     27  C   UNK A   0      -7.181   3.315 130.394  0.00  0.00    +0.000 C 
ATOM     28  O   UNK A   0      -6.946   2.380 131.184  0.00  0.00    +0.000 OA
ATOM     29  N   UNK A   0      -8.525   3.775 130.306  0.00  0.00    +0.000 N 
ATOM     30  C   UNK A   0      -9.034   5.029 129.797  0.00  0.00    +0.000 C 
ATOM     31  C   UNK A   0      -9.535   3.143 131.146  0.00  0.00    +0.000 C 
ENDBRANCH  19  27
ENDBRANCH   1  19
BRANCH   8  32
ATOM     32  CB  LEU A   1      -4.839   0.980 128.926  0.00  0.00    +0.000 C 
BRANCH  32  33
ATOM     33  CG  LEU A   1      -4.941  -0.364 129.602  0.00  0.00    +0.000 C 
ATOM     34  CD1 LEU A   1      -4.326  -0.291 131.003  0.00  0.00    +0.000 C 
ATOM     35  CD2 LEU A   1      -6.401  -0.730 129.808  0.00  0.00    +0.000 C 
ENDBRANCH  32  33
ENDBRANCH   8  32
TORSDOF 6
ENDMDL
