MODEL 1
REMARK VINA RESULT:     -11.1      0.000      0.000
REMARK  Name = CHEMBL66931
REMARK  9 active torsions:
REMARK  status: ('A' for Active; 'I' for Inactive)
REMARK    1  A    between atoms: C_1  and  O_2
REMARK    2  A    between atoms: O_2  and  C_3
REMARK    3  A    between atoms: C_5  and  O_6
REMARK    4  A    between atoms: O_6  and  C_7
REMARK    5  A    between atoms: N_10  and  C_11
REMARK    6  A    between atoms: C_11  and  C_12
REMARK    7  A    between atoms: C_18  and  C_19
REMARK    8  A    between atoms: C_27  and  C_28
REMARK    9  A    between atoms: C_33  and  N_34
REMARK                            x       y       z     vdW  Elec       q    Type
REMARK                         _______ _______ _______ _____ _____    ______ ____
ROOT
ATOM      1  C   UNL     1      -5.420   1.498 128.903  0.00  0.00    +0.000 A 
ATOM      2  C   UNL     1      -5.244   1.101 127.506  0.00  0.00    +0.000 A 
ATOM      3  C   UNL     1      -5.700  -0.092 127.057  0.00  0.00    +0.000 A 
ATOM      4  C   UNL     1      -6.046  -0.839 128.122  0.00  0.00    +0.000 A 
ATOM      5  C   UNL     1      -6.471  -0.405 129.390  0.00  0.00    +0.000 A 
ATOM      6  C   UNL     1      -6.116   0.769 129.891  0.00  0.00    +0.000 A 
ENDROOT
BRANCH   6   7
ATOM      7  C   UNL     1      -6.519   0.825 131.389  0.00  0.00    +0.000 C 
ATOM      8  O   UNL     1      -5.891   0.187 132.244  0.00  0.00    +0.000 OA
ATOM      9  N   UNL     1      -7.558   1.671 131.781  0.00  0.00    +0.000 N 
ATOM     10  C   UNL     1      -7.178   2.950 132.450  0.00  0.00    +0.000 C 
ATOM     11  C   UNL     1      -8.365   3.553 133.179  0.00  0.00    +0.000 C 
ATOM     12  C   UNL     1      -9.743   3.917 132.093  0.00  0.00    +0.000 C 
ATOM     13  C   UNL     1      -9.989   2.244 131.679  0.00  0.00    +0.000 C 
ATOM     14  C   UNL     1      -8.787   1.627 130.986  0.00  0.00    +0.000 C 
BRANCH  12  15
ATOM     15  N   UNL     1     -10.421   5.582 131.657  0.00  0.00    +0.000 N 
ATOM     16  C   UNL     1      -9.612   5.446 130.520  0.00  0.00    +0.000 C 
ATOM     17  O   UNL     1      -8.324   5.258 130.490  0.00  0.00    +0.000 OA
ATOM     18  O   UNL     1     -10.266   5.234 129.407  0.00  0.00    +0.000 OA
ATOM     19  C   UNL     1     -10.175   6.513 128.917  0.00  0.00    +0.000 C 
ATOM     20  C   UNL     1     -11.457   6.987 129.436  0.00  0.00    +0.000 A 
ATOM     21  C   UNL     1     -12.082   7.867 128.352  0.00  0.00    +0.000 A 
ATOM     22  C   UNL     1     -12.908   8.926 128.549  0.00  0.00    +0.000 A 
ATOM     23  C   UNL     1     -13.077   9.091 129.906  0.00  0.00    +0.000 A 
ATOM     24  C   UNL     1     -12.416   8.088 131.055  0.00  0.00    +0.000 A 
ATOM     25  C   UNL     1     -11.600   6.775 130.851  0.00  0.00    +0.000 A 
ENDBRANCH  12  15
ENDBRANCH   6   7
BRANCH   1  27
ATOM     26  C   UNL     1      -5.686   3.707 128.816  0.00  0.00    +0.000 C 
ATOM     27  O   UNL     1      -4.776   2.681 129.114  0.00  0.00    +0.000 OA
ENDBRANCH   1  27
BRANCH   3  28
ATOM     28  O   UNL     1      -5.892  -0.527 125.766  0.00  0.00    +0.000 OA
BRANCH  28  29
ATOM     29  C   UNL     1      -7.256  -0.668 125.115  0.00  0.00    +0.000 C 
ATOM     30  C   UNL     1      -7.228  -0.994 123.610  0.00  0.00    +0.000 C 
ATOM     31  C   UNL     1      -6.844   0.253 122.823  0.00  0.00    +0.000 C 
ATOM     32  N   UNL     1      -7.588   1.532 123.248  0.00  0.00    +0.000 NA
ATOM     33  C   UNL     1      -7.979   1.702 124.692  0.00  0.00    +0.000 C 
ATOM     34  C   UNL     1      -8.325   0.418 125.359  0.00  0.00    +0.000 C 
BRANCH  32  35
ATOM     35  C   UNL     1      -6.870   2.750 122.817  0.00  0.00    +0.000 C 
BRANCH  35  36
ATOM     36  C   UNL     1      -7.348   3.430 121.596  0.00  0.00    +0.000 A 
ATOM     37  C   UNL     1      -8.722   3.418 121.296  0.00  0.00    +0.000 A 
ATOM     38  C   UNL     1      -9.122   3.797 120.053  0.00  0.00    +0.000 A 
ATOM     39  C   UNL     1      -8.161   4.371 119.239  0.00  0.00    +0.000 A 
ATOM     40  N   UNL     1      -6.828   4.602 119.633  0.00  0.00    +0.000 N 
ATOM     41  O   UNL     1      -6.058   5.208 118.842  0.00  0.00    +0.000 OA
ATOM     42  C   UNL     1      -6.413   4.128 120.832  0.00  0.00    +0.000 A 
BRANCH  42  43
ATOM     43  C   UNL     1      -5.020   4.378 121.330  0.00  0.00    +0.000 C 
ATOM     44  F   UNL     1      -4.972   4.343 122.703  0.00  0.00    +0.000 F 
ATOM     45  F   UNL     1      -4.150   3.390 120.940  0.00  0.00    +0.000 F 
ATOM     46  F   UNL     1      -4.405   5.533 120.988  0.00  0.00    +0.000 F 
ENDBRANCH  42  43
ENDBRANCH  35  36
ENDBRANCH  32  35
ENDBRANCH  28  29
ENDBRANCH   3  28
TORSDOF 8
ENDMDL
MODEL 2
REMARK VINA RESULT:     -10.8      3.954      9.219
REMARK  Name = CHEMBL66931
REMARK  9 active torsions:
REMARK  status: ('A' for Active; 'I' for Inactive)
REMARK    1  A    between atoms: C_1  and  O_2
REMARK    2  A    between atoms: O_2  and  C_3
REMARK    3  A    between atoms: C_5  and  O_6
REMARK    4  A    between atoms: O_6  and  C_7
REMARK    5  A    between atoms: N_10  and  C_11
REMARK    6  A    between atoms: C_11  and  C_12
REMARK    7  A    between atoms: C_18  and  C_19
REMARK    8  A    between atoms: C_27  and  C_28
REMARK    9  A    between atoms: C_33  and  N_34
REMARK                            x       y       z     vdW  Elec       q    Type
REMARK                         _______ _______ _______ _____ _____    ______ ____
ROOT
ATOM      1  C   UNL     1      -3.871   2.867 130.765  0.00  0.00    +0.000 A 
ATOM      2  C   UNL     1      -3.677   2.778 132.212  0.00  0.00    +0.000 A 
ATOM      3  C   UNL     1      -3.193   3.829 132.916  0.00  0.00    +0.000 A 
ATOM      4  C   UNL     1      -2.726   4.742 132.044  0.00  0.00    +0.000 A 
ATOM      5  C   UNL     1      -3.135   4.968 130.717  0.00  0.00    +0.000 A 
ATOM      6  C   UNL     1      -3.666   4.013 129.968  0.00  0.00    +0.000 A 
ENDROOT
BRANCH   6   7
ATOM      7  C   UNL     1      -3.752   4.508 128.500  0.00  0.00    +0.000 C 
ATOM      8  O   UNL     1      -2.878   5.243 128.021  0.00  0.00    +0.000 OA
ATOM      9  N   UNL     1      -4.793   4.051 127.690  0.00  0.00    +0.000 N 
ATOM     10  C   UNL     1      -4.461   2.996 126.688  0.00  0.00    +0.000 C 
ATOM     11  C   UNL     1      -5.540   2.898 125.626  0.00  0.00    +0.000 C 
ATOM     12  C   UNL     1      -7.152   2.494 126.300  0.00  0.00    +0.000 C 
ATOM     13  C   UNL     1      -7.246   3.970 127.221  0.00  0.00    +0.000 C 
ATOM     14  C   UNL     1      -6.142   4.088 128.256  0.00  0.00    +0.000 C 
BRANCH  12  15
ATOM     15  N   UNL     1      -8.127   0.946 126.030  0.00  0.00    +0.000 N 
ATOM     16  C   UNL     1      -8.525   1.583 124.846  0.00  0.00    +0.000 C 
ATOM     17  O   UNL     1      -9.122   2.735 124.737  0.00  0.00    +0.000 OA
ATOM     18  O   UNL     1      -8.011   1.078 123.755  0.00  0.00    +0.000 OA
ATOM     19  C   UNL     1      -9.120   0.372 123.362  0.00  0.00    +0.000 C 
ATOM     20  C   UNL     1      -8.742  -0.898 123.980  0.00  0.00    +0.000 A 
ATOM     21  C   UNL     1      -9.131  -2.007 123.001  0.00  0.00    +0.000 A 
ATOM     22  C   UNL     1      -9.506  -3.272 123.322  0.00  0.00    +0.000 A 
ATOM     23  C   UNL     1      -9.495  -3.388 124.694  0.00  0.00    +0.000 A 
ATOM     24  C   UNL     1      -9.025  -2.172 125.727  0.00  0.00    +0.000 A 
ATOM     25  C   UNL     1      -8.439  -0.770 125.380  0.00  0.00    +0.000 A 
ENDBRANCH  12  15
ENDBRANCH   6   7
BRANCH   1  27
ATOM     26  C   UNL     1      -4.155   0.739 131.357  0.00  0.00    +0.000 C 
ATOM     27  O   UNL     1      -4.258   1.647 130.293  0.00  0.00    +0.000 OA
ENDBRANCH   1  27
BRANCH   3  28
ATOM     28  O   UNL     1      -3.204   4.054 134.273  0.00  0.00    +0.000 OA
BRANCH  28  29
ATOM     29  C   UNL     1      -4.356   4.710 135.012  0.00  0.00    +0.000 C 
ATOM     30  C   UNL     1      -5.568   3.795 135.274  0.00  0.00    +0.000 C 
ATOM     31  C   UNL     1      -6.348   3.598 133.980  0.00  0.00    +0.000 C 
ATOM     32  N   UNL     1      -6.607   4.891 133.185  0.00  0.00    +0.000 NA
ATOM     33  C   UNL     1      -5.578   5.990 133.228  0.00  0.00    +0.000 C 
ATOM     34  C   UNL     1      -4.875   6.083 134.536  0.00  0.00    +0.000 C 
BRANCH  32  35
ATOM     35  C   UNL     1      -6.922   4.608 131.769  0.00  0.00    +0.000 C 
BRANCH  35  36
ATOM     36  C   UNL     1      -8.239   5.040 131.263  0.00  0.00    +0.000 A 
ATOM     37  C   UNL     1      -8.521   6.414 131.164  0.00  0.00    +0.000 A 
ATOM     38  C   UNL     1      -9.808   6.805 130.963  0.00  0.00    +0.000 A 
ATOM     39  C   UNL     1     -10.719   5.809 130.659  0.00  0.00    +0.000 A 
ATOM     40  N   UNL     1     -10.384   4.446 130.523  0.00  0.00    +0.000 N 
ATOM     41  O   UNL     1     -11.276   3.635 130.160  0.00  0.00    +0.000 OA
ATOM     42  C   UNL     1      -9.123   4.054 130.825  0.00  0.00    +0.000 A 
BRANCH  42  43
ATOM     43  C   UNL     1      -8.690   2.627 130.659  0.00  0.00    +0.000 C 
ATOM     44  F   UNL     1      -9.363   1.801 131.526  0.00  0.00    +0.000 F 
ATOM     45  F   UNL     1      -9.005   2.136 129.416  0.00  0.00    +0.000 F 
ATOM     46  F   UNL     1      -7.383   2.321 130.828  0.00  0.00    +0.000 F 
ENDBRANCH  42  43
ENDBRANCH  35  36
ENDBRANCH  32  35
ENDBRANCH  28  29
ENDBRANCH   3  28
TORSDOF 8
ENDMDL
MODEL 3
REMARK VINA RESULT:     -10.6      5.073      8.477
REMARK  Name = CHEMBL66931
REMARK  9 active torsions:
REMARK  status: ('A' for Active; 'I' for Inactive)
REMARK    1  A    between atoms: C_1  and  O_2
REMARK    2  A    between atoms: O_2  and  C_3
REMARK    3  A    between atoms: C_5  and  O_6
REMARK    4  A    between atoms: O_6  and  C_7
REMARK    5  A    between atoms: N_10  and  C_11
REMARK    6  A    between atoms: C_11  and  C_12
REMARK    7  A    between atoms: C_18  and  C_19
REMARK    8  A    between atoms: C_27  and  C_28
REMARK    9  A    between atoms: C_33  and  N_34
REMARK                            x       y       z     vdW  Elec       q    Type
REMARK                         _______ _______ _______ _____ _____    ______ ____
ROOT
ATOM      1  C   UNL     1      -7.907   2.077 125.664  0.00  0.00    +0.000 A 
ATOM      2  C   UNL     1      -8.879   1.021 125.388  0.00  0.00    +0.000 A 
ATOM      3  C   UNL     1      -8.854   0.340 124.218  0.00  0.00    +0.000 A 
ATOM      4  C   UNL     1      -8.022   0.978 123.375  0.00  0.00    +0.000 A 
ATOM      5  C   UNL     1      -6.916   1.789 123.690  0.00  0.00    +0.000 A 
ATOM      6  C   UNL     1      -6.830   2.454 124.833  0.00  0.00    +0.000 A 
ENDROOT
BRANCH   6   7
ATOM      7  C   UNL     1      -5.641   3.448 124.754  0.00  0.00    +0.000 C 
ATOM      8  O   UNL     1      -5.424   4.104 123.727  0.00  0.00    +0.000 OA
ATOM      9  N   UNL     1      -4.856   3.658 125.889  0.00  0.00    +0.000 N 
ATOM     10  C   UNL     1      -5.086   4.920 126.651  0.00  0.00    +0.000 C 
ATOM     11  C   UNL     1      -3.921   5.214 127.578  0.00  0.00    +0.000 C 
ATOM     12  C   UNL     1      -3.639   3.917 128.782  0.00  0.00    +0.000 C 
ATOM     13  C   UNL     1      -3.248   2.735 127.565  0.00  0.00    +0.000 C 
ATOM     14  C   UNL     1      -4.400   2.469 126.611  0.00  0.00    +0.000 C 
BRANCH  12  15
ATOM     15  N   UNL     1      -3.847   4.023 130.617  0.00  0.00    +0.000 N 
ATOM     16  C   UNL     1      -5.030   3.312 130.372  0.00  0.00    +0.000 C 
ATOM     17  O   UNL     1      -6.016   3.670 129.601  0.00  0.00    +0.000 OA
ATOM     18  O   UNL     1      -5.007   2.063 130.761  0.00  0.00    +0.000 OA
ATOM     19  C   UNL     1      -5.735   2.236 131.912  0.00  0.00    +0.000 C 
ATOM     20  C   UNL     1      -4.594   2.408 132.811  0.00  0.00    +0.000 A 
ATOM     21  C   UNL     1      -4.926   1.660 134.103  0.00  0.00    +0.000 A 
ATOM     22  C   UNL     1      -4.500   1.979 135.352  0.00  0.00    +0.000 A 
ATOM     23  C   UNL     1      -3.726   3.114 135.264  0.00  0.00    +0.000 A 
ATOM     24  C   UNL     1      -3.351   3.877 133.835  0.00  0.00    +0.000 A 
ATOM     25  C   UNL     1      -3.692   3.440 132.378  0.00  0.00    +0.000 A 
ENDBRANCH  12  15
ENDBRANCH   6   7
BRANCH   1  27
ATOM     26  C   UNL     1      -8.302   1.655 127.815  0.00  0.00    +0.000 C 
ATOM     27  O   UNL     1      -8.221   2.672 126.851  0.00  0.00    +0.000 OA
ENDBRANCH   1  27
BRANCH   3  28
ATOM     28  O   UNL     1      -9.468  -0.844 123.880  0.00  0.00    +0.000 OA
BRANCH  28  29
ATOM     29  C   UNL     1      -8.740  -2.171 123.763  0.00  0.00    +0.000 C 
ATOM     30  C   UNL     1      -9.237  -3.273 124.717  0.00  0.00    +0.000 C 
ATOM     31  C   UNL     1      -8.744  -2.987 126.130  0.00  0.00    +0.000 C 
ATOM     32  N   UNL     1      -7.256  -2.600 126.222  0.00  0.00    +0.000 NA
ATOM     33  C   UNL     1      -6.632  -1.832 125.088  0.00  0.00    +0.000 C 
ATOM     34  C   UNL     1      -7.197  -2.188 123.759  0.00  0.00    +0.000 C 
BRANCH  32  35
ATOM     35  C   UNL     1      -6.954  -1.890 127.483  0.00  0.00    +0.000 C 
BRANCH  35  36
ATOM     36  C   UNL     1      -6.011  -2.532 128.420  0.00  0.00    +0.000 A 
ATOM     37  C   UNL     1      -4.634  -2.507 128.134  0.00  0.00    +0.000 A 
ATOM     38  C   UNL     1      -3.805  -3.322 128.840  0.00  0.00    +0.000 A 
ATOM     39  C   UNL     1      -4.352  -3.965 129.937  0.00  0.00    +0.000 A 
ATOM     40  N   UNL     1      -5.685  -3.800 130.365  0.00  0.00    +0.000 N 
ATOM     41  O   UNL     1      -6.055  -4.368 131.427  0.00  0.00    +0.000 OA
ATOM     42  C   UNL     1      -6.529  -3.069 129.599  0.00  0.00    +0.000 A 
BRANCH  42  43
ATOM     43  C   UNL     1      -7.946  -2.819 130.020  0.00  0.00    +0.000 C 
ATOM     44  F   UNL     1      -8.117  -3.077 131.359  0.00  0.00    +0.000 F 
ATOM     45  F   UNL     1      -8.296  -1.498 129.888  0.00  0.00    +0.000 F 
ATOM     46  F   UNL     1      -8.938  -3.501 129.403  0.00  0.00    +0.000 F 
ENDBRANCH  42  43
ENDBRANCH  35  36
ENDBRANCH  32  35
ENDBRANCH  28  29
ENDBRANCH   3  28
TORSDOF 8
ENDMDL
MODEL 4
REMARK VINA RESULT:     -10.6      3.927      7.404
REMARK  Name = CHEMBL66931
REMARK  9 active torsions:
REMARK  status: ('A' for Active; 'I' for Inactive)
REMARK    1  A    between atoms: C_1  and  O_2
REMARK    2  A    between atoms: O_2  and  C_3
REMARK    3  A    between atoms: C_5  and  O_6
REMARK    4  A    between atoms: O_6  and  C_7
REMARK    5  A    between atoms: N_10  and  C_11
REMARK    6  A    between atoms: C_11  and  C_12
REMARK    7  A    between atoms: C_18  and  C_19
REMARK    8  A    between atoms: C_27  and  C_28
REMARK    9  A    between atoms: C_33  and  N_34
REMARK                            x       y       z     vdW  Elec       q    Type
REMARK                         _______ _______ _______ _____ _____    ______ ____
ROOT
ATOM      1  C   UNL     1      -7.477   4.282 126.331  0.00  0.00    +0.000 A 
ATOM      2  C   UNL     1      -8.311   3.733 125.263  0.00  0.00    +0.000 A 
ATOM      3  C   UNL     1      -7.760   3.068 124.220  0.00  0.00    +0.000 A 
ATOM      4  C   UNL     1      -6.429   3.262 124.252  0.00  0.00    +0.000 A 
ATOM      5  C   UNL     1      -5.614   3.533 125.366  0.00  0.00    +0.000 A 
ATOM      6  C   UNL     1      -6.078   4.134 126.452  0.00  0.00    +0.000 A 
ENDROOT
BRANCH   6   7
ATOM      7  C   UNL     1      -4.886   4.523 127.366  0.00  0.00    +0.000 C 
ATOM      8  O   UNL     1      -4.231   5.552 127.159  0.00  0.00    +0.000 OA
ATOM      9  N   UNL     1      -4.604   3.735 128.483  0.00  0.00    +0.000 N 
ATOM     10  C   UNL     1      -5.024   4.266 129.813  0.00  0.00    +0.000 C 
ATOM     11  C   UNL     1      -4.306   3.544 130.937  0.00  0.00    +0.000 C 
ATOM     12  C   UNL     1      -4.624   1.779 130.952  0.00  0.00    +0.000 C 
ATOM     13  C   UNL     1      -3.869   1.530 129.402  0.00  0.00    +0.000 C 
ATOM     14  C   UNL     1      -4.562   2.286 128.282  0.00  0.00    +0.000 C 
BRANCH  12  15
ATOM     15  N   UNL     1      -5.535   0.812 132.238  0.00  0.00    +0.000 N 
ATOM     16  C   UNL     1      -6.489   0.651 131.223  0.00  0.00    +0.000 C 
ATOM     17  O   UNL     1      -7.114   1.591 130.575  0.00  0.00    +0.000 OA
ATOM     18  O   UNL     1      -6.551  -0.555 130.720  0.00  0.00    +0.000 OA
ATOM     19  C   UNL     1      -7.678  -0.957 131.392  0.00  0.00    +0.000 C 
ATOM     20  C   UNL     1      -6.990  -1.594 132.515  0.00  0.00    +0.000 A 
ATOM     21  C   UNL     1      -7.757  -2.875 132.842  0.00  0.00    +0.000 A 
ATOM     22  C   UNL     1      -7.870  -3.459 134.062  0.00  0.00    +0.000 A 
ATOM     23  C   UNL     1      -7.186  -2.685 134.973  0.00  0.00    +0.000 A 
ATOM     24  C   UNL     1      -6.326  -1.319 134.573  0.00  0.00    +0.000 A 
ATOM     25  C   UNL     1      -6.048  -0.721 133.161  0.00  0.00    +0.000 A 
ENDBRANCH  12  15
ENDBRANCH   6   7
BRANCH   1  27
ATOM     26  C   UNL     1      -8.327   4.268 128.389  0.00  0.00    +0.000 C 
ATOM     27  O   UNL     1      -8.263   4.993 127.189  0.00  0.00    +0.000 OA
ENDBRANCH   1  27
BRANCH   3  28
ATOM     28  O   UNL     1      -8.357   2.249 123.290  0.00  0.00    +0.000 OA
BRANCH  28  29
ATOM     29  C   UNL     1      -9.740   1.646 123.456  0.00  0.00    +0.000 C 
ATOM     30  C   UNL     1     -10.093   1.211 124.890  0.00  0.00    +0.000 C 
ATOM     31  C   UNL     1      -9.356  -0.077 125.231  0.00  0.00    +0.000 C 
ATOM     32  N   UNL     1      -9.419  -1.159 124.136  0.00  0.00    +0.000 NA
ATOM     33  C   UNL     1      -9.466  -0.733 122.693  0.00  0.00    +0.000 C 
ATOM     34  C   UNL     1     -10.204   0.541 122.483  0.00  0.00    +0.000 C 
BRANCH  32  35
ATOM     35  C   UNL     1      -8.337  -2.155 124.290  0.00  0.00    +0.000 C 
BRANCH  35  36
ATOM     36  C   UNL     1      -7.913  -2.497 125.661  0.00  0.00    +0.000 A 
ATOM     37  C   UNL     1      -8.721  -3.344 126.440  0.00  0.00    +0.000 A 
ATOM     38  C   UNL     1      -8.477  -3.436 127.775  0.00  0.00    +0.000 A 
ATOM     39  C   UNL     1      -7.310  -2.849 128.234  0.00  0.00    +0.000 A 
ATOM     40  N   UNL     1      -6.374  -2.199 127.405  0.00  0.00    +0.000 N 
ATOM     41  O   UNL     1      -5.304  -1.773 127.916  0.00  0.00    +0.000 OA
ATOM     42  C   UNL     1      -6.675  -2.023 126.096  0.00  0.00    +0.000 A 
BRANCH  42  43
ATOM     43  C   UNL     1      -5.703  -1.380 125.151  0.00  0.00    +0.000 C 
ATOM     44  F   UNL     1      -4.993  -2.327 124.453  0.00  0.00    +0.000 F 
ATOM     45  F   UNL     1      -6.339  -0.653 124.177  0.00  0.00    +0.000 F 
ATOM     46  F   UNL     1      -4.768  -0.541 125.653  0.00  0.00    +0.000 F 
ENDBRANCH  42  43
ENDBRANCH  35  36
ENDBRANCH  32  35
ENDBRANCH  28  29
ENDBRANCH   3  28
TORSDOF 8
ENDMDL
MODEL 5
REMARK VINA RESULT:     -10.4      4.925      6.320
REMARK  Name = CHEMBL66931
REMARK  9 active torsions:
REMARK  status: ('A' for Active; 'I' for Inactive)
REMARK    1  A    between atoms: C_1  and  O_2
REMARK    2  A    between atoms: O_2  and  C_3
REMARK    3  A    between atoms: C_5  and  O_6
REMARK    4  A    between atoms: O_6  and  C_7
REMARK    5  A    between atoms: N_10  and  C_11
REMARK    6  A    between atoms: C_11  and  C_12
REMARK    7  A    between atoms: C_18  and  C_19
REMARK    8  A    between atoms: C_27  and  C_28
REMARK    9  A    between atoms: C_33  and  N_34
REMARK                            x       y       z     vdW  Elec       q    Type
REMARK                         _______ _______ _______ _____ _____    ______ ____
ROOT
ATOM      1  C   UNL     1      -6.617  -2.348 128.708  0.00  0.00    +0.000 A 
ATOM      2  C   UNL     1      -7.135  -2.474 127.347  0.00  0.00    +0.000 A 
ATOM      3  C   UNL     1      -8.346  -3.031 127.111  0.00  0.00    +0.000 A 
ATOM      4  C   UNL     1      -8.769  -3.620 128.245  0.00  0.00    +0.000 A 
ATOM      5  C   UNL     1      -8.442  -3.289 129.572  0.00  0.00    +0.000 A 
ATOM      6  C   UNL     1      -7.301  -2.696 129.893  0.00  0.00    +0.000 A 
ENDROOT
BRANCH   6   7
ATOM      7  C   UNL     1      -7.133  -2.718 131.435  0.00  0.00    +0.000 C 
ATOM      8  O   UNL     1      -7.461  -3.710 132.100  0.00  0.00    +0.000 OA
ATOM      9  N   UNL     1      -6.530  -1.630 132.068  0.00  0.00    +0.000 N 
ATOM     10  C   UNL     1      -5.114  -1.798 132.508  0.00  0.00    +0.000 C 
ATOM     11  C   UNL     1      -4.732  -0.736 133.521  0.00  0.00    +0.000 C 
ATOM     12  C   UNL     1      -4.888   0.932 132.881  0.00  0.00    +0.000 C 
ATOM     13  C   UNL     1      -6.611   0.795 132.668  0.00  0.00    +0.000 C 
ATOM     14  C   UNL     1      -6.997  -0.296 131.685  0.00  0.00    +0.000 C 
BRANCH  12  15
ATOM     15  N   UNL     1      -3.529   2.145 132.565  0.00  0.00    +0.000 N 
ATOM     16  C   UNL     1      -3.995   2.092 131.244  0.00  0.00    +0.000 C 
ATOM     17  O   UNL     1      -4.091   1.037 130.487  0.00  0.00    +0.000 OA
ATOM     18  O   UNL     1      -4.624   3.167 130.843  0.00  0.00    +0.000 OA
ATOM     19  C   UNL     1      -3.592   3.700 130.112  0.00  0.00    +0.000 C 
ATOM     20  C   UNL     1      -3.058   4.557 131.170  0.00  0.00    +0.000 A 
ATOM     21  C   UNL     1      -2.655   5.879 130.515  0.00  0.00    +0.000 A 
ATOM     22  C   UNL     1      -1.653   6.704 130.914  0.00  0.00    +0.000 A 
ATOM     23  C   UNL     1      -1.040   6.137 132.008  0.00  0.00    +0.000 A 
ATOM     24  C   UNL     1      -1.533   4.717 132.721  0.00  0.00    +0.000 A 
ATOM     25  C   UNL     1      -2.775   3.837 132.383  0.00  0.00    +0.000 A 
ENDBRANCH  12  15
ENDBRANCH   6   7
BRANCH   1  27
ATOM     26  C   UNL     1      -4.478  -2.947 128.864  0.00  0.00    +0.000 C 
ATOM     27  O   UNL     1      -5.344  -1.862 128.657  0.00  0.00    +0.000 OA
ENDBRANCH   1  27
BRANCH   3  28
ATOM     28  O   UNL     1      -9.125  -2.988 125.977  0.00  0.00    +0.000 OA
BRANCH  28  29
ATOM     29  C   UNL     1      -8.703  -3.564 124.638  0.00  0.00    +0.000 C 
ATOM     30  C   UNL     1      -7.181  -3.642 124.412  0.00  0.00    +0.000 C 
ATOM     31  C   UNL     1      -6.635  -2.249 124.124  0.00  0.00    +0.000 C 
ATOM     32  N   UNL     1      -7.453  -1.440 123.101  0.00  0.00    +0.000 NA
ATOM     33  C   UNL     1      -8.945  -1.639 123.040  0.00  0.00    +0.000 C 
ATOM     34  C   UNL     1      -9.361  -3.034 123.346  0.00  0.00    +0.000 C 
BRANCH  32  35
ATOM     35  C   UNL     1      -7.185   0.010 123.211  0.00  0.00    +0.000 C 
BRANCH  35  36
ATOM     36  C   UNL     1      -6.914   0.555 124.556  0.00  0.00    +0.000 A 
ATOM     37  C   UNL     1      -5.655   0.339 125.144  0.00  0.00    +0.000 A 
ATOM     38  C   UNL     1      -5.500   0.596 126.471  0.00  0.00    +0.000 A 
ATOM     39  C   UNL     1      -6.541   1.256 127.101  0.00  0.00    +0.000 A 
ATOM     40  N   UNL     1      -7.713   1.687 126.447  0.00  0.00    +0.000 N 
ATOM     41  O   UNL     1      -8.560   2.353 127.099  0.00  0.00    +0.000 OA
ATOM     42  C   UNL     1      -7.903   1.336 125.153  0.00  0.00    +0.000 A 
BRANCH  42  43
ATOM     43  C   UNL     1      -9.107   1.800 124.387  0.00  0.00    +0.000 C 
ATOM     44  F   UNL     1      -9.291   3.154 124.528  0.00  0.00    +0.000 F 
ATOM     45  F   UNL     1      -8.956   1.622 123.035  0.00  0.00    +0.000 F 
ATOM     46  F   UNL     1     -10.310   1.252 124.674  0.00  0.00    +0.000 F 
ENDBRANCH  42  43
ENDBRANCH  35  36
ENDBRANCH  32  35
ENDBRANCH  28  29
ENDBRANCH   3  28
TORSDOF 8
ENDMDL
MODEL 6
REMARK VINA RESULT:     -10.4      4.959      6.298
REMARK  Name = CHEMBL66931
REMARK  9 active torsions:
REMARK  status: ('A' for Active; 'I' for Inactive)
REMARK    1  A    between atoms: C_1  and  O_2
REMARK    2  A    between atoms: O_2  and  C_3
REMARK    3  A    between atoms: C_5  and  O_6
REMARK    4  A    between atoms: O_6  and  C_7
REMARK    5  A    between atoms: N_10  and  C_11
REMARK    6  A    between atoms: C_11  and  C_12
REMARK    7  A    between atoms: C_18  and  C_19
REMARK    8  A    between atoms: C_27  and  C_28
REMARK    9  A    between atoms: C_33  and  N_34
REMARK                            x       y       z     vdW  Elec       q    Type
REMARK                         _______ _______ _______ _____ _____    ______ ____
ROOT
ATOM      1  C   UNL     1      -5.434   1.361 131.557  0.00  0.00    +0.000 A 
ATOM      2  C   UNL     1      -5.573  -0.095 131.516  0.00  0.00    +0.000 A 
ATOM      3  C   UNL     1      -4.739  -0.894 132.222  0.00  0.00    +0.000 A 
ATOM      4  C   UNL     1      -3.717  -0.144 132.674  0.00  0.00    +0.000 A 
ATOM      5  C   UNL     1      -3.706   1.234 132.956  0.00  0.00    +0.000 A 
ATOM      6  C   UNL     1      -4.520   2.086 132.351  0.00  0.00    +0.000 A 
ENDROOT
BRANCH   6   7
ATOM      7  C   UNL     1      -4.074   3.535 132.679  0.00  0.00    +0.000 C 
ATOM      8  O   UNL     1      -2.925   3.777 133.072  0.00  0.00    +0.000 OA
ATOM      9  N   UNL     1      -4.964   4.587 132.452  0.00  0.00    +0.000 N 
ATOM     10  C   UNL     1      -4.730   5.425 131.240  0.00  0.00    +0.000 C 
ATOM     11  C   UNL     1      -5.481   6.740 131.337  0.00  0.00    +0.000 C 
ATOM     12  C   UNL     1      -7.254   6.525 131.494  0.00  0.00    +0.000 C 
ATOM     13  C   UNL     1      -7.119   5.712 133.028  0.00  0.00    +0.000 C 
ATOM     14  C   UNL     1      -6.333   4.416 132.940  0.00  0.00    +0.000 C 
BRANCH  12  15
ATOM     15  N   UNL     1      -8.556   7.005 130.272  0.00  0.00    +0.000 N 
ATOM     16  C   UNL     1      -8.906   5.650 130.340  0.00  0.00    +0.000 C 
ATOM     17  O   UNL     1      -8.141   4.627 130.083  0.00  0.00    +0.000 OA
ATOM     18  O   UNL     1     -10.027   5.406 130.969  0.00  0.00    +0.000 OA
ATOM     19  C   UNL     1     -10.802   5.213 129.853  0.00  0.00    +0.000 C 
ATOM     20  C   UNL     1     -11.300   6.584 129.751  0.00  0.00    +0.000 A 
ATOM     21  C   UNL     1     -12.776   6.497 129.358  0.00  0.00    +0.000 A 
ATOM     22  C   UNL     1     -13.470   7.403 128.624  0.00  0.00    +0.000 A 
ATOM     23  C   UNL     1     -12.610   8.419 128.270  0.00  0.00    +0.000 A 
ATOM     24  C   UNL     1     -11.020   8.502 128.752  0.00  0.00    +0.000 A 
ATOM     25  C   UNL     1     -10.246   7.561 129.725  0.00  0.00    +0.000 A 
ENDBRANCH  12  15
ENDBRANCH   6   7
BRANCH   1  27
ATOM     26  C   UNL     1      -5.654   2.039 129.448  0.00  0.00    +0.000 C 
ATOM     27  O   UNL     1      -6.317   1.917 130.678  0.00  0.00    +0.000 OA
ENDBRANCH   1  27
BRANCH   3  28
ATOM     28  O   UNL     1      -4.866  -2.225 132.545  0.00  0.00    +0.000 OA
BRANCH  28  29
ATOM     29  C   UNL     1      -4.365  -3.361 131.671  0.00  0.00    +0.000 C 
ATOM     30  C   UNL     1      -3.420  -2.937 130.531  0.00  0.00    +0.000 C 
ATOM     31  C   UNL     1      -4.223  -2.272 129.421  0.00  0.00    +0.000 C 
ATOM     32  N   UNL     1      -5.507  -3.023 129.022  0.00  0.00    +0.000 NA
ATOM     33  C   UNL     1      -6.261  -3.788 130.077  0.00  0.00    +0.000 C 
ATOM     34  C   UNL     1      -5.375  -4.385 131.112  0.00  0.00    +0.000 C 
BRANCH  32  35
ATOM     35  C   UNL     1      -6.461  -2.139 128.321  0.00  0.00    +0.000 C 
BRANCH  35  36
ATOM     36  C   UNL     1      -6.649  -2.347 126.872  0.00  0.00    +0.000 A 
ATOM     37  C   UNL     1      -5.602  -2.023 125.989  0.00  0.00    +0.000 A 
ATOM     38  C   UNL     1      -5.868  -1.955 124.657  0.00  0.00    +0.000 A 
ATOM     39  C   UNL     1      -7.105  -2.419 124.246  0.00  0.00    +0.000 A 
ATOM     40  N   UNL     1      -8.070  -2.970 125.114  0.00  0.00    +0.000 N 
ATOM     41  O   UNL     1      -9.130  -3.439 124.622  0.00  0.00    +0.000 OA
ATOM     42  C   UNL     1      -7.839  -2.939 126.448  0.00  0.00    +0.000 A 
BRANCH  42  43
ATOM     43  C   UNL     1      -8.804  -3.548 127.421  0.00  0.00    +0.000 C 
ATOM     44  F   UNL     1     -10.070  -3.606 126.892  0.00  0.00    +0.000 F 
ATOM     45  F   UNL     1      -8.497  -4.856 127.699  0.00  0.00    +0.000 F 
ATOM     46  F   UNL     1      -8.958  -2.966 128.633  0.00  0.00    +0.000 F 
ENDBRANCH  42  43
ENDBRANCH  35  36
ENDBRANCH  32  35
ENDBRANCH  28  29
ENDBRANCH   3  28
TORSDOF 8
ENDMDL
MODEL 7
REMARK VINA RESULT:     -10.4      1.930      2.910
REMARK  Name = CHEMBL66931
REMARK  9 active torsions:
REMARK  status: ('A' for Active; 'I' for Inactive)
REMARK    1  A    between atoms: C_1  and  O_2
REMARK    2  A    between atoms: O_2  and  C_3
REMARK    3  A    between atoms: C_5  and  O_6
REMARK    4  A    between atoms: O_6  and  C_7
REMARK    5  A    between atoms: N_10  and  C_11
REMARK    6  A    between atoms: C_11  and  C_12
REMARK    7  A    between atoms: C_18  and  C_19
REMARK    8  A    between atoms: C_27  and  C_28
REMARK    9  A    between atoms: C_33  and  N_34
REMARK                            x       y       z     vdW  Elec       q    Type
REMARK                         _______ _______ _______ _____ _____    ______ ____
ROOT
ATOM      1  C   UNL     1      -6.113  -1.820 129.280  0.00  0.00    +0.000 A 
ATOM      2  C   UNL     1      -6.314  -2.548 128.028  0.00  0.00    +0.000 A 
ATOM      3  C   UNL     1      -5.991  -1.990 126.838  0.00  0.00    +0.000 A 
ATOM      4  C   UNL     1      -5.748  -0.681 127.037  0.00  0.00    +0.000 A 
ATOM      5  C   UNL     1      -5.294  -0.048 128.208  0.00  0.00    +0.000 A 
ATOM      6  C   UNL     1      -5.520  -0.547 129.415  0.00  0.00    +0.000 A 
ENDROOT
BRANCH   6   7
ATOM      7  C   UNL     1      -5.135   0.511 130.482  0.00  0.00    +0.000 C 
ATOM      8  O   UNL     1      -4.051   0.453 131.079  0.00  0.00    +0.000 OA
ATOM      9  N   UNL     1      -5.994   1.587 130.713  0.00  0.00    +0.000 N 
ATOM     10  C   UNL     1      -5.606   2.904 130.129  0.00  0.00    +0.000 C 
ATOM     11  C   UNL     1      -6.374   4.036 130.787  0.00  0.00    +0.000 C 
ATOM     12  C   UNL     1      -8.150   3.880 130.598  0.00  0.00    +0.000 C 
ATOM     13  C   UNL     1      -8.218   2.400 131.514  0.00  0.00    +0.000 C 
ATOM     14  C   UNL     1      -7.416   1.278 130.878  0.00  0.00    +0.000 C 
BRANCH  12  15
ATOM     15  N   UNL     1      -9.279   4.987 129.640  0.00  0.00    +0.000 N 
ATOM     16  C   UNL     1     -10.236   4.571 130.577  0.00  0.00    +0.000 C 
ATOM     17  O   UNL     1     -10.609   3.349 130.829  0.00  0.00    +0.000 OA
ATOM     18  O   UNL     1     -10.584   5.486 131.445  0.00  0.00    +0.000 OA
ATOM     19  C   UNL     1     -11.780   5.820 130.860  0.00  0.00    +0.000 C 
ATOM     20  C   UNL     1     -11.276   6.940 130.066  0.00  0.00    +0.000 A 
ATOM     21  C   UNL     1     -12.334   8.043 130.125  0.00  0.00    +0.000 A 
ATOM     22  C   UNL     1     -12.594   8.963 129.161  0.00  0.00    +0.000 A 
ATOM     23  C   UNL     1     -11.751   8.724 128.100  0.00  0.00    +0.000 A 
ATOM     24  C   UNL     1     -10.582   7.541 128.088  0.00  0.00    +0.000 A 
ATOM     25  C   UNL     1     -10.156   6.580 129.240  0.00  0.00    +0.000 A 
ENDBRANCH  12  15
ENDBRANCH   6   7
BRANCH   1  27
ATOM     26  C   UNL     1      -6.161  -3.872 130.143  0.00  0.00    +0.000 C 
ATOM     27  O   UNL     1      -6.621  -2.557 130.310  0.00  0.00    +0.000 OA
ENDBRANCH   1  27
BRANCH   3  28
ATOM     28  O   UNL     1      -5.831  -2.582 125.606  0.00  0.00    +0.000 OA
BRANCH  28  29
ATOM     29  C   UNL     1      -6.969  -2.835 124.634  0.00  0.00    +0.000 C 
ATOM     30  C   UNL     1      -6.793  -2.197 123.244  0.00  0.00    +0.000 C 
ATOM     31  C   UNL     1      -7.039  -0.697 123.334  0.00  0.00    +0.000 C 
ATOM     32  N   UNL     1      -8.297  -0.301 124.130  0.00  0.00    +0.000 NA
ATOM     33  C   UNL     1      -8.721  -1.158 125.294  0.00  0.00    +0.000 C 
ATOM     34  C   UNL     1      -8.423  -2.601 125.097  0.00  0.00    +0.000 C 
BRANCH  32  35
ATOM     35  C   UNL     1      -8.235   1.103 124.587  0.00  0.00    +0.000 C 
BRANCH  35  36
ATOM     36  C   UNL     1      -8.003   2.144 123.567  0.00  0.00    +0.000 A 
ATOM     37  C   UNL     1      -8.981   2.370 122.581  0.00  0.00    +0.000 A 
ATOM     38  C   UNL     1      -8.654   3.123 121.496  0.00  0.00    +0.000 A 
ATOM     39  C   UNL     1      -7.443   3.790 121.546  0.00  0.00    +0.000 A 
ATOM     40  N   UNL     1      -6.565   3.752 122.649  0.00  0.00    +0.000 N 
ATOM     41  O   UNL     1      -5.527   4.465 122.622  0.00  0.00    +0.000 OA
ATOM     42  C   UNL     1      -6.849   2.920 123.678  0.00  0.00    +0.000 A 
BRANCH  42  43
ATOM     43  C   UNL     1      -5.980   2.864 124.900  0.00  0.00    +0.000 C 
ATOM     44  F   UNL     1      -6.709   3.114 126.037  0.00  0.00    +0.000 F 
ATOM     45  F   UNL     1      -5.461   1.611 125.104  0.00  0.00    +0.000 F 
ATOM     46  F   UNL     1      -4.916   3.695 124.978  0.00  0.00    +0.000 F 
ENDBRANCH  42  43
ENDBRANCH  35  36
ENDBRANCH  32  35
ENDBRANCH  28  29
ENDBRANCH   3  28
TORSDOF 8
ENDMDL
MODEL 8
REMARK VINA RESULT:     -10.3      4.684      8.974
REMARK  Name = CHEMBL66931
REMARK  9 active torsions:
REMARK  status: ('A' for Active; 'I' for Inactive)
REMARK    1  A    between atoms: C_1  and  O_2
REMARK    2  A    between atoms: O_2  and  C_3
REMARK    3  A    between atoms: C_5  and  O_6
REMARK    4  A    between atoms: O_6  and  C_7
REMARK    5  A    between atoms: N_10  and  C_11
REMARK    6  A    between atoms: C_11  and  C_12
REMARK    7  A    between atoms: C_18  and  C_19
REMARK    8  A    between atoms: C_27  and  C_28
REMARK    9  A    between atoms: C_33  and  N_34
REMARK                            x       y       z     vdW  Elec       q    Type
REMARK                         _______ _______ _______ _____ _____    ______ ____
ROOT
ATOM      1  C   UNL     1      -4.922   1.499 131.903  0.00  0.00    +0.000 A 
ATOM      2  C   UNL     1      -4.153   2.739 131.821  0.00  0.00    +0.000 A 
ATOM      3  C   UNL     1      -3.015   2.902 132.536  0.00  0.00    +0.000 A 
ATOM      4  C   UNL     1      -2.933   1.902 133.433  0.00  0.00    +0.000 A 
ATOM      5  C   UNL     1      -3.480   0.609 133.348  0.00  0.00    +0.000 A 
ATOM      6  C   UNL     1      -4.563   0.345 132.632  0.00  0.00    +0.000 A 
ENDROOT
BRANCH   6   7
ATOM      7  C   UNL     1      -5.055  -1.089 132.964  0.00  0.00    +0.000 C 
ATOM      8  O   UNL     1      -5.070  -1.506 134.130  0.00  0.00    +0.000 OA
ATOM      9  N   UNL     1      -5.558  -1.888 131.936  0.00  0.00    +0.000 N 
ATOM     10  C   UNL     1      -7.040  -2.041 131.858  0.00  0.00    +0.000 C 
ATOM     11  C   UNL     1      -7.418  -3.230 130.994  0.00  0.00    +0.000 C 
ATOM     12  C   UNL     1      -6.814  -3.093 129.311  0.00  0.00    +0.000 C 
ATOM     13  C   UNL     1      -5.144  -3.123 129.803  0.00  0.00    +0.000 C 
ATOM     14  C   UNL     1      -4.774  -1.956 130.702  0.00  0.00    +0.000 C 
BRANCH  12  15
ATOM     15  N   UNL     1      -7.818  -2.906 127.769  0.00  0.00    +0.000 N 
ATOM     16  C   UNL     1      -7.161  -1.672 127.672  0.00  0.00    +0.000 C 
ATOM     17  O   UNL     1      -7.162  -0.710 128.550  0.00  0.00    +0.000 OA
ATOM     18  O   UNL     1      -6.263  -1.604 126.723  0.00  0.00    +0.000 OA
ATOM     19  C   UNL     1      -7.025  -0.899 125.825  0.00  0.00    +0.000 C 
ATOM     20  C   UNL     1      -7.536  -2.055 125.090  0.00  0.00    +0.000 A 
ATOM     21  C   UNL     1      -7.540  -1.677 123.608  0.00  0.00    +0.000 A 
ATOM     22  C   UNL     1      -8.399  -2.134 122.661  0.00  0.00    +0.000 A 
ATOM     23  C   UNL     1      -9.291  -2.990 123.268  0.00  0.00    +0.000 A 
ATOM     24  C   UNL     1      -9.230  -3.412 124.875  0.00  0.00    +0.000 A 
ATOM     25  C   UNL     1      -8.160  -3.029 125.944  0.00  0.00    +0.000 A 
ENDBRANCH  12  15
ENDBRANCH   6   7
BRANCH   1  27
ATOM     26  C   UNL     1      -7.114   1.844 132.095  0.00  0.00    +0.000 C 
ATOM     27  O   UNL     1      -6.070   1.638 131.180  0.00  0.00    +0.000 OA
ENDBRANCH   1  27
BRANCH   3  28
ATOM     28  O   UNL     1      -2.017   3.838 132.393  0.00  0.00    +0.000 OA
BRANCH  28  29
ATOM     29  C   UNL     1      -1.833   5.028 133.318  0.00  0.00    +0.000 C 
ATOM     30  C   UNL     1      -3.118   5.516 134.015  0.00  0.00    +0.000 C 
ATOM     31  C   UNL     1      -3.987   6.269 133.016  0.00  0.00    +0.000 C 
ATOM     32  N   UNL     1      -3.227   7.293 132.152  0.00  0.00    +0.000 NA
ATOM     33  C   UNL     1      -1.799   7.007 131.770  0.00  0.00    +0.000 C 
ATOM     34  C   UNL     1      -1.052   6.261 132.817  0.00  0.00    +0.000 C 
BRANCH  32  35
ATOM     35  C   UNL     1      -3.975   7.633 130.923  0.00  0.00    +0.000 C 
BRANCH  35  36
ATOM     36  C   UNL     1      -5.120   6.774 130.560  0.00  0.00    +0.000 A 
ATOM     37  C   UNL     1      -6.397   7.083 131.061  0.00  0.00    +0.000 A 
ATOM     38  C   UNL     1      -7.383   6.152 130.956  0.00  0.00    +0.000 A 
ATOM     39  C   UNL     1      -7.112   5.046 130.169  0.00  0.00    +0.000 A 
ATOM     40  N   UNL     1      -5.904   4.853 129.468  0.00  0.00    +0.000 N 
ATOM     41  O   UNL     1      -5.795   3.851 128.714  0.00  0.00    +0.000 OA
ATOM     42  C   UNL     1      -4.892   5.732 129.661  0.00  0.00    +0.000 A 
BRANCH  42  43
ATOM     43  C   UNL     1      -3.598   5.609 128.912  0.00  0.00    +0.000 C 
ATOM     44  F   UNL     1      -2.720   4.785 129.574  0.00  0.00    +0.000 F 
ATOM     45  F   UNL     1      -3.767   5.005 127.691  0.00  0.00    +0.000 F 
ATOM     46  F   UNL     1      -2.892   6.731 128.646  0.00  0.00    +0.000 F 
ENDBRANCH  42  43
ENDBRANCH  35  36
ENDBRANCH  32  35
ENDBRANCH  28  29
ENDBRANCH   3  28
TORSDOF 8
ENDMDL
MODEL 9
REMARK VINA RESULT:     -10.2      3.208      3.961
REMARK  Name = CHEMBL66931
REMARK  9 active torsions:
REMARK  status: ('A' for Active; 'I' for Inactive)
REMARK    1  A    between atoms: C_1  and  O_2
REMARK    2  A    between atoms: O_2  and  C_3
REMARK    3  A    between atoms: C_5  and  O_6
REMARK    4  A    between atoms: O_6  and  C_7
REMARK    5  A    between atoms: N_10  and  C_11
REMARK    6  A    between atoms: C_11  and  C_12
REMARK    7  A    between atoms: C_18  and  C_19
REMARK    8  A    between atoms: C_27  and  C_28
REMARK    9  A    between atoms: C_33  and  N_34
REMARK                            x       y       z     vdW  Elec       q    Type
REMARK                         _______ _______ _______ _____ _____    ______ ____
ROOT
ATOM      1  C   UNL     1      -4.539   2.358 131.410  0.00  0.00    +0.000 A 
ATOM      2  C   UNL     1      -4.220   1.451 130.309  0.00  0.00    +0.000 A 
ATOM      3  C   UNL     1      -4.546   0.138 130.371  0.00  0.00    +0.000 A 
ATOM      4  C   UNL     1      -4.920  -0.145 131.632  0.00  0.00    +0.000 A 
ATOM      5  C   UNL     1      -5.479   0.719 132.590  0.00  0.00    +0.000 A 
ATOM      6  C   UNL     1      -5.256   2.025 132.580  0.00  0.00    +0.000 A 
ENDROOT
BRANCH   6   7
ATOM      7  C   UNL     1      -5.783   2.641 133.903  0.00  0.00    +0.000 C 
ATOM      8  O   UNL     1      -5.148   2.525 134.960  0.00  0.00    +0.000 OA
ATOM      9  N   UNL     1      -6.952   3.403 133.879  0.00  0.00    +0.000 N 
ATOM     10  C   UNL     1      -6.798   4.886 133.945  0.00  0.00    +0.000 C 
ATOM     11  C   UNL     1      -8.108   5.551 134.327  0.00  0.00    +0.000 C 
ATOM     12  C   UNL     1      -9.430   5.211 133.164  0.00  0.00    +0.000 C 
ATOM     13  C   UNL     1      -9.420   3.502 133.499  0.00  0.00    +0.000 C 
ATOM     14  C   UNL     1      -8.096   2.843 133.157  0.00  0.00    +0.000 C 
BRANCH  12  15
ATOM     15  N   UNL     1     -10.282   6.415 132.049  0.00  0.00    +0.000 N 
ATOM     16  C   UNL     1      -9.420   5.891 131.075  0.00  0.00    +0.000 C 
ATOM     17  O   UNL     1      -8.118   5.868 131.108  0.00  0.00    +0.000 OA
ATOM     18  O   UNL     1     -10.002   5.131 130.183  0.00  0.00    +0.000 OA
ATOM     19  C   UNL     1     -10.043   6.062 129.175  0.00  0.00    +0.000 C 
ATOM     20  C   UNL     1     -11.392   6.555 129.454  0.00  0.00    +0.000 A 
ATOM     21  C   UNL     1     -12.074   6.782 128.105  0.00  0.00    +0.000 A 
ATOM     22  C   UNL     1     -13.026   7.709 127.827  0.00  0.00    +0.000 A 
ATOM     23  C   UNL     1     -13.265   8.435 128.972  0.00  0.00    +0.000 A 
ATOM     24  C   UNL     1     -12.534   8.132 130.435  0.00  0.00    +0.000 A 
ATOM     25  C   UNL     1     -11.562   6.975 130.819  0.00  0.00    +0.000 A 
ENDBRANCH  12  15
ENDBRANCH   6   7
BRANCH   1  27
ATOM     26  C   UNL     1      -5.021   4.361 130.564  0.00  0.00    +0.000 C 
ATOM     27  O   UNL     1      -4.006   3.585 131.145  0.00  0.00    +0.000 OA
ENDBRANCH   1  27
BRANCH   3  28
ATOM     28  O   UNL     1      -4.598  -0.800 129.365  0.00  0.00    +0.000 OA
BRANCH  28  29
ATOM     29  C   UNL     1      -5.804  -1.681 129.092  0.00  0.00    +0.000 C 
ATOM     30  C   UNL     1      -5.604  -2.733 127.985  0.00  0.00    +0.000 C 
ATOM     31  C   UNL     1      -5.637  -2.054 126.622  0.00  0.00    +0.000 C 
ATOM     32  N   UNL     1      -6.790  -1.051 126.434  0.00  0.00    +0.000 NA
ATOM     33  C   UNL     1      -7.275  -0.267 127.625  0.00  0.00    +0.000 C 
ATOM     34  C   UNL     1      -7.189  -1.027 128.900  0.00  0.00    +0.000 C 
BRANCH  32  35
ATOM     35  C   UNL     1      -6.514  -0.100 125.336  0.00  0.00    +0.000 C 
BRANCH  35  36
ATOM     36  C   UNL     1      -7.671   0.468 124.616  0.00  0.00    +0.000 A 
ATOM     37  C   UNL     1      -8.008   1.819 124.816  0.00  0.00    +0.000 A 
ATOM     38  C   UNL     1      -9.217   2.263 124.377  0.00  0.00    +0.000 A 
ATOM     39  C   UNL     1      -9.940   1.399 123.573  0.00  0.00    +0.000 A 
ATOM     40  N   UNL     1      -9.488   0.125 123.176  0.00  0.00    +0.000 N 
ATOM     41  O   UNL     1     -10.191  -0.545 122.374  0.00  0.00    +0.000 OA
ATOM     42  C   UNL     1      -8.333  -0.349 123.701  0.00  0.00    +0.000 A 
BRANCH  42  43
ATOM     43  C   UNL     1      -7.774  -1.678 123.285  0.00  0.00    +0.000 C 
ATOM     44  F   UNL     1      -8.245  -2.686 124.091  0.00  0.00    +0.000 F 
ATOM     45  F   UNL     1      -8.186  -2.037 122.026  0.00  0.00    +0.000 F 
ATOM     46  F   UNL     1      -6.432  -1.841 123.268  0.00  0.00    +0.000 F 
ENDBRANCH  42  43
ENDBRANCH  35  36
ENDBRANCH  32  35
ENDBRANCH  28  29
ENDBRANCH   3  28
TORSDOF 8
ENDMDL
