MODEL 1
REMARK VINA RESULT:     -10.4      0.000      0.000
REMARK  Name = CHEMBL302297
REMARK  10 active torsions:
REMARK  status: ('A' for Active; 'I' for Inactive)
REMARK    1  A    between atoms: C_1  and  O_2
REMARK    2  A    between atoms: O_2  and  C_3
REMARK    3  A    between atoms: C_5  and  O_6
REMARK    4  A    between atoms: O_6  and  C_7
REMARK    5  A    between atoms: N_10  and  C_11
REMARK    6  A    between atoms: C_11  and  C_12
REMARK    7  A    between atoms: C_13  and  C_14
REMARK    8  A    between atoms: C_19  and  C_20
REMARK    9  A    between atoms: C_25  and  C_26
REMARK   10  A    between atoms: C_31  and  N_32
REMARK                            x       y       z     vdW  Elec       q    Type
REMARK                         _______ _______ _______ _____ _____    ______ ____
ROOT
ATOM      1  C   UNL     1      -7.291  -2.119 130.765  0.00  0.00    +0.000 A 
ATOM      2  C   UNL     1      -7.444  -2.766 129.468  0.00  0.00    +0.000 A 
ATOM      3  C   UNL     1      -6.946  -2.208 128.357  0.00  0.00    +0.000 A 
ATOM      4  C   UNL     1      -6.534  -0.981 128.719  0.00  0.00    +0.000 A 
ATOM      5  C   UNL     1      -6.204  -0.343 129.909  0.00  0.00    +0.000 A 
ATOM      6  C   UNL     1      -6.678  -0.866 131.028  0.00  0.00    +0.000 A 
ENDROOT
BRANCH   6   7
ATOM      7  C   UNL     1      -6.454   0.083 132.197  0.00  0.00    +0.000 C 
ATOM      8  O   UNL     1      -5.532  -0.157 132.993  0.00  0.00    +0.000 OA
ATOM      9  N   UNL     1      -7.221   1.265 132.298  0.00  0.00    +0.000 N 
ATOM     10  C   UNL     1      -6.547   2.547 131.905  0.00  0.00    +0.000 C 
ATOM     11  C   UNL     1      -7.208   3.749 132.587  0.00  0.00    +0.000 C 
ATOM     12  C   UNL     1      -8.939   4.176 132.019  0.00  0.00    +0.000 C 
ATOM     13  C   UNL     1      -9.429   2.481 132.673  0.00  0.00    +0.000 C 
ATOM     14  C   UNL     1      -8.701   1.226 132.113  0.00  0.00    +0.000 C 
BRANCH  12  15
ATOM     15  N   UNL     1      -9.594   5.645 131.084  0.00  0.00    +0.000 N 
ATOM     16  C   UNL     1     -10.061   4.598 130.246  0.00  0.00    +0.000 C 
ATOM     17  O   UNL     1      -9.345   3.800 129.617  0.00  0.00    +0.000 OA
ATOM     18  O   UNL     1     -11.366   4.398 130.328  0.00  0.00    +0.000 OA
ATOM     19  C   UNL     1     -11.714   5.338 129.388  0.00  0.00    +0.000 C 
ATOM     20  C   UNL     1     -11.993   6.500 130.258  0.00  0.00    +0.000 A 
ATOM     21  C   UNL     1     -12.411   7.346 131.333  0.00  0.00    +0.000 A 
ATOM     22  C   UNL     1     -13.067   8.589 131.035  0.00  0.00    +0.000 A 
ATOM     23  C   UNL     1     -12.787   8.980 129.784  0.00  0.00    +0.000 A 
ATOM     24  C   UNL     1     -11.471   8.202 129.351  0.00  0.00    +0.000 A 
ATOM     25  C   UNL     1     -10.828   6.886 130.151  0.00  0.00    +0.000 A 
ENDBRANCH  12  15
ENDBRANCH   6   7
BRANCH   1  27
ATOM     26  C   UNL     1      -6.626  -3.555 132.346  0.00  0.00    +0.000 C 
ATOM     27  O   UNL     1      -7.728  -2.991 131.712  0.00  0.00    +0.000 OA
ENDBRANCH   1  27
BRANCH   3  28
ATOM     28  O   UNL     1      -6.801  -2.763 127.117  0.00  0.00    +0.000 OA
BRANCH  28  29
ATOM     29  C   UNL     1      -7.906  -3.070 126.137  0.00  0.00    +0.000 C 
ATOM     30  C   UNL     1      -7.471  -3.337 124.672  0.00  0.00    +0.000 C 
ATOM     31  C   UNL     1      -6.959  -2.100 123.957  0.00  0.00    +0.000 C 
ATOM     32  N   UNL     1      -7.966  -0.964 124.117  0.00  0.00    +0.000 NA
ATOM     33  C   UNL     1      -8.659  -0.887 125.458  0.00  0.00    +0.000 C 
ATOM     34  C   UNL     1      -9.086  -2.107 126.166  0.00  0.00    +0.000 C 
BRANCH  32  35
ATOM     35  C   UNL     1      -7.351   0.355 123.782  0.00  0.00    +0.000 C 
BRANCH  35  36
ATOM     36  C   UNL     1      -7.299   1.415 124.836  0.00  0.00    +0.000 A 
ATOM     37  C   UNL     1      -6.269   1.456 125.824  0.00  0.00    +0.000 A 
ATOM     38  C   UNL     1      -5.077   0.542 125.916  0.00  0.00    +0.000 C 
ATOM     39  C   UNL     1      -6.324   2.418 126.783  0.00  0.00    +0.000 A 
ATOM     40  C   UNL     1      -7.004   3.566 126.454  0.00  0.00    +0.000 A 
ATOM     41  N   UNL     1      -7.998   3.598 125.482  0.00  0.00    +0.000 N 
ATOM     42  O   UNL     1      -8.729   4.628 125.382  0.00  0.00    +0.000 OA
ATOM     43  C   UNL     1      -8.191   2.483 124.696  0.00  0.00    +0.000 A 
ATOM     44  C   UNL     1      -9.280   2.465 123.667  0.00  0.00    +0.000 C 
ENDBRANCH  35  36
ENDBRANCH  32  35
ENDBRANCH  28  29
ENDBRANCH   3  28
TORSDOF 7
ENDMDL
MODEL 2
REMARK VINA RESULT:     -10.3      2.105      3.322
REMARK  Name = CHEMBL302297
REMARK  10 active torsions:
REMARK  status: ('A' for Active; 'I' for Inactive)
REMARK    1  A    between atoms: C_1  and  O_2
REMARK    2  A    between atoms: O_2  and  C_3
REMARK    3  A    between atoms: C_5  and  O_6
REMARK    4  A    between atoms: O_6  and  C_7
REMARK    5  A    between atoms: N_10  and  C_11
REMARK    6  A    between atoms: C_11  and  C_12
REMARK    7  A    between atoms: C_13  and  C_14
REMARK    8  A    between atoms: C_19  and  C_20
REMARK    9  A    between atoms: C_25  and  C_26
REMARK   10  A    between atoms: C_31  and  N_32
REMARK                            x       y       z     vdW  Elec       q    Type
REMARK                         _______ _______ _______ _____ _____    ______ ____
ROOT
ATOM      1  C   UNL     1      -6.476   0.162 132.779  0.00  0.00    +0.000 A 
ATOM      2  C   UNL     1      -7.179  -1.002 132.251  0.00  0.00    +0.000 A 
ATOM      3  C   UNL     1      -7.837  -0.938 131.087  0.00  0.00    +0.000 A 
ATOM      4  C   UNL     1      -7.834   0.360 130.737  0.00  0.00    +0.000 A 
ATOM      5  C   UNL     1      -7.090   1.487 131.066  0.00  0.00    +0.000 A 
ATOM      6  C   UNL     1      -6.425   1.460 132.209  0.00  0.00    +0.000 A 
ENDROOT
BRANCH   6   7
ATOM      7  C   UNL     1      -5.886   2.844 132.545  0.00  0.00    +0.000 C 
ATOM      8  O   UNL     1      -4.712   2.949 132.934  0.00  0.00    +0.000 OA
ATOM      9  N   UNL     1      -6.686   3.984 132.310  0.00  0.00    +0.000 N 
ATOM     10  C   UNL     1      -6.357   4.806 131.099  0.00  0.00    +0.000 C 
ATOM     11  C   UNL     1      -6.844   6.250 131.262  0.00  0.00    +0.000 C 
ATOM     12  C   UNL     1      -8.697   6.505 131.260  0.00  0.00    +0.000 C 
ATOM     13  C   UNL     1      -8.713   5.445 132.814  0.00  0.00    +0.000 C 
ATOM     14  C   UNL     1      -8.114   4.011 132.746  0.00  0.00    +0.000 C 
BRANCH  12  15
ATOM     15  N   UNL     1      -9.816   7.349 130.036  0.00  0.00    +0.000 N 
ATOM     16  C   UNL     1     -10.366   6.041 130.002  0.00  0.00    +0.000 C 
ATOM     17  O   UNL     1      -9.776   5.016 129.617  0.00  0.00    +0.000 OA
ATOM     18  O   UNL     1     -11.537   5.944 130.610  0.00  0.00    +0.000 OA
ATOM     19  C   UNL     1     -12.293   6.315 129.524  0.00  0.00    +0.000 C 
ATOM     20  C   UNL     1     -12.450   7.761 129.785  0.00  0.00    +0.000 A 
ATOM     21  C   UNL     1     -12.628   9.036 130.409  0.00  0.00    +0.000 A 
ATOM     22  C   UNL     1     -13.515   9.994 129.810  0.00  0.00    +0.000 A 
ATOM     23  C   UNL     1     -13.699   9.716 128.511  0.00  0.00    +0.000 A 
ATOM     24  C   UNL     1     -12.487   8.788 128.071  0.00  0.00    +0.000 A 
ATOM     25  C   UNL     1     -11.444   8.011 129.118  0.00  0.00    +0.000 A 
ENDBRANCH  12  15
ENDBRANCH   6   7
BRANCH   1  27
ATOM     26  C   UNL     1      -4.788  -1.147 133.442  0.00  0.00    +0.000 C 
ATOM     27  O   UNL     1      -5.762  -0.248 133.861  0.00  0.00    +0.000 OA
ENDBRANCH   1  27
BRANCH   3  28
ATOM     28  O   UNL     1      -8.353  -1.962 130.343  0.00  0.00    +0.000 OA
BRANCH  28  29
ATOM     29  C   UNL     1      -7.572  -3.061 129.667  0.00  0.00    +0.000 C 
ATOM     30  C   UNL     1      -6.071  -2.771 129.396  0.00  0.00    +0.000 C 
ATOM     31  C   UNL     1      -5.840  -1.723 128.323  0.00  0.00    +0.000 C 
ATOM     32  N   UNL     1      -6.646  -2.082 127.076  0.00  0.00    +0.000 NA
ATOM     33  C   UNL     1      -8.008  -2.686 127.330  0.00  0.00    +0.000 C 
ATOM     34  C   UNL     1      -8.223  -3.651 128.422  0.00  0.00    +0.000 C 
BRANCH  32  35
ATOM     35  C   UNL     1      -6.767  -0.913 126.155  0.00  0.00    +0.000 C 
BRANCH  35  36
ATOM     36  C   UNL     1      -7.157  -1.154 124.732  0.00  0.00    +0.000 A 
ATOM     37  C   UNL     1      -6.368  -1.955 123.852  0.00  0.00    +0.000 A 
ATOM     38  C   UNL     1      -5.123  -2.722 124.210  0.00  0.00    +0.000 C 
ATOM     39  C   UNL     1      -6.761  -2.082 122.557  0.00  0.00    +0.000 A 
ATOM     40  C   UNL     1      -8.101  -1.908 122.309  0.00  0.00    +0.000 A 
ATOM     41  N   UNL     1      -8.929  -1.163 123.141  0.00  0.00    +0.000 N 
ATOM     42  O   UNL     1     -10.094  -0.863 122.743  0.00  0.00    +0.000 OA
ATOM     43  C   UNL     1      -8.433  -0.727 124.350  0.00  0.00    +0.000 A 
ATOM     44  C   UNL     1      -9.281   0.114 125.255  0.00  0.00    +0.000 C 
ENDBRANCH  35  36
ENDBRANCH  32  35
ENDBRANCH  28  29
ENDBRANCH   3  28
TORSDOF 7
ENDMDL
MODEL 3
REMARK VINA RESULT:     -10.1      1.228      1.631
REMARK  Name = CHEMBL302297
REMARK  10 active torsions:
REMARK  status: ('A' for Active; 'I' for Inactive)
REMARK    1  A    between atoms: C_1  and  O_2
REMARK    2  A    between atoms: O_2  and  C_3
REMARK    3  A    between atoms: C_5  and  O_6
REMARK    4  A    between atoms: O_6  and  C_7
REMARK    5  A    between atoms: N_10  and  C_11
REMARK    6  A    between atoms: C_11  and  C_12
REMARK    7  A    between atoms: C_13  and  C_14
REMARK    8  A    between atoms: C_19  and  C_20
REMARK    9  A    between atoms: C_25  and  C_26
REMARK   10  A    between atoms: C_31  and  N_32
REMARK                            x       y       z     vdW  Elec       q    Type
REMARK                         _______ _______ _______ _____ _____    ______ ____
ROOT
ATOM      1  C   UNL     1      -7.213  -2.388 130.574  0.00  0.00    +0.000 A 
ATOM      2  C   UNL     1      -7.433  -3.199 129.382  0.00  0.00    +0.000 A 
ATOM      3  C   UNL     1      -7.273  -2.680 128.158  0.00  0.00    +0.000 A 
ATOM      4  C   UNL     1      -7.097  -1.360 128.341  0.00  0.00    +0.000 A 
ATOM      5  C   UNL     1      -6.724  -0.534 129.395  0.00  0.00    +0.000 A 
ATOM      6  C   UNL     1      -6.868  -1.013 130.619  0.00  0.00    +0.000 A 
ENDROOT
BRANCH   6   7
ATOM      7  C   UNL     1      -6.670   0.091 131.650  0.00  0.00    +0.000 C 
ATOM      8  O   UNL     1      -5.631   0.095 132.329  0.00  0.00    +0.000 OA
ATOM      9  N   UNL     1      -7.611   1.140 131.742  0.00  0.00    +0.000 N 
ATOM     10  C   UNL     1      -7.221   2.457 131.139  0.00  0.00    +0.000 C 
ATOM     11  C   UNL     1      -7.991   3.612 131.787  0.00  0.00    +0.000 C 
ATOM     12  C   UNL     1      -9.826   3.690 131.427  0.00  0.00    +0.000 C 
ATOM     13  C   UNL     1      -9.935   2.028 132.303  0.00  0.00    +0.000 C 
ATOM     14  C   UNL     1      -9.075   0.846 131.770  0.00  0.00    +0.000 C 
BRANCH  12  15
ATOM     15  N   UNL     1     -10.833   4.917 130.456  0.00  0.00    +0.000 N 
ATOM     16  C   UNL     1     -10.212   5.794 131.384  0.00  0.00    +0.000 C 
ATOM     17  O   UNL     1     -10.374   5.778 132.617  0.00  0.00    +0.000 OA
ATOM     18  O   UNL     1      -9.262   6.544 130.848  0.00  0.00    +0.000 OA
ATOM     19  C   UNL     1     -10.097   7.549 130.421  0.00  0.00    +0.000 C 
ATOM     20  C   UNL     1     -10.337   7.126 129.025  0.00  0.00    +0.000 A 
ATOM     21  C   UNL     1     -10.191   6.612 127.698  0.00  0.00    +0.000 A 
ATOM     22  C   UNL     1     -10.768   7.334 126.598  0.00  0.00    +0.000 A 
ATOM     23  C   UNL     1     -11.743   8.147 127.029  0.00  0.00    +0.000 A 
ATOM     24  C   UNL     1     -12.191   7.601 128.452  0.00  0.00    +0.000 A 
ATOM     25  C   UNL     1     -11.339   6.495 129.367  0.00  0.00    +0.000 A 
ENDBRANCH  12  15
ENDBRANCH   6   7
BRANCH   1  27
ATOM     26  C   UNL     1      -6.051  -3.873 131.778  0.00  0.00    +0.000 C 
ATOM     27  O   UNL     1      -7.271  -3.217 131.650  0.00  0.00    +0.000 OA
ENDBRANCH   1  27
BRANCH   3  28
ATOM     28  O   UNL     1      -7.219  -3.332 126.958  0.00  0.00    +0.000 OA
BRANCH  28  29
ATOM     29  C   UNL     1      -8.378  -3.602 126.032  0.00  0.00    +0.000 C 
ATOM     30  C   UNL     1      -8.018  -3.935 124.559  0.00  0.00    +0.000 C 
ATOM     31  C   UNL     1      -7.466  -2.751 123.787  0.00  0.00    +0.000 C 
ATOM     32  N   UNL     1      -8.399  -1.554 123.951  0.00  0.00    +0.000 NA
ATOM     33  C   UNL     1      -9.032  -1.399 125.314  0.00  0.00    +0.000 C 
ATOM     34  C   UNL     1      -9.499  -2.571 126.076  0.00  0.00    +0.000 C 
BRANCH  32  35
ATOM     35  C   UNL     1      -7.723  -0.283 123.551  0.00  0.00    +0.000 C 
BRANCH  35  36
ATOM     36  C   UNL     1      -7.542   0.789 124.578  0.00  0.00    +0.000 A 
ATOM     37  C   UNL     1      -6.445   0.790 125.491  0.00  0.00    +0.000 A 
ATOM     38  C   UNL     1      -5.300  -0.186 125.520  0.00  0.00    +0.000 C 
ATOM     39  C   UNL     1      -6.381   1.770 126.432  0.00  0.00    +0.000 A 
ATOM     40  C   UNL     1      -7.020   2.947 126.127  0.00  0.00    +0.000 A 
ATOM     41  N   UNL     1      -8.076   3.018 125.225  0.00  0.00    +0.000 N 
ATOM     42  O   UNL     1      -8.756   4.084 125.155  0.00  0.00    +0.000 OA
ATOM     43  C   UNL     1      -8.383   1.902 124.477  0.00  0.00    +0.000 A 
ATOM     44  C   UNL     1      -9.540   1.927 123.526  0.00  0.00    +0.000 C 
ENDBRANCH  35  36
ENDBRANCH  32  35
ENDBRANCH  28  29
ENDBRANCH   3  28
TORSDOF 7
ENDMDL
MODEL 4
REMARK VINA RESULT:     -10.1      2.378      4.400
REMARK  Name = CHEMBL302297
REMARK  10 active torsions:
REMARK  status: ('A' for Active; 'I' for Inactive)
REMARK    1  A    between atoms: C_1  and  O_2
REMARK    2  A    between atoms: O_2  and  C_3
REMARK    3  A    between atoms: C_5  and  O_6
REMARK    4  A    between atoms: O_6  and  C_7
REMARK    5  A    between atoms: N_10  and  C_11
REMARK    6  A    between atoms: C_11  and  C_12
REMARK    7  A    between atoms: C_13  and  C_14
REMARK    8  A    between atoms: C_19  and  C_20
REMARK    9  A    between atoms: C_25  and  C_26
REMARK   10  A    between atoms: C_31  and  N_32
REMARK                            x       y       z     vdW  Elec       q    Type
REMARK                         _______ _______ _______ _____ _____    ______ ____
ROOT
ATOM      1  C   UNL     1      -6.305   1.480 131.321  0.00  0.00    +0.000 A 
ATOM      2  C   UNL     1      -6.339   0.027 131.211  0.00  0.00    +0.000 A 
ATOM      3  C   UNL     1      -5.552  -0.739 131.977  0.00  0.00    +0.000 A 
ATOM      4  C   UNL     1      -4.716   0.107 132.603  0.00  0.00    +0.000 A 
ATOM      5  C   UNL     1      -4.697   1.465 132.896  0.00  0.00    +0.000 A 
ATOM      6  C   UNL     1      -5.461   2.254 132.159  0.00  0.00    +0.000 A 
ENDROOT
BRANCH   6   7
ATOM      7  C   UNL     1      -5.131   3.717 132.425  0.00  0.00    +0.000 C 
ATOM      8  O   UNL     1      -3.986   4.012 132.801  0.00  0.00    +0.000 OA
ATOM      9  N   UNL     1      -6.089   4.714 132.140  0.00  0.00    +0.000 N 
ATOM     10  C   UNL     1      -5.883   5.516 130.888  0.00  0.00    +0.000 C 
ATOM     11  C   UNL     1      -6.577   6.879 130.986  0.00  0.00    +0.000 C 
ATOM     12  C   UNL     1      -8.448   6.860 130.983  0.00  0.00    +0.000 C 
ATOM     13  C   UNL     1      -8.309   5.886 132.587  0.00  0.00    +0.000 C 
ATOM     14  C   UNL     1      -7.506   4.554 132.584  0.00  0.00    +0.000 C 
BRANCH  12  15
ATOM     15  N   UNL     1      -9.677   7.471 129.727  0.00  0.00    +0.000 N 
ATOM     16  C   UNL     1     -10.149   6.143 129.901  0.00  0.00    +0.000 C 
ATOM     17  O   UNL     1      -9.521   5.108 129.621  0.00  0.00    +0.000 OA
ATOM     18  O   UNL     1     -11.280   6.070 130.585  0.00  0.00    +0.000 OA
ATOM     19  C   UNL     1     -12.112   6.250 129.507  0.00  0.00    +0.000 C 
ATOM     20  C   UNL     1     -12.340   7.709 129.582  0.00  0.00    +0.000 A 
ATOM     21  C   UNL     1     -12.560   9.046 130.040  0.00  0.00    +0.000 A 
ATOM     22  C   UNL     1     -13.533   9.866 129.374  0.00  0.00    +0.000 A 
ATOM     23  C   UNL     1     -13.768   9.405 128.137  0.00  0.00    +0.000 A 
ATOM     24  C   UNL     1     -12.528   8.489 127.753  0.00  0.00    +0.000 A 
ATOM     25  C   UNL     1     -11.388   7.917 128.829  0.00  0.00    +0.000 A 
ENDBRANCH  12  15
ENDBRANCH   6   7
BRANCH   1  27
ATOM     26  C   UNL     1      -6.839   2.258 129.293  0.00  0.00    +0.000 C 
ATOM     27  O   UNL     1      -7.322   1.972 130.565  0.00  0.00    +0.000 OA
ENDBRANCH   1  27
BRANCH   3  28
ATOM     28  O   UNL     1      -5.606  -2.092 132.168  0.00  0.00    +0.000 OA
BRANCH  28  29
ATOM     29  C   UNL     1      -4.971  -3.146 131.296  0.00  0.00    +0.000 C 
ATOM     30  C   UNL     1      -3.996  -2.636 130.201  0.00  0.00    +0.000 C 
ATOM     31  C   UNL     1      -4.686  -1.887 129.076  0.00  0.00    +0.000 C 
ATOM     32  N   UNL     1      -5.848  -2.722 128.543  0.00  0.00    +0.000 NA
ATOM     33  C   UNL     1      -6.621  -3.504 129.580  0.00  0.00    +0.000 C 
ATOM     34  C   UNL     1      -5.935  -4.166 130.703  0.00  0.00    +0.000 C 
BRANCH  32  35
ATOM     35  C   UNL     1      -6.782  -1.890 127.727  0.00  0.00    +0.000 C 
BRANCH  35  36
ATOM     36  C   UNL     1      -7.141  -2.351 126.350  0.00  0.00    +0.000 A 
ATOM     37  C   UNL     1      -8.231  -3.240 126.105  0.00  0.00    +0.000 A 
ATOM     38  C   UNL     1      -9.205  -3.767 127.124  0.00  0.00    +0.000 C 
ATOM     39  C   UNL     1      -8.459  -3.656 124.831  0.00  0.00    +0.000 A 
ATOM     40  C   UNL     1      -8.014  -2.826 123.832  0.00  0.00    +0.000 A 
ATOM     41  N   UNL     1      -6.976  -1.918 124.014  0.00  0.00    +0.000 N 
ATOM     42  O   UNL     1      -6.475  -1.344 123.002  0.00  0.00    +0.000 OA
ATOM     43  C   UNL     1      -6.489  -1.718 125.287  0.00  0.00    +0.000 A 
ATOM     44  C   UNL     1      -5.343  -0.780 125.516  0.00  0.00    +0.000 C 
ENDBRANCH  35  36
ENDBRANCH  32  35
ENDBRANCH  28  29
ENDBRANCH   3  28
TORSDOF 7
ENDMDL
MODEL 5
REMARK VINA RESULT:      -9.8      3.169      7.718
REMARK  Name = CHEMBL302297
REMARK  10 active torsions:
REMARK  status: ('A' for Active; 'I' for Inactive)
REMARK    1  A    between atoms: C_1  and  O_2
REMARK    2  A    between atoms: O_2  and  C_3
REMARK    3  A    between atoms: C_5  and  O_6
REMARK    4  A    between atoms: O_6  and  C_7
REMARK    5  A    between atoms: N_10  and  C_11
REMARK    6  A    between atoms: C_11  and  C_12
REMARK    7  A    between atoms: C_13  and  C_14
REMARK    8  A    between atoms: C_19  and  C_20
REMARK    9  A    between atoms: C_25  and  C_26
REMARK   10  A    between atoms: C_31  and  N_32
REMARK                            x       y       z     vdW  Elec       q    Type
REMARK                         _______ _______ _______ _____ _____    ______ ____
ROOT
ATOM      1  C   UNL     1      -5.917  -0.825 131.143  0.00  0.00    +0.000 A 
ATOM      2  C   UNL     1      -6.190   0.220 132.123  0.00  0.00    +0.000 A 
ATOM      3  C   UNL     1      -7.435   0.675 132.314  0.00  0.00    +0.000 A 
ATOM      4  C   UNL     1      -8.179   0.126 131.338  0.00  0.00    +0.000 A 
ATOM      5  C   UNL     1      -8.064  -0.964 130.482  0.00  0.00    +0.000 A 
ATOM      6  C   UNL     1      -6.850  -1.442 130.270  0.00  0.00    +0.000 A 
ENDROOT
BRANCH   6   7
ATOM      7  C   UNL     1      -6.864  -2.445 129.124  0.00  0.00    +0.000 C 
ATOM      8  O   UNL     1      -7.061  -3.643 129.381  0.00  0.00    +0.000 OA
ATOM      9  N   UNL     1      -6.760  -1.988 127.792  0.00  0.00    +0.000 N 
ATOM     10  C   UNL     1      -8.026  -1.954 126.985  0.00  0.00    +0.000 C 
ATOM     11  C   UNL     1      -7.726  -2.029 125.485  0.00  0.00    +0.000 C 
ATOM     12  C   UNL     1      -6.892  -0.534 124.730  0.00  0.00    +0.000 C 
ATOM     13  C   UNL     1      -5.454  -0.919 125.881  0.00  0.00    +0.000 C 
ATOM     14  C   UNL     1      -5.721  -0.986 127.412  0.00  0.00    +0.000 C 
BRANCH  12  15
ATOM     15  N   UNL     1      -7.506   0.723 123.504  0.00  0.00    +0.000 N 
ATOM     16  C   UNL     1      -7.477   1.524 124.676  0.00  0.00    +0.000 C 
ATOM     17  O   UNL     1      -8.166   1.343 125.695  0.00  0.00    +0.000 OA
ATOM     18  O   UNL     1      -6.490   2.406 124.689  0.00  0.00    +0.000 OA
ATOM     19  C   UNL     1      -7.166   3.388 124.006  0.00  0.00    +0.000 C 
ATOM     20  C   UNL     1      -6.706   3.124 122.626  0.00  0.00    +0.000 A 
ATOM     21  C   UNL     1      -5.924   2.791 121.477  0.00  0.00    +0.000 A 
ATOM     22  C   UNL     1      -6.037   3.597 120.293  0.00  0.00    +0.000 A 
ATOM     23  C   UNL     1      -7.194   4.273 120.293  0.00  0.00    +0.000 A 
ATOM     24  C   UNL     1      -8.156   3.522 121.310  0.00  0.00    +0.000 A 
ATOM     25  C   UNL     1      -7.669   2.380 122.426  0.00  0.00    +0.000 A 
ENDBRANCH  12  15
ENDBRANCH   6   7
BRANCH   1  27
ATOM     26  C   UNL     1      -4.423  -1.594 132.620  0.00  0.00    +0.000 C 
ATOM     27  O   UNL     1      -4.621  -1.204 131.300  0.00  0.00    +0.000 OA
ENDBRANCH   1  27
BRANCH   3  28
ATOM     28  O   UNL     1      -7.905   1.473 133.319  0.00  0.00    +0.000 OA
BRANCH  28  29
ATOM     29  C   UNL     1      -8.007   2.977 133.297  0.00  0.00    +0.000 C 
ATOM     30  C   UNL     1      -8.023   3.644 131.895  0.00  0.00    +0.000 C 
ATOM     31  C   UNL     1      -6.693   3.560 131.169  0.00  0.00    +0.000 C 
ATOM     32  N   UNL     1      -5.577   4.053 132.088  0.00  0.00    +0.000 NA
ATOM     33  C   UNL     1      -5.721   3.686 133.547  0.00  0.00    +0.000 C 
ATOM     34  C   UNL     1      -7.034   3.708 134.213  0.00  0.00    +0.000 C 
BRANCH  32  35
ATOM     35  C   UNL     1      -4.236   3.634 131.582  0.00  0.00    +0.000 C 
BRANCH  35  36
ATOM     36  C   UNL     1      -3.752   4.186 130.279  0.00  0.00    +0.000 A 
ATOM     37  C   UNL     1      -3.259   5.520 130.155  0.00  0.00    +0.000 A 
ATOM     38  C   UNL     1      -3.071   6.515 131.268  0.00  0.00    +0.000 C 
ATOM     39  C   UNL     1      -2.889   5.966 128.924  0.00  0.00    +0.000 A 
ATOM     40  C   UNL     1      -2.505   5.005 128.020  0.00  0.00    +0.000 A 
ATOM     41  N   UNL     1      -2.927   3.683 128.103  0.00  0.00    +0.000 N 
ATOM     42  O   UNL     1      -2.715   2.906 127.125  0.00  0.00    +0.000 OA
ATOM     43  C   UNL     1      -3.614   3.277 129.226  0.00  0.00    +0.000 A 
ATOM     44  C   UNL     1      -4.123   1.871 129.331  0.00  0.00    +0.000 C 
ENDBRANCH  35  36
ENDBRANCH  32  35
ENDBRANCH  28  29
ENDBRANCH   3  28
TORSDOF 7
ENDMDL
MODEL 6
REMARK VINA RESULT:      -9.8      2.451      4.339
REMARK  Name = CHEMBL302297
REMARK  10 active torsions:
REMARK  status: ('A' for Active; 'I' for Inactive)
REMARK    1  A    between atoms: C_1  and  O_2
REMARK    2  A    between atoms: O_2  and  C_3
REMARK    3  A    between atoms: C_5  and  O_6
REMARK    4  A    between atoms: O_6  and  C_7
REMARK    5  A    between atoms: N_10  and  C_11
REMARK    6  A    between atoms: C_11  and  C_12
REMARK    7  A    between atoms: C_13  and  C_14
REMARK    8  A    between atoms: C_19  and  C_20
REMARK    9  A    between atoms: C_25  and  C_26
REMARK   10  A    between atoms: C_31  and  N_32
REMARK                            x       y       z     vdW  Elec       q    Type
REMARK                         _______ _______ _______ _____ _____    ______ ____
ROOT
ATOM      1  C   UNL     1      -4.935   1.442 131.923  0.00  0.00    +0.000 A 
ATOM      2  C   UNL     1      -4.169   0.487 131.132  0.00  0.00    +0.000 A 
ATOM      3  C   UNL     1      -3.696  -0.639 131.682  0.00  0.00    +0.000 A 
ATOM      4  C   UNL     1      -3.917  -0.520 133.003  0.00  0.00    +0.000 A 
ATOM      5  C   UNL     1      -4.748   0.240 133.817  0.00  0.00    +0.000 A 
ATOM      6  C   UNL     1      -5.235   1.360 133.307  0.00  0.00    +0.000 A 
ENDROOT
BRANCH   6   7
ATOM      7  C   UNL     1      -5.897   2.197 134.394  0.00  0.00    +0.000 C 
ATOM      8  O   UNL     1      -5.406   2.192 135.533  0.00  0.00    +0.000 OA
ATOM      9  N   UNL     1      -6.983   3.038 134.066  0.00  0.00    +0.000 N 
ATOM     10  C   UNL     1      -6.694   4.505 133.948  0.00  0.00    +0.000 C 
ATOM     11  C   UNL     1      -7.958   5.338 134.184  0.00  0.00    +0.000 C 
ATOM     12  C   UNL     1      -9.284   5.223 132.869  0.00  0.00    +0.000 C 
ATOM     13  C   UNL     1      -9.396   3.402 133.327  0.00  0.00    +0.000 C 
ATOM     14  C   UNL     1      -8.112   2.529 133.232  0.00  0.00    +0.000 C 
BRANCH  12  15
ATOM     15  N   UNL     1      -9.917   6.483 131.655  0.00  0.00    +0.000 N 
ATOM     16  C   UNL     1      -9.012   5.776 130.819  0.00  0.00    +0.000 C 
ATOM     17  O   UNL     1      -7.780   5.711 130.977  0.00  0.00    +0.000 OA
ATOM     18  O   UNL     1      -9.610   5.002 129.928  0.00  0.00    +0.000 OA
ATOM     19  C   UNL     1      -9.767   5.977 128.973  0.00  0.00    +0.000 C 
ATOM     20  C   UNL     1     -11.141   6.431 129.273  0.00  0.00    +0.000 A 
ATOM     21  C   UNL     1     -12.524   6.488 129.632  0.00  0.00    +0.000 A 
ATOM     22  C   UNL     1     -13.417   7.309 128.862  0.00  0.00    +0.000 A 
ATOM     23  C   UNL     1     -12.733   8.252 128.198  0.00  0.00    +0.000 A 
ATOM     24  C   UNL     1     -11.329   8.390 128.928  0.00  0.00    +0.000 A 
ATOM     25  C   UNL     1     -10.710   7.302 130.032  0.00  0.00    +0.000 A 
ENDBRANCH  12  15
ENDBRANCH   6   7
BRANCH   1  27
ATOM     26  C   UNL     1      -4.560   3.464 131.041  0.00  0.00    +0.000 C 
ATOM     27  O   UNL     1      -5.429   2.378 131.069  0.00  0.00    +0.000 OA
ENDBRANCH   1  27
BRANCH   3  28
ATOM     28  O   UNL     1      -3.162  -1.732 131.059  0.00  0.00    +0.000 OA
BRANCH  28  29
ATOM     29  C   UNL     1      -3.826  -3.074 130.878  0.00  0.00    +0.000 C 
ATOM     30  C   UNL     1      -3.716  -3.711 129.467  0.00  0.00    +0.000 C 
ATOM     31  C   UNL     1      -4.526  -2.984 128.409  0.00  0.00    +0.000 C 
ATOM     32  N   UNL     1      -5.958  -2.794 128.904  0.00  0.00    +0.000 NA
ATOM     33  C   UNL     1      -6.108  -2.493 130.377  0.00  0.00    +0.000 C 
ATOM     34  C   UNL     1      -5.262  -3.162 131.381  0.00  0.00    +0.000 C 
BRANCH  32  35
ATOM     35  C   UNL     1      -6.677  -1.765 128.095  0.00  0.00    +0.000 C 
BRANCH  35  36
ATOM     36  C   UNL     1      -7.131  -2.121 126.714  0.00  0.00    +0.000 A 
ATOM     37  C   UNL     1      -8.190  -3.049 126.478  0.00  0.00    +0.000 A 
ATOM     38  C   UNL     1      -9.043  -3.723 127.519  0.00  0.00    +0.000 C 
ATOM     39  C   UNL     1      -8.506  -3.363 125.193  0.00  0.00    +0.000 A 
ATOM     40  C   UNL     1      -8.195  -2.420 124.243  0.00  0.00    +0.000 A 
ATOM     41  N   UNL     1      -7.194  -1.472 124.425  0.00  0.00    +0.000 N 
ATOM     42  O   UNL     1      -6.814  -0.780 123.434  0.00  0.00    +0.000 OA
ATOM     43  C   UNL     1      -6.608  -1.358 125.666  0.00  0.00    +0.000 A 
ATOM     44  C   UNL     1      -5.497  -0.377 125.888  0.00  0.00    +0.000 C 
ENDBRANCH  35  36
ENDBRANCH  32  35
ENDBRANCH  28  29
ENDBRANCH   3  28
TORSDOF 7
ENDMDL
MODEL 7
REMARK VINA RESULT:      -9.7      2.927      5.382
REMARK  Name = CHEMBL302297
REMARK  10 active torsions:
REMARK  status: ('A' for Active; 'I' for Inactive)
REMARK    1  A    between atoms: C_1  and  O_2
REMARK    2  A    between atoms: O_2  and  C_3
REMARK    3  A    between atoms: C_5  and  O_6
REMARK    4  A    between atoms: O_6  and  C_7
REMARK    5  A    between atoms: N_10  and  C_11
REMARK    6  A    between atoms: C_11  and  C_12
REMARK    7  A    between atoms: C_13  and  C_14
REMARK    8  A    between atoms: C_19  and  C_20
REMARK    9  A    between atoms: C_25  and  C_26
REMARK   10  A    between atoms: C_31  and  N_32
REMARK                            x       y       z     vdW  Elec       q    Type
REMARK                         _______ _______ _______ _____ _____    ______ ____
ROOT
ATOM      1  C   UNL     1      -4.358   2.039 131.234  0.00  0.00    +0.000 A 
ATOM      2  C   UNL     1      -4.151   0.597 131.286  0.00  0.00    +0.000 A 
ATOM      3  C   UNL     1      -3.740   0.002 132.413  0.00  0.00    +0.000 A 
ATOM      4  C   UNL     1      -3.421   0.999 133.257  0.00  0.00    +0.000 A 
ATOM      5  C   UNL     1      -3.718   2.352 133.369  0.00  0.00    +0.000 A 
ATOM      6  C   UNL     1      -4.127   2.974 132.276  0.00  0.00    +0.000 A 
ENDROOT
BRANCH   6   7
ATOM      7  C   UNL     1      -4.153   4.481 132.497  0.00  0.00    +0.000 C 
ATOM      8  O   UNL     1      -3.114   5.047 132.868  0.00  0.00    +0.000 OA
ATOM      9  N   UNL     1      -5.317   5.215 132.180  0.00  0.00    +0.000 N 
ATOM     10  C   UNL     1      -5.292   6.006 130.904  0.00  0.00    +0.000 C 
ATOM     11  C   UNL     1      -6.288   7.170 130.958  0.00  0.00    +0.000 C 
ATOM     12  C   UNL     1      -8.102   6.710 130.949  0.00  0.00    +0.000 C 
ATOM     13  C   UNL     1      -7.754   5.843 132.583  0.00  0.00    +0.000 C 
ATOM     14  C   UNL     1      -6.660   4.739 132.623  0.00  0.00    +0.000 C 
BRANCH  12  15
ATOM     15  N   UNL     1      -9.427   6.978 129.671  0.00  0.00    +0.000 N 
ATOM     16  C   UNL     1      -9.866   5.744 130.220  0.00  0.00    +0.000 C 
ATOM     17  O   UNL     1      -9.244   4.668 130.174  0.00  0.00    +0.000 OA
ATOM     18  O   UNL     1     -10.943   5.857 130.981  0.00  0.00    +0.000 OA
ATOM     19  C   UNL     1     -11.854   5.753 129.957  0.00  0.00    +0.000 C 
ATOM     20  C   UNL     1     -12.098   7.182 129.666  0.00  0.00    +0.000 A 
ATOM     21  C   UNL     1     -12.304   8.593 129.775  0.00  0.00    +0.000 A 
ATOM     22  C   UNL     1     -13.334   9.215 128.991  0.00  0.00    +0.000 A 
ATOM     23  C   UNL     1     -13.651   8.448 127.938  0.00  0.00    +0.000 A 
ATOM     24  C   UNL     1     -12.429   7.459 127.715  0.00  0.00    +0.000 A 
ATOM     25  C   UNL     1     -11.205   7.182 128.816  0.00  0.00    +0.000 A 
ENDBRANCH  12  15
ENDBRANCH   6   7
BRANCH   1  27
ATOM     26  C   UNL     1      -3.973   2.840 129.181  0.00  0.00    +0.000 C 
ATOM     27  O   UNL     1      -4.940   2.326 130.039  0.00  0.00    +0.000 OA
ENDBRANCH   1  27
BRANCH   3  28
ATOM     28  O   UNL     1      -3.707  -1.332 132.708  0.00  0.00    +0.000 OA
BRANCH  28  29
ATOM     29  C   UNL     1      -4.733  -2.100 133.504  0.00  0.00    +0.000 C 
ATOM     30  C   UNL     1      -4.546  -3.640 133.562  0.00  0.00    +0.000 C 
ATOM     31  C   UNL     1      -4.814  -4.333 132.239  0.00  0.00    +0.000 C 
ATOM     32  N   UNL     1      -6.166  -3.884 131.691  0.00  0.00    +0.000 NA
ATOM     33  C   UNL     1      -6.516  -2.432 131.922  0.00  0.00    +0.000 C 
ATOM     34  C   UNL     1      -6.185  -1.760 133.190  0.00  0.00    +0.000 C 
BRANCH  32  35
ATOM     35  C   UNL     1      -6.300  -4.220 130.241  0.00  0.00    +0.000 C 
BRANCH  35  36
ATOM     36  C   UNL     1      -6.283  -3.109 129.240  0.00  0.00    +0.000 A 
ATOM     37  C   UNL     1      -5.085  -2.415 128.894  0.00  0.00    +0.000 A 
ATOM     38  C   UNL     1      -3.696  -2.724 129.384  0.00  0.00    +0.000 C 
ATOM     39  C   UNL     1      -5.161  -1.380 128.016  0.00  0.00    +0.000 A 
ATOM     40  C   UNL     1      -6.217  -1.405 127.138  0.00  0.00    +0.000 A 
ATOM     41  N   UNL     1      -7.400  -2.085 127.403  0.00  0.00    +0.000 N 
ATOM     42  O   UNL     1      -8.405  -1.888 126.657  0.00  0.00    +0.000 OA
ATOM     43  C   UNL     1      -7.457  -2.908 128.507  0.00  0.00    +0.000 A 
ATOM     44  C   UNL     1      -8.728  -3.623 128.849  0.00  0.00    +0.000 C 
ENDBRANCH  35  36
ENDBRANCH  32  35
ENDBRANCH  28  29
ENDBRANCH   3  28
TORSDOF 7
ENDMDL
MODEL 8
REMARK VINA RESULT:      -9.5      3.197      6.716
REMARK  Name = CHEMBL302297
REMARK  10 active torsions:
REMARK  status: ('A' for Active; 'I' for Inactive)
REMARK    1  A    between atoms: C_1  and  O_2
REMARK    2  A    between atoms: O_2  and  C_3
REMARK    3  A    between atoms: C_5  and  O_6
REMARK    4  A    between atoms: O_6  and  C_7
REMARK    5  A    between atoms: N_10  and  C_11
REMARK    6  A    between atoms: C_11  and  C_12
REMARK    7  A    between atoms: C_13  and  C_14
REMARK    8  A    between atoms: C_19  and  C_20
REMARK    9  A    between atoms: C_25  and  C_26
REMARK   10  A    between atoms: C_31  and  N_32
REMARK                            x       y       z     vdW  Elec       q    Type
REMARK                         _______ _______ _______ _____ _____    ______ ____
ROOT
ATOM      1  C   UNL     1      -5.001   0.933 130.834  0.00  0.00    +0.000 A 
ATOM      2  C   UNL     1      -4.163  -0.160 131.312  0.00  0.00    +0.000 A 
ATOM      3  C   UNL     1      -4.707  -1.268 131.831  0.00  0.00    +0.000 A 
ATOM      4  C   UNL     1      -6.020  -1.006 131.955  0.00  0.00    +0.000 A 
ATOM      5  C   UNL     1      -6.918  -0.099 131.407  0.00  0.00    +0.000 A 
ATOM      6  C   UNL     1      -6.417   1.008 130.885  0.00  0.00    +0.000 A 
ENDROOT
BRANCH   6   7
ATOM      7  C   UNL     1      -7.529   2.002 130.573  0.00  0.00    +0.000 C 
ATOM      8  O   UNL     1      -8.125   2.545 131.516  0.00  0.00    +0.000 OA
ATOM      9  N   UNL     1      -7.789   2.364 129.233  0.00  0.00    +0.000 N 
ATOM     10  C   UNL     1      -7.283   3.703 128.782  0.00  0.00    +0.000 C 
ATOM     11  C   UNL     1      -8.093   4.227 127.591  0.00  0.00    +0.000 C 
ATOM     12  C   UNL     1      -7.880   3.306 125.976  0.00  0.00    +0.000 C 
ATOM     13  C   UNL     1      -8.603   1.821 126.879  0.00  0.00    +0.000 C 
ATOM     14  C   UNL     1      -7.898   1.320 128.172  0.00  0.00    +0.000 C 
BRANCH  12  15
ATOM     15  N   UNL     1      -7.107   3.822 124.365  0.00  0.00    +0.000 N 
ATOM     16  C   UNL     1      -6.562   2.517 124.487  0.00  0.00    +0.000 C 
ATOM     17  O   UNL     1      -5.794   2.133 125.387  0.00  0.00    +0.000 OA
ATOM     18  O   UNL     1      -7.095   1.641 123.650  0.00  0.00    +0.000 OA
ATOM     19  C   UNL     1      -6.255   1.919 122.598  0.00  0.00    +0.000 C 
ATOM     20  C   UNL     1      -7.071   2.899 121.851  0.00  0.00    +0.000 A 
ATOM     21  C   UNL     1      -8.153   3.609 121.242  0.00  0.00    +0.000 A 
ATOM     22  C   UNL     1      -7.995   4.122 119.909  0.00  0.00    +0.000 A 
ATOM     23  C   UNL     1      -6.695   4.246 119.605  0.00  0.00    +0.000 A 
ATOM     24  C   UNL     1      -5.908   4.273 120.984  0.00  0.00    +0.000 A 
ATOM     25  C   UNL     1      -6.547   3.832 122.462  0.00  0.00    +0.000 A 
ENDBRANCH  12  15
ENDBRANCH   6   7
BRANCH   1  27
ATOM     26  C   UNL     1      -4.238   1.589 128.836  0.00  0.00    +0.000 C 
ATOM     27  O   UNL     1      -4.191   1.826 130.206  0.00  0.00    +0.000 OA
ENDBRANCH   1  27
BRANCH   3  28
ATOM     28  O   UNL     1      -4.102  -2.460 132.118  0.00  0.00    +0.000 OA
BRANCH  28  29
ATOM     29  C   UNL     1      -3.946  -3.634 131.183  0.00  0.00    +0.000 C 
ATOM     30  C   UNL     1      -3.305  -3.333 129.803  0.00  0.00    +0.000 C 
ATOM     31  C   UNL     1      -4.194  -2.513 128.886  0.00  0.00    +0.000 C 
ATOM     32  N   UNL     1      -5.578  -3.153 128.810  0.00  0.00    +0.000 NA
ATOM     33  C   UNL     1      -6.091  -3.758 130.097  0.00  0.00    +0.000 C 
ATOM     34  C   UNL     1      -5.192  -4.492 131.005  0.00  0.00    +0.000 C 
BRANCH  32  35
ATOM     35  C   UNL     1      -6.585  -2.199 128.255  0.00  0.00    +0.000 C 
BRANCH  35  36
ATOM     36  C   UNL     1      -7.257  -2.534 126.962  0.00  0.00    +0.000 A 
ATOM     37  C   UNL     1      -8.445  -3.325 126.905  0.00  0.00    +0.000 A 
ATOM     38  C   UNL     1      -9.228  -3.854 128.076  0.00  0.00    +0.000 C 
ATOM     39  C   UNL     1      -8.965  -3.632 125.687  0.00  0.00    +0.000 A 
ATOM     40  C   UNL     1      -8.668  -2.766 124.663  0.00  0.00    +0.000 A 
ATOM     41  N   UNL     1      -7.543  -1.948 124.672  0.00  0.00    +0.000 N 
ATOM     42  O   UNL     1      -7.215  -1.340 123.610  0.00  0.00    +0.000 OA
ATOM     43  C   UNL     1      -6.788  -1.874 125.822  0.00  0.00    +0.000 A 
ATOM     44  C   UNL     1      -5.545  -1.038 125.855  0.00  0.00    +0.000 C 
ENDBRANCH  35  36
ENDBRANCH  32  35
ENDBRANCH  28  29
ENDBRANCH   3  28
TORSDOF 7
ENDMDL
MODEL 9
REMARK VINA RESULT:      -9.3      3.598      9.135
REMARK  Name = CHEMBL302297
REMARK  10 active torsions:
REMARK  status: ('A' for Active; 'I' for Inactive)
REMARK    1  A    between atoms: C_1  and  O_2
REMARK    2  A    between atoms: O_2  and  C_3
REMARK    3  A    between atoms: C_5  and  O_6
REMARK    4  A    between atoms: O_6  and  C_7
REMARK    5  A    between atoms: N_10  and  C_11
REMARK    6  A    between atoms: C_11  and  C_12
REMARK    7  A    between atoms: C_13  and  C_14
REMARK    8  A    between atoms: C_19  and  C_20
REMARK    9  A    between atoms: C_25  and  C_26
REMARK   10  A    between atoms: C_31  and  N_32
REMARK                            x       y       z     vdW  Elec       q    Type
REMARK                         _______ _______ _______ _____ _____    ______ ____
ROOT
ATOM      1  C   UNL     1      -2.682   5.873 131.657  0.00  0.00    +0.000 A 
ATOM      2  C   UNL     1      -3.341   5.978 132.953  0.00  0.00    +0.000 A 
ATOM      3  C   UNL     1      -4.647   6.258 133.040  0.00  0.00    +0.000 A 
ATOM      4  C   UNL     1      -5.036   6.575 131.793  0.00  0.00    +0.000 A 
ATOM      5  C   UNL     1      -4.554   6.362 130.507  0.00  0.00    +0.000 A 
ATOM      6  C   UNL     1      -3.267   6.083 130.382  0.00  0.00    +0.000 A 
ENDROOT
BRANCH   6   7
ATOM      7  C   UNL     1      -2.848   6.141 128.918  0.00  0.00    +0.000 C 
ATOM      8  O   UNL     1      -2.008   6.985 128.571  0.00  0.00    +0.000 OA
ATOM      9  N   UNL     1      -3.338   5.176 128.011  0.00  0.00    +0.000 N 
ATOM     10  C   UNL     1      -2.395   4.077 127.616  0.00  0.00    +0.000 C 
ATOM     11  C   UNL     1      -2.781   3.480 126.258  0.00  0.00    +0.000 C 
ATOM     12  C   UNL     1      -4.371   2.496 126.207  0.00  0.00    +0.000 C 
ATOM     13  C   UNL     1      -5.228   4.104 126.677  0.00  0.00    +0.000 C 
ATOM     14  C   UNL     1      -4.789   4.828 127.982  0.00  0.00    +0.000 C 
BRANCH  12  15
ATOM     15  N   UNL     1      -4.680   0.681 125.941  0.00  0.00    +0.000 N 
ATOM     16  C   UNL     1      -5.564   0.919 127.026  0.00  0.00    +0.000 C 
ATOM     17  O   UNL     1      -5.228   1.275 128.169  0.00  0.00    +0.000 OA
ATOM     18  O   UNL     1      -6.841   0.920 126.677  0.00  0.00    +0.000 OA
ATOM     19  C   UNL     1      -7.023  -0.436 126.796  0.00  0.00    +0.000 C 
ATOM     20  C   UNL     1      -6.800  -0.863 125.399  0.00  0.00    +0.000 A 
ATOM     21  C   UNL     1      -6.774  -0.940 123.971  0.00  0.00    +0.000 A 
ATOM     22  C   UNL     1      -7.057  -2.194 123.329  0.00  0.00    +0.000 A 
ATOM     23  C   UNL     1      -6.862  -3.211 124.180  0.00  0.00    +0.000 A 
ATOM     24  C   UNL     1      -5.926  -2.659 125.339  0.00  0.00    +0.000 A 
ATOM     25  C   UNL     1      -5.603  -1.046 125.624  0.00  0.00    +0.000 A 
ENDBRANCH  12  15
ENDBRANCH   6   7
BRANCH   1  27
ATOM     26  C   UNL     1      -0.834   6.162 132.885  0.00  0.00    +0.000 C 
ATOM     27  O   UNL     1      -1.423   5.408 131.874  0.00  0.00    +0.000 OA
ENDBRANCH   1  27
BRANCH   3  28
ATOM     28  O   UNL     1      -5.465   6.178 134.133  0.00  0.00    +0.000 OA
BRANCH  28  29
ATOM     29  C   UNL     1      -5.713   4.954 134.978  0.00  0.00    +0.000 C 
ATOM     30  C   UNL     1      -5.570   3.584 134.263  0.00  0.00    +0.000 C 
ATOM     31  C   UNL     1      -6.668   3.309 133.253  0.00  0.00    +0.000 C 
ATOM     32  N   UNL     1      -8.030   3.539 133.903  0.00  0.00    +0.000 NA
ATOM     33  C   UNL     1      -8.104   4.693 134.877  0.00  0.00    +0.000 C 
ATOM     34  C   UNL     1      -6.994   4.982 135.802  0.00  0.00    +0.000 C 
BRANCH  32  35
ATOM     35  C   UNL     1      -9.106   3.666 132.875  0.00  0.00    +0.000 C 
BRANCH  35  36
ATOM     36  C   UNL     1      -8.793   3.309 131.457  0.00  0.00    +0.000 A 
ATOM     37  C   UNL     1      -8.817   1.961 130.989  0.00  0.00    +0.000 A 
ATOM     38  C   UNL     1      -9.225   0.745 131.776  0.00  0.00    +0.000 C 
ATOM     39  C   UNL     1      -8.466   1.712 129.699  0.00  0.00    +0.000 A 
ATOM     40  C   UNL     1      -8.634   2.749 128.813  0.00  0.00    +0.000 A 
ATOM     41  N   UNL     1      -8.648   4.082 129.209  0.00  0.00    +0.000 N 
ATOM     42  O   UNL     1      -8.588   4.988 128.326  0.00  0.00    +0.000 OA
ATOM     43  C   UNL     1      -8.669   4.371 130.556  0.00  0.00    +0.000 A 
ATOM     44  C   UNL     1      -8.641   5.795 131.021  0.00  0.00    +0.000 C 
ENDBRANCH  35  36
ENDBRANCH  32  35
ENDBRANCH  28  29
ENDBRANCH   3  28
TORSDOF 7
ENDMDL
