MODEL 1
REMARK VINA RESULT:     -10.8      0.000      0.000
REMARK  Name = CHEMBL308673
REMARK  11 active torsions:
REMARK  status: ('A' for Active; 'I' for Inactive)
REMARK    1  A    between atoms: C_1  and  O_2
REMARK    2  A    between atoms: O_2  and  C_3
REMARK    3  A    between atoms: C_5  and  O_6
REMARK    4  A    between atoms: O_6  and  C_7
REMARK    5  A    between atoms: N_10  and  C_11
REMARK    6  A    between atoms: C_11  and  C_12
REMARK    7  A    between atoms: C_13  and  C_14
REMARK    8  A    between atoms: C_16  and  C_17
REMARK    9  A    between atoms: C_20  and  C_21
REMARK   10  A    between atoms: C_27  and  C_28
REMARK   11  A    between atoms: C_33  and  N_34
REMARK                            x       y       z     vdW  Elec       q    Type
REMARK                         _______ _______ _______ _____ _____    ______ ____
ROOT
ATOM      1  C   UNL     1      -5.172   1.920 129.894  0.00  0.00    +0.000 A 
ATOM      2  C   UNL     1      -5.034   0.864 128.886  0.00  0.00    +0.000 A 
ATOM      3  C   UNL     1      -5.311  -0.419 129.199  0.00  0.00    +0.000 A 
ATOM      4  C   UNL     1      -5.683  -0.418 130.495  0.00  0.00    +0.000 A 
ATOM      5  F   UNL     1      -5.806  -1.565 130.966  0.00  0.00    +0.000 F 
ATOM      6  C   UNL     1      -5.867   0.483 131.515  0.00  0.00    +0.000 A 
ATOM      7  C   UNL     1      -5.627   1.745 131.213  0.00  0.00    +0.000 A 
ENDROOT
BRANCH   7   8
ATOM      8  C   UNL     1      -5.833   2.641 132.385  0.00  0.00    +0.000 C 
ATOM      9  O   UNL     1      -5.083   2.573 133.365  0.00  0.00    +0.000 OA
ATOM     10  N   UNL     1      -6.874   3.535 132.332  0.00  0.00    +0.000 N 
ATOM     11  C   UNL     1      -6.548   4.941 132.228  0.00  0.00    +0.000 C 
ATOM     12  C   UNL     1      -7.617   5.757 132.950  0.00  0.00    +0.000 C 
ATOM     13  C   UNL     1      -9.226   5.595 132.189  0.00  0.00    +0.000 C 
ATOM     14  C   UNL     1      -9.321   3.917 132.554  0.00  0.00    +0.000 C 
ATOM     15  C   UNL     1      -8.195   3.155 131.877  0.00  0.00    +0.000 C 
BRANCH  13  16
ATOM     16  N   UNL     1     -10.108   6.849 131.149  0.00  0.00    +0.000 N 
ATOM     17  C   UNL     1      -9.474   6.169 130.090  0.00  0.00    +0.000 C 
ATOM     18  O   UNL     1      -8.219   5.928 129.932  0.00  0.00    +0.000 OA
ATOM     19  O   UNL     1     -10.300   5.477 129.347  0.00  0.00    +0.000 OA
ATOM     20  C   UNL     1     -10.372   6.362 128.303  0.00  0.00    +0.000 C 
ATOM     21  C   UNL     1     -11.589   7.022 128.760  0.00  0.00    +0.000 A 
ATOM     22  C   UNL     1     -12.505   7.199 127.551  0.00  0.00    +0.000 A 
ATOM     23  C   UNL     1     -13.520   8.089 127.422  0.00  0.00    +0.000 A 
ATOM     24  C   UNL     1     -13.469   8.941 128.499  0.00  0.00    +0.000 A 
ATOM     25  C   UNL     1     -12.464   8.714 129.806  0.00  0.00    +0.000 A 
ATOM     26  C   UNL     1     -11.511   7.503 130.111  0.00  0.00    +0.000 A 
ENDBRANCH  13  16
ENDBRANCH   7   8
BRANCH   1  28
ATOM     27  C   UNL     1      -5.691   3.795 128.759  0.00  0.00    +0.000 C 
ATOM     28  O   UNL     1      -4.712   3.147 129.556  0.00  0.00    +0.000 OA
ENDBRANCH   1  28
BRANCH   3  29
ATOM     29  O   UNL     1      -5.163  -1.524 128.406  0.00  0.00    +0.000 OA
BRANCH  29  30
ATOM     30  C   UNL     1      -6.057  -2.018 127.304  0.00  0.00    +0.000 C 
ATOM     31  C   UNL     1      -5.657  -1.714 125.836  0.00  0.00    +0.000 C 
ATOM     32  C   UNL     1      -5.949  -0.296 125.364  0.00  0.00    +0.000 C 
ATOM     33  N   UNL     1      -7.409   0.097 125.691  0.00  0.00    +0.000 NA
ATOM     34  C   UNL     1      -7.954  -0.460 127.001  0.00  0.00    +0.000 C 
ATOM     35  C   UNL     1      -7.570  -1.825 127.475  0.00  0.00    +0.000 C 
BRANCH  33  36
ATOM     36  C   UNL     1      -7.469   1.606 125.713  0.00  0.00    +0.000 C 
BRANCH  36  37
ATOM     37  C   UNL     1      -7.678   2.314 124.390  0.00  0.00    +0.000 A 
ATOM     38  C   UNL     1      -8.839   2.208 123.566  0.00  0.00    +0.000 A 
ATOM     39  C   UNL     1     -10.161   1.573 123.906  0.00  0.00    +0.000 C 
ATOM     40  C   UNL     1      -8.769   2.665 122.267  0.00  0.00    +0.000 A 
ATOM     41  C   UNL     1      -7.665   3.395 121.853  0.00  0.00    +0.000 A 
ATOM     42  C   UNL     1      -7.619   3.933 120.470  0.00  0.00    +0.000 C 
ATOM     43  N   UNL     1      -6.606   3.690 122.716  0.00  0.00    +0.000 N 
ATOM     44  O   UNL     1      -5.641   4.422 122.322  0.00  0.00    +0.000 OA
ATOM     45  C   UNL     1      -6.614   3.148 123.989  0.00  0.00    +0.000 A 
ATOM     46  C   UNL     1      -5.495   3.488 124.934  0.00  0.00    +0.000 C 
ENDBRANCH  36  37
ENDBRANCH  33  36
ENDBRANCH  29  30
ENDBRANCH   3  29
TORSDOF 7
ENDMDL
MODEL 2
REMARK VINA RESULT:     -10.8      1.835      2.408
REMARK  Name = CHEMBL308673
REMARK  11 active torsions:
REMARK  status: ('A' for Active; 'I' for Inactive)
REMARK    1  A    between atoms: C_1  and  O_2
REMARK    2  A    between atoms: O_2  and  C_3
REMARK    3  A    between atoms: C_5  and  O_6
REMARK    4  A    between atoms: O_6  and  C_7
REMARK    5  A    between atoms: N_10  and  C_11
REMARK    6  A    between atoms: C_11  and  C_12
REMARK    7  A    between atoms: C_13  and  C_14
REMARK    8  A    between atoms: C_16  and  C_17
REMARK    9  A    between atoms: C_20  and  C_21
REMARK   10  A    between atoms: C_27  and  C_28
REMARK   11  A    between atoms: C_33  and  N_34
REMARK                            x       y       z     vdW  Elec       q    Type
REMARK                         _______ _______ _______ _____ _____    ______ ____
ROOT
ATOM      1  C   UNL     1      -5.710   0.140 128.586  0.00  0.00    +0.000 A 
ATOM      2  C   UNL     1      -5.733  -0.364 127.209  0.00  0.00    +0.000 A 
ATOM      3  C   UNL     1      -6.378  -1.512 126.912  0.00  0.00    +0.000 A 
ATOM      4  C   UNL     1      -6.895  -1.963 128.072  0.00  0.00    +0.000 A 
ATOM      5  F   UNL     1      -7.376  -3.109 127.976  0.00  0.00    +0.000 F 
ATOM      6  C   UNL     1      -6.958  -1.584 129.390  0.00  0.00    +0.000 A 
ATOM      7  C   UNL     1      -6.356  -0.448 129.688  0.00  0.00    +0.000 A 
ENDROOT
BRANCH   7   8
ATOM      8  C   UNL     1      -6.461  -0.133 131.140  0.00  0.00    +0.000 C 
ATOM      9  O   UNL     1      -5.758  -0.728 131.963  0.00  0.00    +0.000 OA
ATOM     10  N   UNL     1      -7.357   0.837 131.521  0.00  0.00    +0.000 N 
ATOM     11  C   UNL     1      -6.824   2.084 132.026  0.00  0.00    +0.000 C 
ATOM     12  C   UNL     1      -7.781   2.649 133.072  0.00  0.00    +0.000 C 
ATOM     13  C   UNL     1      -9.374   3.071 132.379  0.00  0.00    +0.000 C 
ATOM     14  C   UNL     1      -9.726   1.435 131.982  0.00  0.00    +0.000 C 
ATOM     15  C   UNL     1      -8.705   0.889 130.998  0.00  0.00    +0.000 C 
BRANCH  13  16
ATOM     16  N   UNL     1     -10.031   4.766 132.023  0.00  0.00    +0.000 N 
ATOM     17  C   UNL     1      -9.347   4.590 130.803  0.00  0.00    +0.000 C 
ATOM     18  O   UNL     1      -8.108   4.297 130.615  0.00  0.00    +0.000 OA
ATOM     19  O   UNL     1     -10.147   4.439 129.776  0.00  0.00    +0.000 OA
ATOM     20  C   UNL     1     -10.031   5.712 129.282  0.00  0.00    +0.000 C 
ATOM     21  C   UNL     1     -11.230   6.226 129.934  0.00  0.00    +0.000 A 
ATOM     22  C   UNL     1     -11.994   7.065 128.912  0.00  0.00    +0.000 A 
ATOM     23  C   UNL     1     -12.910   8.030 129.172  0.00  0.00    +0.000 A 
ATOM     24  C   UNL     1     -12.902   8.260 130.527  0.00  0.00    +0.000 A 
ATOM     25  C   UNL     1     -12.064   7.321 131.616  0.00  0.00    +0.000 A 
ATOM     26  C   UNL     1     -11.255   6.001 131.353  0.00  0.00    +0.000 A 
ENDBRANCH  13  16
ENDBRANCH   7   8
BRANCH   1  28
ATOM     27  C   UNL     1      -5.547   2.377 128.379  0.00  0.00    +0.000 C 
ATOM     28  O   UNL     1      -4.902   1.197 128.833  0.00  0.00    +0.000 OA
ENDBRANCH   1  28
BRANCH   3  29
ATOM     29  O   UNL     1      -6.431  -2.152 125.705  0.00  0.00    +0.000 OA
BRANCH  29  30
ATOM     30  C   UNL     1      -7.465  -2.035 124.621  0.00  0.00    +0.000 C 
ATOM     31  C   UNL     1      -7.016  -1.537 123.221  0.00  0.00    +0.000 C 
ATOM     32  C   UNL     1      -6.801  -0.034 123.106  0.00  0.00    +0.000 C 
ATOM     33  N   UNL     1      -8.022   0.736 123.662  0.00  0.00    +0.000 NA
ATOM     34  C   UNL     1      -8.700   0.095 124.868  0.00  0.00    +0.000 C 
ATOM     35  C   UNL     1      -8.810  -1.392 124.988  0.00  0.00    +0.000 C 
BRANCH  33  36
ATOM     36  C   UNL     1      -7.547   2.124 124.020  0.00  0.00    +0.000 C 
BRANCH  36  37
ATOM     37  C   UNL     1      -7.143   3.037 122.881  0.00  0.00    +0.000 A 
ATOM     38  C   UNL     1      -7.879   3.234 121.673  0.00  0.00    +0.000 A 
ATOM     39  C   UNL     1      -9.276   2.772 121.355  0.00  0.00    +0.000 C 
ATOM     40  C   UNL     1      -7.253   3.855 120.613  0.00  0.00    +0.000 A 
ATOM     41  C   UNL     1      -6.016   4.454 120.801  0.00  0.00    +0.000 A 
ATOM     42  C   UNL     1      -5.371   5.169 119.671  0.00  0.00    +0.000 C 
ATOM     43  N   UNL     1      -5.372   4.452 122.041  0.00  0.00    +0.000 N 
ATOM     44  O   UNL     1      -4.270   5.072 122.194  0.00  0.00    +0.000 OA
ATOM     45  C   UNL     1      -5.940   3.742 123.085  0.00  0.00    +0.000 A 
ATOM     46  C   UNL     1      -5.269   3.763 124.430  0.00  0.00    +0.000 C 
ENDBRANCH  36  37
ENDBRANCH  33  36
ENDBRANCH  29  30
ENDBRANCH   3  29
TORSDOF 7
ENDMDL
MODEL 3
REMARK VINA RESULT:     -10.8      3.513      5.820
REMARK  Name = CHEMBL308673
REMARK  11 active torsions:
REMARK  status: ('A' for Active; 'I' for Inactive)
REMARK    1  A    between atoms: C_1  and  O_2
REMARK    2  A    between atoms: O_2  and  C_3
REMARK    3  A    between atoms: C_5  and  O_6
REMARK    4  A    between atoms: O_6  and  C_7
REMARK    5  A    between atoms: N_10  and  C_11
REMARK    6  A    between atoms: C_11  and  C_12
REMARK    7  A    between atoms: C_13  and  C_14
REMARK    8  A    between atoms: C_16  and  C_17
REMARK    9  A    between atoms: C_20  and  C_21
REMARK   10  A    between atoms: C_27  and  C_28
REMARK   11  A    between atoms: C_33  and  N_34
REMARK                            x       y       z     vdW  Elec       q    Type
REMARK                         _______ _______ _______ _____ _____    ______ ____
ROOT
ATOM      1  C   UNL     1      -6.309   0.110 132.556  0.00  0.00    +0.000 A 
ATOM      2  C   UNL     1      -5.769  -1.239 132.754  0.00  0.00    +0.000 A 
ATOM      3  C   UNL     1      -4.624  -1.613 132.145  0.00  0.00    +0.000 A 
ATOM      4  C   UNL     1      -4.215  -0.547 131.428  0.00  0.00    +0.000 A 
ATOM      5  F   UNL     1      -3.255  -0.807 130.677  0.00  0.00    +0.000 F 
ATOM      6  C   UNL     1      -4.611   0.744 131.182  0.00  0.00    +0.000 A 
ATOM      7  C   UNL     1      -5.714   1.131 131.795  0.00  0.00    +0.000 A 
ENDROOT
BRANCH   7   8
ATOM      8  C   UNL     1      -6.073   2.535 131.450  0.00  0.00    +0.000 C 
ATOM      9  O   UNL     1      -6.035   3.421 132.308  0.00  0.00    +0.000 OA
ATOM     10  N   UNL     1      -6.440   2.799 130.152  0.00  0.00    +0.000 N 
ATOM     11  C   UNL     1      -5.538   3.594 129.347  0.00  0.00    +0.000 C 
ATOM     12  C   UNL     1      -6.351   4.422 128.355  0.00  0.00    +0.000 C 
ATOM     13  C   UNL     1      -7.241   3.403 127.188  0.00  0.00    +0.000 C 
ATOM     14  C   UNL     1      -8.219   2.704 128.418  0.00  0.00    +0.000 C 
ATOM     15  C   UNL     1      -7.362   1.955 129.424  0.00  0.00    +0.000 C 
BRANCH  13  16
ATOM     16  N   UNL     1      -6.836   3.127 125.401  0.00  0.00    +0.000 N 
ATOM     17  C   UNL     1      -8.115   2.534 125.378  0.00  0.00    +0.000 C 
ATOM     18  O   UNL     1      -8.569   1.584 126.118  0.00  0.00    +0.000 OA
ATOM     19  O   UNL     1      -9.001   3.234 124.715  0.00  0.00    +0.000 OA
ATOM     20  C   UNL     1      -8.990   2.481 123.570  0.00  0.00    +0.000 C 
ATOM     21  C   UNL     1      -8.032   3.319 122.858  0.00  0.00    +0.000 A 
ATOM     22  C   UNL     1      -8.546   3.507 121.433  0.00  0.00    +0.000 A 
ATOM     23  C   UNL     1      -7.816   3.854 120.343  0.00  0.00    +0.000 A 
ATOM     24  C   UNL     1      -6.490   3.827 120.702  0.00  0.00    +0.000 A 
ATOM     25  C   UNL     1      -5.963   3.627 122.268  0.00  0.00    +0.000 A 
ATOM     26  C   UNL     1      -6.814   3.547 123.585  0.00  0.00    +0.000 A 
ENDBRANCH  13  16
ENDBRANCH   7   8
BRANCH   1  28
ATOM     27  C   UNL     1      -8.508  -0.190 132.167  0.00  0.00    +0.000 C 
ATOM     28  O   UNL     1      -7.543   0.350 133.058  0.00  0.00    +0.000 OA
ENDBRANCH   1  28
BRANCH   3  29
ATOM     29  O   UNL     1      -4.032  -2.845 132.164  0.00  0.00    +0.000 OA
BRANCH  29  30
ATOM     30  C   UNL     1      -4.211  -3.990 131.207  0.00  0.00    +0.000 C 
ATOM     31  C   UNL     1      -3.505  -3.918 129.826  0.00  0.00    +0.000 C 
ATOM     32  C   UNL     1      -4.182  -3.022 128.798  0.00  0.00    +0.000 C 
ATOM     33  N   UNL     1      -5.688  -3.354 128.693  0.00  0.00    +0.000 NA
ATOM     34  C   UNL     1      -6.359  -3.750 130.004  0.00  0.00    +0.000 C 
ATOM     35  C   UNL     1      -5.627  -4.555 131.030  0.00  0.00    +0.000 C 
BRANCH  33  36
ATOM     36  C   UNL     1      -6.373  -2.138 128.115  0.00  0.00    +0.000 C 
BRANCH  36  37
ATOM     37  C   UNL     1      -7.279  -2.352 126.921  0.00  0.00    +0.000 A 
ATOM     38  C   UNL     1      -8.431  -3.196 126.892  0.00  0.00    +0.000 A 
ATOM     39  C   UNL     1      -9.113  -3.871 128.052  0.00  0.00    +0.000 C 
ATOM     40  C   UNL     1      -8.979  -3.522 125.669  0.00  0.00    +0.000 A 
ATOM     41  C   UNL     1      -8.544  -2.869 124.525  0.00  0.00    +0.000 A 
ATOM     42  C   UNL     1      -9.176  -3.183 123.219  0.00  0.00    +0.000 C 
ATOM     43  N   UNL     1      -7.556  -1.881 124.566  0.00  0.00    +0.000 N 
ATOM     44  O   UNL     1      -7.231  -1.255 123.506  0.00  0.00    +0.000 OA
ATOM     45  C   UNL     1      -6.924  -1.621 125.769  0.00  0.00    +0.000 A 
ATOM     46  C   UNL     1      -5.884  -0.537 125.827  0.00  0.00    +0.000 C 
ENDBRANCH  36  37
ENDBRANCH  33  36
ENDBRANCH  29  30
ENDBRANCH   3  29
TORSDOF 7
ENDMDL
MODEL 4
REMARK VINA RESULT:     -10.7      3.582      8.011
REMARK  Name = CHEMBL308673
REMARK  11 active torsions:
REMARK  status: ('A' for Active; 'I' for Inactive)
REMARK    1  A    between atoms: C_1  and  O_2
REMARK    2  A    between atoms: O_2  and  C_3
REMARK    3  A    between atoms: C_5  and  O_6
REMARK    4  A    between atoms: O_6  and  C_7
REMARK    5  A    between atoms: N_10  and  C_11
REMARK    6  A    between atoms: C_11  and  C_12
REMARK    7  A    between atoms: C_13  and  C_14
REMARK    8  A    between atoms: C_16  and  C_17
REMARK    9  A    between atoms: C_20  and  C_21
REMARK   10  A    between atoms: C_27  and  C_28
REMARK   11  A    between atoms: C_33  and  N_34
REMARK                            x       y       z     vdW  Elec       q    Type
REMARK                         _______ _______ _______ _____ _____    ______ ____
ROOT
ATOM      1  C   UNL     1      -7.808   2.959 123.580  0.00  0.00    +0.000 A 
ATOM      2  C   UNL     1      -8.151   1.776 122.783  0.00  0.00    +0.000 A 
ATOM      3  C   UNL     1      -8.914   0.796 123.310  0.00  0.00    +0.000 A 
ATOM      4  C   UNL     1      -9.202   1.180 124.570  0.00  0.00    +0.000 A 
ATOM      5  F   UNL     1      -9.762   0.286 125.234  0.00  0.00    +0.000 F 
ATOM      6  C   UNL     1      -8.963   2.243 125.405  0.00  0.00    +0.000 A 
ATOM      7  C   UNL     1      -8.243   3.223 124.891  0.00  0.00    +0.000 A 
ENDROOT
BRANCH   7   8
ATOM      8  C   UNL     1      -8.020   4.318 125.875  0.00  0.00    +0.000 C 
ATOM      9  O   UNL     1      -8.698   5.349 125.831  0.00  0.00    +0.000 OA
ATOM     10  N   UNL     1      -7.042   4.135 126.824  0.00  0.00    +0.000 N 
ATOM     11  C   UNL     1      -7.464   3.963 128.198  0.00  0.00    +0.000 C 
ATOM     12  C   UNL     1      -6.404   4.556 129.123  0.00  0.00    +0.000 C 
ATOM     13  C   UNL     1      -4.841   3.697 129.005  0.00  0.00    +0.000 C 
ATOM     14  C   UNL     1      -4.616   4.163 127.364  0.00  0.00    +0.000 C 
ATOM     15  C   UNL     1      -5.733   3.616 126.493  0.00  0.00    +0.000 C 
BRANCH  13  16
ATOM     16  N   UNL     1      -4.109   2.520 130.234  0.00  0.00    +0.000 N 
ATOM     17  C   UNL     1      -3.722   3.708 130.887  0.00  0.00    +0.000 C 
ATOM     18  O   UNL     1      -3.044   4.695 130.416  0.00  0.00    +0.000 OA
ATOM     19  O   UNL     1      -4.377   3.926 132.001  0.00  0.00    +0.000 OA
ATOM     20  C   UNL     1      -3.390   3.518 132.860  0.00  0.00    +0.000 C 
ATOM     21  C   UNL     1      -3.893   2.159 133.019  0.00  0.00    +0.000 A 
ATOM     22  C   UNL     1      -3.827   1.808 134.503  0.00  0.00    +0.000 A 
ATOM     23  C   UNL     1      -3.805   0.565 135.047  0.00  0.00    +0.000 A 
ATOM     24  C   UNL     1      -3.664  -0.337 134.019  0.00  0.00    +0.000 A 
ATOM     25  C   UNL     1      -3.750   0.078 132.410  0.00  0.00    +0.000 A 
ATOM     26  C   UNL     1      -4.098   1.471 131.774  0.00  0.00    +0.000 A 
ENDBRANCH  13  16
ENDBRANCH   7   8
BRANCH   1  28
ATOM     27  C   UNL     1      -6.340   3.207 121.889  0.00  0.00    +0.000 C 
ATOM     28  O   UNL     1      -6.902   3.810 123.045  0.00  0.00    +0.000 OA
ENDBRANCH   1  28
BRANCH   3  29
ATOM     29  O   UNL     1      -9.259  -0.396 122.734  0.00  0.00    +0.000 OA
BRANCH  29  30
ATOM     30  C   UNL     1      -8.621  -1.745 122.908  0.00  0.00    +0.000 C 
ATOM     31  C   UNL     1      -9.400  -2.837 123.690  0.00  0.00    +0.000 C 
ATOM     32  C   UNL     1      -9.378  -2.690 125.205  0.00  0.00    +0.000 C 
ATOM     33  N   UNL     1      -7.930  -2.496 125.712  0.00  0.00    +0.000 NA
ATOM     34  C   UNL     1      -7.024  -1.681 124.796  0.00  0.00    +0.000 C 
ATOM     35  C   UNL     1      -7.140  -1.785 123.309  0.00  0.00    +0.000 C 
BRANCH  33  36
ATOM     36  C   UNL     1      -8.018  -1.832 127.066  0.00  0.00    +0.000 C 
BRANCH  36  37
ATOM     37  C   UNL     1      -6.884  -2.081 128.039  0.00  0.00    +0.000 A 
ATOM     38  C   UNL     1      -5.709  -1.279 128.168  0.00  0.00    +0.000 A 
ATOM     39  C   UNL     1      -5.434   0.067 127.552  0.00  0.00    +0.000 C 
ATOM     40  C   UNL     1      -4.639  -1.787 128.875  0.00  0.00    +0.000 A 
ATOM     41  C   UNL     1      -4.792  -2.952 129.611  0.00  0.00    +0.000 A 
ATOM     42  C   UNL     1      -3.654  -3.464 130.414  0.00  0.00    +0.000 C 
ATOM     43  N   UNL     1      -6.006  -3.641 129.664  0.00  0.00    +0.000 N 
ATOM     44  O   UNL     1      -6.130  -4.669 130.405  0.00  0.00    +0.000 OA
ATOM     45  C   UNL     1      -7.056  -3.202 128.875  0.00  0.00    +0.000 A 
ATOM     46  C   UNL     1      -8.375  -3.919 128.952  0.00  0.00    +0.000 C 
ENDBRANCH  36  37
ENDBRANCH  33  36
ENDBRANCH  29  30
ENDBRANCH   3  29
TORSDOF 7
ENDMDL
MODEL 5
REMARK VINA RESULT:     -10.7      3.705      5.628
REMARK  Name = CHEMBL308673
REMARK  11 active torsions:
REMARK  status: ('A' for Active; 'I' for Inactive)
REMARK    1  A    between atoms: C_1  and  O_2
REMARK    2  A    between atoms: O_2  and  C_3
REMARK    3  A    between atoms: C_5  and  O_6
REMARK    4  A    between atoms: O_6  and  C_7
REMARK    5  A    between atoms: N_10  and  C_11
REMARK    6  A    between atoms: C_11  and  C_12
REMARK    7  A    between atoms: C_13  and  C_14
REMARK    8  A    between atoms: C_16  and  C_17
REMARK    9  A    between atoms: C_20  and  C_21
REMARK   10  A    between atoms: C_27  and  C_28
REMARK   11  A    between atoms: C_33  and  N_34
REMARK                            x       y       z     vdW  Elec       q    Type
REMARK                         _______ _______ _______ _____ _____    ______ ____
ROOT
ATOM      1  C   UNL     1      -6.291   1.301 131.505  0.00  0.00    +0.000 A 
ATOM      2  C   UNL     1      -6.688  -0.093 131.734  0.00  0.00    +0.000 A 
ATOM      3  C   UNL     1      -5.782  -1.087 131.623  0.00  0.00    +0.000 A 
ATOM      4  C   UNL     1      -4.616  -0.498 131.293  0.00  0.00    +0.000 A 
ATOM      5  F   UNL     1      -3.726  -1.318 130.992  0.00  0.00    +0.000 F 
ATOM      6  C   UNL     1      -4.123   0.764 131.074  0.00  0.00    +0.000 A 
ATOM      7  C   UNL     1      -4.992   1.749 131.209  0.00  0.00    +0.000 A 
ENDROOT
BRANCH   7   8
ATOM      8  C   UNL     1      -4.371   3.074 130.931  0.00  0.00    +0.000 C 
ATOM      9  O   UNL     1      -3.763   3.680 131.819  0.00  0.00    +0.000 OA
ATOM     10  N   UNL     1      -4.498   3.586 129.662  0.00  0.00    +0.000 N 
ATOM     11  C   UNL     1      -3.305   3.664 128.846  0.00  0.00    +0.000 C 
ATOM     12  C   UNL     1      -3.410   4.875 127.923  0.00  0.00    +0.000 C 
ATOM     13  C   UNL     1      -4.760   4.730 126.761  0.00  0.00    +0.000 C 
ATOM     14  C   UNL     1      -5.944   4.750 128.008  0.00  0.00    +0.000 C 
ATOM     15  C   UNL     1      -5.756   3.570 128.946  0.00  0.00    +0.000 C 
BRANCH  13  16
ATOM     16  N   UNL     1      -4.648   4.362 124.949  0.00  0.00    +0.000 N 
ATOM     17  C   UNL     1      -5.529   3.312 125.279  0.00  0.00    +0.000 C 
ATOM     18  O   UNL     1      -5.377   2.389 126.163  0.00  0.00    +0.000 OA
ATOM     19  O   UNL     1      -6.742   3.488 124.819  0.00  0.00    +0.000 OA
ATOM     20  C   UNL     1      -6.644   2.632 123.753  0.00  0.00    +0.000 C 
ATOM     21  C   UNL     1      -6.299   3.660 122.778  0.00  0.00    +0.000 A 
ATOM     22  C   UNL     1      -7.121   3.402 121.517  0.00  0.00    +0.000 A 
ATOM     23  C   UNL     1      -6.846   3.836 120.262  0.00  0.00    +0.000 A 
ATOM     24  C   UNL     1      -5.591   4.396 120.280  0.00  0.00    +0.000 A 
ATOM     25  C   UNL     1      -4.724   4.671 121.674  0.00  0.00    +0.000 A 
ATOM     26  C   UNL     1      -5.174   4.466 123.164  0.00  0.00    +0.000 A 
ENDBRANCH  13  16
ENDBRANCH   7   8
BRANCH   1  28
ATOM     27  C   UNL     1      -8.468   1.582 131.000  0.00  0.00    +0.000 C 
ATOM     28  O   UNL     1      -7.287   2.217 131.464  0.00  0.00    +0.000 OA
ENDBRANCH   1  28
BRANCH   3  29
ATOM     29  O   UNL     1      -6.002  -2.433 131.729  0.00  0.00    +0.000 OA
BRANCH  29  30
ATOM     30  C   UNL     1      -6.387  -3.411 130.654  0.00  0.00    +0.000 C 
ATOM     31  C   UNL     1      -5.325  -3.795 129.589  0.00  0.00    +0.000 C 
ATOM     32  C   UNL     1      -5.103  -2.760 128.494  0.00  0.00    +0.000 C 
ATOM     33  N   UNL     1      -6.451  -2.321 127.877  0.00  0.00    +0.000 NA
ATOM     34  C   UNL     1      -7.617  -2.240 128.856  0.00  0.00    +0.000 C 
ATOM     35  C   UNL     1      -7.751  -3.222 129.976  0.00  0.00    +0.000 C 
BRANCH  33  36
ATOM     36  C   UNL     1      -6.227  -0.971 127.236  0.00  0.00    +0.000 C 
BRANCH  36  37
ATOM     37  C   UNL     1      -7.118  -0.600 126.069  0.00  0.00    +0.000 A 
ATOM     38  C   UNL     1      -8.244   0.277 126.128  0.00  0.00    +0.000 A 
ATOM     39  C   UNL     1      -8.662   1.171 127.266  0.00  0.00    +0.000 C 
ATOM     40  C   UNL     1      -9.127   0.288 125.070  0.00  0.00    +0.000 A 
ATOM     41  C   UNL     1      -8.804  -0.378 123.898  0.00  0.00    +0.000 A 
ATOM     42  C   UNL     1      -9.732  -0.317 122.741  0.00  0.00    +0.000 C 
ATOM     43  N   UNL     1      -7.600  -1.072 123.747  0.00  0.00    +0.000 N 
ATOM     44  O   UNL     1      -7.306  -1.614 122.633  0.00  0.00    +0.000 OA
ATOM     45  C   UNL     1      -6.754  -1.181 124.837  0.00  0.00    +0.000 A 
ATOM     46  C   UNL     1      -5.442  -1.897 124.673  0.00  0.00    +0.000 C 
ENDBRANCH  36  37
ENDBRANCH  33  36
ENDBRANCH  29  30
ENDBRANCH   3  29
TORSDOF 7
ENDMDL
MODEL 6
REMARK VINA RESULT:     -10.7      1.970      2.480
REMARK  Name = CHEMBL308673
REMARK  11 active torsions:
REMARK  status: ('A' for Active; 'I' for Inactive)
REMARK    1  A    between atoms: C_1  and  O_2
REMARK    2  A    between atoms: O_2  and  C_3
REMARK    3  A    between atoms: C_5  and  O_6
REMARK    4  A    between atoms: O_6  and  C_7
REMARK    5  A    between atoms: N_10  and  C_11
REMARK    6  A    between atoms: C_11  and  C_12
REMARK    7  A    between atoms: C_13  and  C_14
REMARK    8  A    between atoms: C_16  and  C_17
REMARK    9  A    between atoms: C_20  and  C_21
REMARK   10  A    between atoms: C_27  and  C_28
REMARK   11  A    between atoms: C_33  and  N_34
REMARK                            x       y       z     vdW  Elec       q    Type
REMARK                         _______ _______ _______ _____ _____    ______ ____
ROOT
ATOM      1  C   UNL     1      -5.749   0.174 129.418  0.00  0.00    +0.000 A 
ATOM      2  C   UNL     1      -5.480  -0.416 128.103  0.00  0.00    +0.000 A 
ATOM      3  C   UNL     1      -5.802  -1.702 127.852  0.00  0.00    +0.000 A 
ATOM      4  C   UNL     1      -6.345  -2.182 128.989  0.00  0.00    +0.000 A 
ATOM      5  F   UNL     1      -6.535  -3.413 128.954  0.00  0.00    +0.000 F 
ATOM      6  C   UNL     1      -6.661  -1.738 130.248  0.00  0.00    +0.000 A 
ATOM      7  C   UNL     1      -6.379  -0.472 130.497  0.00  0.00    +0.000 A 
ENDROOT
BRANCH   7   8
ATOM      8  C   UNL     1      -6.736  -0.091 131.891  0.00  0.00    +0.000 C 
ATOM      9  O   UNL     1      -6.227  -0.676 132.852  0.00  0.00    +0.000 OA
ATOM     10  N   UNL     1      -7.643   0.927 132.062  0.00  0.00    +0.000 N 
ATOM     11  C   UNL     1      -7.157   2.175 132.614  0.00  0.00    +0.000 C 
ATOM     12  C   UNL     1      -8.266   2.821 133.441  0.00  0.00    +0.000 C 
ATOM     13  C   UNL     1      -9.681   3.272 132.447  0.00  0.00    +0.000 C 
ATOM     14  C   UNL     1     -10.027   1.634 132.049  0.00  0.00    +0.000 C 
ATOM     15  C   UNL     1      -8.867   1.008 131.294  0.00  0.00    +0.000 C 
BRANCH  13  16
ATOM     16  N   UNL     1     -10.183   4.973 131.913  0.00  0.00    +0.000 N 
ATOM     17  C   UNL     1      -9.331   4.700 130.824  0.00  0.00    +0.000 C 
ATOM     18  O   UNL     1      -8.096   4.340 130.846  0.00  0.00    +0.000 OA
ATOM     19  O   UNL     1      -9.970   4.529 129.694  0.00  0.00    +0.000 OA
ATOM     20  C   UNL     1      -9.712   5.767 129.164  0.00  0.00    +0.000 C 
ATOM     21  C   UNL     1     -10.967   6.371 129.597  0.00  0.00    +0.000 A 
ATOM     22  C   UNL     1     -11.518   7.187 128.430  0.00  0.00    +0.000 A 
ATOM     23  C   UNL     1     -12.411   8.206 128.499  0.00  0.00    +0.000 A 
ATOM     24  C   UNL     1     -12.597   8.510 129.826  0.00  0.00    +0.000 A 
ATOM     25  C   UNL     1     -11.988   7.594 131.075  0.00  0.00    +0.000 A 
ATOM     26  C   UNL     1     -11.221   6.225 131.004  0.00  0.00    +0.000 A 
ENDBRANCH  13  16
ENDBRANCH   7   8
BRANCH   1  28
ATOM     27  C   UNL     1      -4.527   1.825 128.493  0.00  0.00    +0.000 C 
ATOM     28  O   UNL     1      -5.242   1.408 129.646  0.00  0.00    +0.000 OA
ENDBRANCH   1  28
BRANCH   3  29
ATOM     29  O   UNL     1      -5.552  -2.420 126.715  0.00  0.00    +0.000 OA
BRANCH  29  30
ATOM     30  C   UNL     1      -6.427  -2.603 125.507  0.00  0.00    +0.000 C 
ATOM     31  C   UNL     1      -6.399  -1.514 124.401  0.00  0.00    +0.000 C 
ATOM     32  C   UNL     1      -7.189  -0.251 124.715  0.00  0.00    +0.000 C 
ATOM     33  N   UNL     1      -8.620  -0.605 125.183  0.00  0.00    +0.000 NA
ATOM     34  C   UNL     1      -8.734  -1.873 126.022  0.00  0.00    +0.000 C 
ATOM     35  C   UNL     1      -7.873  -3.063 125.738  0.00  0.00    +0.000 C 
BRANCH  33  36
ATOM     36  C   UNL     1      -9.136   0.576 125.971  0.00  0.00    +0.000 C 
BRANCH  36  37
ATOM     37  C   UNL     1      -8.552   1.936 125.648  0.00  0.00    +0.000 A 
ATOM     38  C   UNL     1      -8.522   2.542 124.354  0.00  0.00    +0.000 A 
ATOM     39  C   UNL     1      -9.228   2.089 123.104  0.00  0.00    +0.000 C 
ATOM     40  C   UNL     1      -7.705   3.635 124.157  0.00  0.00    +0.000 A 
ATOM     41  C   UNL     1      -7.100   4.246 125.245  0.00  0.00    +0.000 A 
ATOM     42  C   UNL     1      -6.266   5.456 125.034  0.00  0.00    +0.000 C 
ATOM     43  N   UNL     1      -7.290   3.789 126.552  0.00  0.00    +0.000 N 
ATOM     44  O   UNL     1      -6.774   4.416 127.533  0.00  0.00    +0.000 OA
ATOM     45  C   UNL     1      -8.020   2.631 126.753  0.00  0.00    +0.000 A 
ATOM     46  C   UNL     1      -8.255   2.152 128.158  0.00  0.00    +0.000 C 
ENDBRANCH  36  37
ENDBRANCH  33  36
ENDBRANCH  29  30
ENDBRANCH   3  29
TORSDOF 7
ENDMDL
MODEL 7
REMARK VINA RESULT:     -10.5      3.409      5.552
REMARK  Name = CHEMBL308673
REMARK  11 active torsions:
REMARK  status: ('A' for Active; 'I' for Inactive)
REMARK    1  A    between atoms: C_1  and  O_2
REMARK    2  A    between atoms: O_2  and  C_3
REMARK    3  A    between atoms: C_5  and  O_6
REMARK    4  A    between atoms: O_6  and  C_7
REMARK    5  A    between atoms: N_10  and  C_11
REMARK    6  A    between atoms: C_11  and  C_12
REMARK    7  A    between atoms: C_13  and  C_14
REMARK    8  A    between atoms: C_16  and  C_17
REMARK    9  A    between atoms: C_20  and  C_21
REMARK   10  A    between atoms: C_27  and  C_28
REMARK   11  A    between atoms: C_33  and  N_34
REMARK                            x       y       z     vdW  Elec       q    Type
REMARK                         _______ _______ _______ _____ _____    ______ ____
ROOT
ATOM      1  C   UNL     1      -6.384  -1.910 129.021  0.00  0.00    +0.000 A 
ATOM      2  C   UNL     1      -6.615  -2.302 127.627  0.00  0.00    +0.000 A 
ATOM      3  C   UNL     1      -7.700  -3.031 127.293  0.00  0.00    +0.000 A 
ATOM      4  C   UNL     1      -8.376  -3.245 128.440  0.00  0.00    +0.000 A 
ATOM      5  F   UNL     1      -9.316  -4.052 128.306  0.00  0.00    +0.000 F 
ATOM      6  C   UNL     1      -8.278  -2.923 129.771  0.00  0.00    +0.000 A 
ATOM      7  C   UNL     1      -7.236  -2.185 130.105  0.00  0.00    +0.000 A 
ENDROOT
BRANCH   7   8
ATOM      8  C   UNL     1      -7.204  -1.908 131.568  0.00  0.00    +0.000 C 
ATOM      9  O   UNL     1      -7.172  -2.836 132.382  0.00  0.00    +0.000 OA
ATOM     10  N   UNL     1      -7.209  -0.593 131.969  0.00  0.00    +0.000 N 
ATOM     11  C   UNL     1      -6.003  -0.071 132.576  0.00  0.00    +0.000 C 
ATOM     12  C   UNL     1      -6.382   0.984 133.612  0.00  0.00    +0.000 C 
ATOM     13  C   UNL     1      -7.185   2.402 132.877  0.00  0.00    +0.000 C 
ATOM     14  C   UNL     1      -8.537   1.472 132.362  0.00  0.00    +0.000 C 
ATOM     15  C   UNL     1      -8.104   0.386 131.391  0.00  0.00    +0.000 C 
BRANCH  13  16
ATOM     16  N   UNL     1      -6.462   4.085 132.600  0.00  0.00    +0.000 N 
ATOM     17  C   UNL     1      -6.686   4.223 133.984  0.00  0.00    +0.000 C 
ATOM     18  O   UNL     1      -7.784   4.063 134.637  0.00  0.00    +0.000 OA
ATOM     19  O   UNL     1      -5.583   4.242 134.691  0.00  0.00    +0.000 OA
ATOM     20  C   UNL     1      -5.535   5.597 134.894  0.00  0.00    +0.000 C 
ATOM     21  C   UNL     1      -4.636   5.875 133.780  0.00  0.00    +0.000 A 
ATOM     22  C   UNL     1      -3.577   6.859 134.270  0.00  0.00    +0.000 A 
ATOM     23  C   UNL     1      -2.813   7.681 133.508  0.00  0.00    +0.000 A 
ATOM     24  C   UNL     1      -3.286   7.614 132.219  0.00  0.00    +0.000 A 
ATOM     25  C   UNL     1      -4.436   6.522 131.715  0.00  0.00    +0.000 A 
ATOM     26  C   UNL     1      -5.094   5.348 132.524  0.00  0.00    +0.000 A 
ENDBRANCH  13  16
ENDBRANCH   7   8
BRANCH   1  28
ATOM     27  C   UNL     1      -4.217  -2.354 129.447  0.00  0.00    +0.000 C 
ATOM     28  O   UNL     1      -5.192  -1.333 129.301  0.00  0.00    +0.000 OA
ENDBRANCH   1  28
BRANCH   3  29
ATOM     29  O   UNL     1      -8.021  -3.538 126.064  0.00  0.00    +0.000 OA
BRANCH  29  30
ATOM     30  C   UNL     1      -9.049  -3.050 125.083  0.00  0.00    +0.000 C 
ATOM     31  C   UNL     1      -8.706  -3.093 123.570  0.00  0.00    +0.000 C 
ATOM     32  C   UNL     1      -7.789  -1.980 123.081  0.00  0.00    +0.000 C 
ATOM     33  N   UNL     1      -8.309  -0.601 123.547  0.00  0.00    +0.000 NA
ATOM     34  C   UNL     1      -8.955  -0.583 124.928  0.00  0.00    +0.000 C 
ATOM     35  C   UNL     1      -9.776  -1.737 125.408  0.00  0.00    +0.000 C 
BRANCH  33  36
ATOM     36  C   UNL     1      -7.135   0.349 123.520  0.00  0.00    +0.000 C 
BRANCH  36  37
ATOM     37  C   UNL     1      -7.056   1.390 124.618  0.00  0.00    +0.000 A 
ATOM     38  C   UNL     1      -6.222   1.317 125.774  0.00  0.00    +0.000 A 
ATOM     39  C   UNL     1      -5.111   0.340 126.054  0.00  0.00    +0.000 C 
ATOM     40  C   UNL     1      -6.470   2.178 126.822  0.00  0.00    +0.000 A 
ATOM     41  C   UNL     1      -7.370   3.221 126.657  0.00  0.00    +0.000 A 
ATOM     42  C   UNL     1      -7.592   4.179 127.769  0.00  0.00    +0.000 C 
ATOM     43  N   UNL     1      -8.044   3.434 125.451  0.00  0.00    +0.000 N 
ATOM     44  O   UNL     1      -8.810   4.441 125.313  0.00  0.00    +0.000 OA
ATOM     45  C   UNL     1      -7.884   2.515 124.428  0.00  0.00    +0.000 A 
ATOM     46  C   UNL     1      -8.581   2.755 123.117  0.00  0.00    +0.000 C 
ENDBRANCH  36  37
ENDBRANCH  33  36
ENDBRANCH  29  30
ENDBRANCH   3  29
TORSDOF 7
ENDMDL
MODEL 8
REMARK VINA RESULT:     -10.4      3.517      8.129
REMARK  Name = CHEMBL308673
REMARK  11 active torsions:
REMARK  status: ('A' for Active; 'I' for Inactive)
REMARK    1  A    between atoms: C_1  and  O_2
REMARK    2  A    between atoms: O_2  and  C_3
REMARK    3  A    between atoms: C_5  and  O_6
REMARK    4  A    between atoms: O_6  and  C_7
REMARK    5  A    between atoms: N_10  and  C_11
REMARK    6  A    between atoms: C_11  and  C_12
REMARK    7  A    between atoms: C_13  and  C_14
REMARK    8  A    between atoms: C_16  and  C_17
REMARK    9  A    between atoms: C_20  and  C_21
REMARK   10  A    between atoms: C_27  and  C_28
REMARK   11  A    between atoms: C_33  and  N_34
REMARK                            x       y       z     vdW  Elec       q    Type
REMARK                         _______ _______ _______ _____ _____    ______ ____
ROOT
ATOM      1  C   UNL     1      -4.862   5.765 130.784  0.00  0.00    +0.000 A 
ATOM      2  C   UNL     1      -4.844   5.541 132.233  0.00  0.00    +0.000 A 
ATOM      3  C   UNL     1      -4.264   4.436 132.747  0.00  0.00    +0.000 A 
ATOM      4  C   UNL     1      -3.798   3.733 131.695  0.00  0.00    +0.000 A 
ATOM      5  F   UNL     1      -3.385   2.601 132.011  0.00  0.00    +0.000 F 
ATOM      6  C   UNL     1      -3.737   3.841 130.327  0.00  0.00    +0.000 A 
ATOM      7  C   UNL     1      -4.274   4.933 129.815  0.00  0.00    +0.000 A 
ENDROOT
BRANCH   7   8
ATOM      8  C   UNL     1      -4.179   4.949 128.329  0.00  0.00    +0.000 C 
ATOM      9  O   UNL     1      -3.271   5.567 127.766  0.00  0.00    +0.000 OA
ATOM     10  N   UNL     1      -5.129   4.253 127.620  0.00  0.00    +0.000 N 
ATOM     11  C   UNL     1      -4.704   3.063 126.914  0.00  0.00    +0.000 C 
ATOM     12  C   UNL     1      -5.544   2.905 125.650  0.00  0.00    +0.000 C 
ATOM     13  C   UNL     1      -7.274   2.638 126.012  0.00  0.00    +0.000 C 
ATOM     14  C   UNL     1      -7.449   4.192 126.728  0.00  0.00    +0.000 C 
ATOM     15  C   UNL     1      -6.539   4.333 127.936  0.00  0.00    +0.000 C 
BRANCH  13  16
ATOM     16  N   UNL     1      -8.217   1.049 125.878  0.00  0.00    +0.000 N 
ATOM     17  C   UNL     1      -8.686   1.626 124.680  0.00  0.00    +0.000 C 
ATOM     18  O   UNL     1      -9.260   2.765 124.511  0.00  0.00    +0.000 OA
ATOM     19  O   UNL     1      -8.219   1.041 123.604  0.00  0.00    +0.000 OA
ATOM     20  C   UNL     1      -9.341   0.311 123.309  0.00  0.00    +0.000 C 
ATOM     21  C   UNL     1      -8.894  -0.910 123.971  0.00  0.00    +0.000 A 
ATOM     22  C   UNL     1      -9.209  -2.084 123.047  0.00  0.00    +0.000 A 
ATOM     23  C   UNL     1      -9.341  -3.386 123.401  0.00  0.00    +0.000 A 
ATOM     24  C   UNL     1      -9.328  -3.449 124.774  0.00  0.00    +0.000 A 
ATOM     25  C   UNL     1      -8.971  -2.151 125.752  0.00  0.00    +0.000 A 
ATOM     26  C   UNL     1      -8.499  -0.712 125.338  0.00  0.00    +0.000 A 
ENDBRANCH  13  16
ENDBRANCH   7   8
BRANCH   1  28
ATOM     27  C   UNL     1      -6.807   6.858 131.099  0.00  0.00    +0.000 C 
ATOM     28  O   UNL     1      -5.609   6.802 130.339  0.00  0.00    +0.000 OA
ENDBRANCH   1  28
BRANCH   3  29
ATOM     29  O   UNL     1      -4.227   4.043 134.056  0.00  0.00    +0.000 OA
BRANCH  29  30
ATOM     30  C   UNL     1      -5.211   3.196 134.813  0.00  0.00    +0.000 C 
ATOM     31  C   UNL     1      -4.677   1.979 135.615  0.00  0.00    +0.000 C 
ATOM     32  C   UNL     1      -4.341   0.750 134.782  0.00  0.00    +0.000 C 
ATOM     33  N   UNL     1      -5.515   0.390 133.843  0.00  0.00    +0.000 NA
ATOM     34  C   UNL     1      -6.282   1.580 133.277  0.00  0.00    +0.000 C 
ATOM     35  C   UNL     1      -6.513   2.808 134.098  0.00  0.00    +0.000 C 
BRANCH  33  36
ATOM     36  C   UNL     1      -4.945  -0.436 132.714  0.00  0.00    +0.000 C 
BRANCH  36  37
ATOM     37  C   UNL     1      -5.927  -1.162 131.818  0.00  0.00    +0.000 A 
ATOM     38  C   UNL     1      -6.905  -2.108 132.253  0.00  0.00    +0.000 A 
ATOM     39  C   UNL     1      -7.321  -2.429 133.664  0.00  0.00    +0.000 C 
ATOM     40  C   UNL     1      -7.520  -2.902 131.307  0.00  0.00    +0.000 A 
ATOM     41  C   UNL     1      -7.340  -2.630 129.959  0.00  0.00    +0.000 A 
ATOM     42  C   UNL     1      -8.048  -3.451 128.946  0.00  0.00    +0.000 C 
ATOM     43  N   UNL     1      -6.547  -1.567 129.517  0.00  0.00    +0.000 N 
ATOM     44  O   UNL     1      -6.460  -1.304 128.274  0.00  0.00    +0.000 OA
ATOM     45  C   UNL     1      -5.840  -0.830 130.451  0.00  0.00    +0.000 A 
ATOM     46  C   UNL     1      -5.011   0.335 129.986  0.00  0.00    +0.000 C 
ENDBRANCH  36  37
ENDBRANCH  33  36
ENDBRANCH  29  30
ENDBRANCH   3  29
TORSDOF 7
ENDMDL
MODEL 9
REMARK VINA RESULT:     -10.4      3.088      4.083
REMARK  Name = CHEMBL308673
REMARK  11 active torsions:
REMARK  status: ('A' for Active; 'I' for Inactive)
REMARK    1  A    between atoms: C_1  and  O_2
REMARK    2  A    between atoms: O_2  and  C_3
REMARK    3  A    between atoms: C_5  and  O_6
REMARK    4  A    between atoms: O_6  and  C_7
REMARK    5  A    between atoms: N_10  and  C_11
REMARK    6  A    between atoms: C_11  and  C_12
REMARK    7  A    between atoms: C_13  and  C_14
REMARK    8  A    between atoms: C_16  and  C_17
REMARK    9  A    between atoms: C_20  and  C_21
REMARK   10  A    between atoms: C_27  and  C_28
REMARK   11  A    between atoms: C_33  and  N_34
REMARK                            x       y       z     vdW  Elec       q    Type
REMARK                         _______ _______ _______ _____ _____    ______ ____
ROOT
ATOM      1  C   UNL     1      -4.307   1.272 131.122  0.00  0.00    +0.000 A 
ATOM      2  C   UNL     1      -4.185  -0.167 130.868  0.00  0.00    +0.000 A 
ATOM      3  C   UNL     1      -3.606  -0.975 131.781  0.00  0.00    +0.000 A 
ATOM      4  C   UNL     1      -3.241  -0.180 132.807  0.00  0.00    +0.000 A 
ATOM      5  F   UNL     1      -2.538  -0.769 133.652  0.00  0.00    +0.000 F 
ATOM      6  C   UNL     1      -3.314   1.144 133.164  0.00  0.00    +0.000 A 
ATOM      7  C   UNL     1      -3.905   1.939 132.292  0.00  0.00    +0.000 A 
ENDROOT
BRANCH   7   8
ATOM      8  C   UNL     1      -3.917   3.354 132.757  0.00  0.00    +0.000 C 
ATOM      9  O   UNL     1      -2.940   3.829 133.344  0.00  0.00    +0.000 OA
ATOM     10  N   UNL     1      -5.043   4.100 132.506  0.00  0.00    +0.000 N 
ATOM     11  C   UNL     1      -4.937   5.174 131.541  0.00  0.00    +0.000 C 
ATOM     12  C   UNL     1      -5.881   6.303 131.945  0.00  0.00    +0.000 C 
ATOM     13  C   UNL     1      -7.597   5.804 131.899  0.00  0.00    +0.000 C 
ATOM     14  C   UNL     1      -7.380   4.649 133.154  0.00  0.00    +0.000 C 
ATOM     15  C   UNL     1      -6.376   3.587 132.739  0.00  0.00    +0.000 C 
BRANCH  13  16
ATOM     16  N   UNL     1      -8.869   6.269 130.635  0.00  0.00    +0.000 N 
ATOM     17  C   UNL     1      -9.762   5.732 131.583  0.00  0.00    +0.000 C 
ATOM     18  O   UNL     1      -9.748   4.564 132.123  0.00  0.00    +0.000 OA
ATOM     19  O   UNL     1     -10.509   6.637 132.166  0.00  0.00    +0.000 OA
ATOM     20  C   UNL     1     -11.650   6.406 131.442  0.00  0.00    +0.000 C 
ATOM     21  C   UNL     1     -11.414   7.462 130.464  0.00  0.00    +0.000 A 
ATOM     22  C   UNL     1     -12.732   8.205 130.254  0.00  0.00    +0.000 A 
ATOM     23  C   UNL     1     -13.078   8.961 129.183  0.00  0.00    +0.000 A 
ATOM     24  C   UNL     1     -12.108   8.796 128.223  0.00  0.00    +0.000 A 
ATOM     25  C   UNL     1     -10.678   7.986 128.488  0.00  0.00    +0.000 A 
ATOM     26  C   UNL     1     -10.128   7.382 129.830  0.00  0.00    +0.000 A 
ENDBRANCH  13  16
ENDBRANCH   7   8
BRANCH   1  28
ATOM     27  C   UNL     1      -3.770   1.993 129.056  0.00  0.00    +0.000 C 
ATOM     28  O   UNL     1      -4.740   2.036 130.091  0.00  0.00    +0.000 OA
ENDBRANCH   1  28
BRANCH   3  29
ATOM     29  O   UNL     1      -3.347  -2.313 131.670  0.00  0.00    +0.000 OA
BRANCH  29  30
ATOM     30  C   UNL     1      -4.316  -3.462 131.670  0.00  0.00    +0.000 C 
ATOM     31  C   UNL     1      -4.625  -4.170 130.324  0.00  0.00    +0.000 C 
ATOM     32  C   UNL     1      -5.588  -3.427 129.407  0.00  0.00    +0.000 C 
ATOM     33  N   UNL     1      -6.860  -3.007 130.179  0.00  0.00    +0.000 NA
ATOM     34  C   UNL     1      -6.636  -2.603 131.632  0.00  0.00    +0.000 C 
ATOM     35  C   UNL     1      -5.614  -3.298 132.474  0.00  0.00    +0.000 C 
BRANCH  33  36
ATOM     36  C   UNL     1      -7.483  -1.860 129.419  0.00  0.00    +0.000 C 
BRANCH  36  37
ATOM     37  C   UNL     1      -7.817  -2.091 127.960  0.00  0.00    +0.000 A 
ATOM     38  C   UNL     1      -8.577  -3.185 127.445  0.00  0.00    +0.000 A 
ATOM     39  C   UNL     1      -9.375  -4.203 128.217  0.00  0.00    +0.000 C 
ATOM     40  C   UNL     1      -8.549  -3.426 126.088  0.00  0.00    +0.000 A 
ATOM     41  C   UNL     1      -7.970  -2.497 125.237  0.00  0.00    +0.000 A 
ATOM     42  C   UNL     1      -7.992  -2.733 123.771  0.00  0.00    +0.000 C 
ATOM     43  N   UNL     1      -7.404  -1.310 125.710  0.00  0.00    +0.000 N 
ATOM     44  O   UNL     1      -6.942  -0.448 124.894  0.00  0.00    +0.000 OA
ATOM     45  C   UNL     1      -7.330  -1.107 127.077  0.00  0.00    +0.000 A 
ATOM     46  C   UNL     1      -6.752   0.182 127.592  0.00  0.00    +0.000 C 
ENDBRANCH  36  37
ENDBRANCH  33  36
ENDBRANCH  29  30
ENDBRANCH   3  29
TORSDOF 7
ENDMDL
