MODEL 1
REMARK VINA RESULT:      -9.4      0.000      0.000
REMARK  Name = CHEMBL278093
REMARK  13 active torsions:
REMARK  status: ('A' for Active; 'I' for Inactive)
REMARK    1  A    between atoms: C_1  and  C_2
REMARK    2  A    between atoms: C_2  and  C_4
REMARK    3  A    between atoms: C_4  and  C_5
REMARK    4  A    between atoms: C_5  and  C_6
REMARK    5  A    between atoms: C_6  and  C_7
REMARK    6  A    between atoms: N_9  and  C_10
REMARK    7  A    between atoms: C_12  and  C_13
REMARK    8  A    between atoms: N_25  and  C_26
REMARK    9  A    between atoms: C_26  and  C_27
REMARK   10  A    between atoms: N_29  and  C_30
REMARK   11  A    between atoms: C_30  and  C_31
REMARK   12  A    between atoms: C_30  and  C_38
REMARK   13  A    between atoms: C_31  and  C_32
REMARK                            x       y       z     vdW  Elec       q    Type
REMARK                         _______ _______ _______ _____ _____    ______ ____
ROOT
ATOM      1  C   UNL     1     -10.249   6.142 130.588  0.00  0.00    +0.000 C 
ATOM      2  N   UNL     1      -9.333   6.473 131.715  0.00  0.00    +0.000 NA
ATOM      3  C   UNL     1      -8.690   5.514 132.306  0.00  0.00    +0.000 C 
ATOM      4  C   UNL     1      -8.827   4.132 132.004  0.00  0.00    +0.000 A 
ATOM      5  C   UNL     1      -9.021   3.117 133.094  0.00  0.00    +0.000 A 
ATOM      6  C   UNL     1      -9.513   1.865 132.862  0.00  0.00    +0.000 A 
ATOM      7  C   UNL     1     -10.016   1.813 131.593  0.00  0.00    +0.000 A 
ATOM      8  C   UNL     1      -9.665   2.917 130.536  0.00  0.00    +0.000 A 
ATOM      9  C   UNL     1      -8.798   3.927 130.664  0.00  0.00    +0.000 A 
ATOM     10  N   UNL     1      -8.467   4.784 129.490  0.00  0.00    +0.000 N 
ATOM     11  C   UNL     1      -9.393   5.842 129.302  0.00  0.00    +0.000 C 
ATOM     12  O   UNL     1      -9.551   6.412 128.223  0.00  0.00    +0.000 OA
ENDROOT
BRANCH   3  13
ATOM     13  C   UNL     1      -7.694   5.689 133.334  0.00  0.00    +0.000 A 
ATOM     14  C   UNL     1      -8.148   5.686 134.634  0.00  0.00    +0.000 A 
ATOM     15  C   UNL     1      -7.218   5.931 135.618  0.00  0.00    +0.000 A 
ATOM     16  C   UNL     1      -5.854   5.980 135.303  0.00  0.00    +0.000 A 
ATOM     17  C   UNL     1      -5.402   5.726 134.007  0.00  0.00    +0.000 A 
ATOM     18  C   UNL     1      -6.331   5.623 132.993  0.00  0.00    +0.000 A 
ENDBRANCH   3  13
BRANCH   1  21
ATOM     19  C   UNL     1     -12.259   7.480 130.945  0.00  0.00    +0.000 C 
ATOM     20  O   UNL     1     -12.721   6.686 131.761  0.00  0.00    +0.000 OA
ATOM     21  N   UNL     1     -11.055   7.298 130.325  0.00  0.00    +0.000 N 
ATOM     22  H   UNL     1     -10.752   7.869 129.552  0.00  0.00    +0.000 HD
BRANCH  19  23
ATOM     23  C   UNL     1     -12.967   8.763 130.552  0.00  0.00    +0.000 C 
BRANCH  23  24
ATOM     24  C   UNL     1     -12.634   9.110 129.104  0.00  0.00    +0.000 C 
BRANCH  24  25
ATOM     25  C   UNL     1     -13.577   8.461 128.098  0.00  0.00    +0.000 C 
BRANCH  25  27
ATOM     26  C   UNL     1     -12.332   7.222 126.207  0.00  0.00    +0.000 C 
ATOM     27  C   UNL     1     -12.980   7.168 127.563  0.00  0.00    +0.000 C 
ATOM     28  O   UNL     1     -13.011   6.111 128.193  0.00  0.00    +0.000 OA
ENDBRANCH  25  27
ENDBRANCH  24  25
ENDBRANCH  23  24
ENDBRANCH  19  23
ENDBRANCH   1  21
BRANCH  10  29
ATOM     29  C   UNL     1      -7.765   4.293 128.179  0.00  0.00    +0.000 C 
BRANCH  29  30
ATOM     30  C   UNL     1      -6.171   4.380 127.966  0.00  0.00    +0.000 C 
ATOM     31  O   UNL     1      -5.700   4.736 126.944  0.00  0.00    +0.000 OA
ATOM     32  N   UNL     1      -5.331   4.052 129.072  0.00  0.00    +0.000 N 
ATOM     33  H   UNL     1      -5.648   3.373 129.739  0.00  0.00    +0.000 HD
BRANCH  32  34
ATOM     34  C   UNL     1      -3.924   4.640 129.218  0.00  0.00    +0.000 C 
BRANCH  34  35
ATOM     35  C   UNL     1      -2.907   4.057 128.246  0.00  0.00    +0.000 C 
ATOM     36  N   UNL     1      -2.273   4.936 127.426  0.00  0.00    +0.000 N 
ATOM     37  O   UNL     1      -2.713   2.851 128.126  0.00  0.00    +0.000 OA
ATOM     38  H   UNL     1      -2.321   5.934 127.522  0.00  0.00    +0.000 HD
ATOM     39  H   UNL     1      -1.588   4.548 126.794  0.00  0.00    +0.000 HD
ENDBRANCH  34  35
BRANCH  34  40
ATOM     40  C   UNL     1      -3.174   4.475 130.608  0.00  0.00    +0.000 C 
BRANCH  40  41
ATOM     41  C   UNL     1      -2.361   5.640 131.039  0.00  0.00    +0.000 C 
ATOM     42  C   UNL     1      -3.295   6.912 131.145  0.00  0.00    +0.000 C 
ATOM     43  C   UNL     1      -2.763   8.035 131.956  0.00  0.00    +0.000 C 
ATOM     44  C   UNL     1      -2.359   7.236 133.117  0.00  0.00    +0.000 C 
ATOM     45  C   UNL     1      -0.965   6.190 132.710  0.00  0.00    +0.000 C 
ATOM     46  C   UNL     1      -1.613   5.028 132.184  0.00  0.00    +0.000 C 
ENDBRANCH  40  41
ENDBRANCH  34  40
ENDBRANCH  32  34
ENDBRANCH  29  30
ENDBRANCH  10  29
TORSDOF 12
ENDMDL
MODEL 2
REMARK VINA RESULT:      -9.4      4.760      8.996
REMARK  Name = CHEMBL278093
REMARK  13 active torsions:
REMARK  status: ('A' for Active; 'I' for Inactive)
REMARK    1  A    between atoms: C_1  and  C_2
REMARK    2  A    between atoms: C_2  and  C_4
REMARK    3  A    between atoms: C_4  and  C_5
REMARK    4  A    between atoms: C_5  and  C_6
REMARK    5  A    between atoms: C_6  and  C_7
REMARK    6  A    between atoms: N_9  and  C_10
REMARK    7  A    between atoms: C_12  and  C_13
REMARK    8  A    between atoms: N_25  and  C_26
REMARK    9  A    between atoms: C_26  and  C_27
REMARK   10  A    between atoms: N_29  and  C_30
REMARK   11  A    between atoms: C_30  and  C_31
REMARK   12  A    between atoms: C_30  and  C_38
REMARK   13  A    between atoms: C_31  and  C_32
REMARK                            x       y       z     vdW  Elec       q    Type
REMARK                         _______ _______ _______ _____ _____    ______ ____
ROOT
ATOM      1  C   UNL     1      -6.668   2.085 126.109  0.00  0.00    +0.000 C 
ATOM      2  N   UNL     1      -7.066   0.786 125.497  0.00  0.00    +0.000 NA
ATOM      3  C   UNL     1      -6.998  -0.293 126.213  0.00  0.00    +0.000 C 
ATOM      4  C   UNL     1      -6.512  -0.360 127.547  0.00  0.00    +0.000 A 
ATOM      5  C   UNL     1      -5.517  -1.408 127.957  0.00  0.00    +0.000 A 
ATOM      6  C   UNL     1      -4.755  -1.305 129.085  0.00  0.00    +0.000 A 
ATOM      7  C   UNL     1      -4.861  -0.037 129.580  0.00  0.00    +0.000 A 
ATOM      8  C   UNL     1      -6.003   0.927 129.103  0.00  0.00    +0.000 A 
ATOM      9  C   UNL     1      -7.034   0.640 128.300  0.00  0.00    +0.000 A 
ATOM     10  N   UNL     1      -8.120   1.640 128.089  0.00  0.00    +0.000 N 
ATOM     11  C   UNL     1      -7.816   2.575 127.067  0.00  0.00    +0.000 C 
ATOM     12  O   UNL     1      -8.354   3.679 126.987  0.00  0.00    +0.000 OA
ENDROOT
BRANCH   3  13
ATOM     13  C   UNL     1      -7.448  -1.598 125.796  0.00  0.00    +0.000 A 
ATOM     14  C   UNL     1      -8.682  -1.998 126.257  0.00  0.00    +0.000 A 
ATOM     15  C   UNL     1      -9.086  -3.272 125.930  0.00  0.00    +0.000 A 
ATOM     16  C   UNL     1      -8.352  -4.029 125.008  0.00  0.00    +0.000 A 
ATOM     17  C   UNL     1      -7.237  -3.497 124.360  0.00  0.00    +0.000 A 
ATOM     18  C   UNL     1      -6.744  -2.281 124.788  0.00  0.00    +0.000 A 
ENDBRANCH   3  13
BRANCH   1  21
ATOM     19  C   UNL     1      -5.377   3.754 124.882  0.00  0.00    +0.000 C 
ATOM     20  O   UNL     1      -4.392   3.617 125.603  0.00  0.00    +0.000 OA
ATOM     21  N   UNL     1      -6.532   3.043 125.053  0.00  0.00    +0.000 N 
ATOM     22  H   UNL     1      -7.381   3.264 124.557  0.00  0.00    +0.000 HD
BRANCH  19  23
ATOM     23  C   UNL     1      -5.411   4.714 123.708  0.00  0.00    +0.000 C 
BRANCH  23  24
ATOM     24  C   UNL     1      -5.780   3.956 122.436  0.00  0.00    +0.000 C 
BRANCH  24  25
ATOM     25  C   UNL     1      -4.806   4.196 121.290  0.00  0.00    +0.000 C 
BRANCH  25  27
ATOM     26  C   UNL     1      -6.683   4.457 119.536  0.00  0.00    +0.000 C 
ATOM     27  C   UNL     1      -5.460   5.030 120.199  0.00  0.00    +0.000 C 
ATOM     28  O   UNL     1      -5.029   6.131 119.855  0.00  0.00    +0.000 OA
ENDBRANCH  25  27
ENDBRANCH  24  25
ENDBRANCH  23  24
ENDBRANCH  19  23
ENDBRANCH   1  21
BRANCH  10  29
ATOM     29  C   UNL     1      -9.082   2.179 129.201  0.00  0.00    +0.000 C 
BRANCH  29  30
ATOM     30  C   UNL     1      -8.685   3.401 130.172  0.00  0.00    +0.000 C 
ATOM     31  O   UNL     1      -7.749   3.344 130.889  0.00  0.00    +0.000 OA
ATOM     32  N   UNL     1      -9.476   4.587 130.110  0.00  0.00    +0.000 N 
ATOM     33  H   UNL     1     -10.449   4.511 129.877  0.00  0.00    +0.000 HD
BRANCH  32  34
ATOM     34  C   UNL     1      -8.904   5.959 130.480  0.00  0.00    +0.000 C 
BRANCH  34  35
ATOM     35  C   UNL     1      -8.769   6.188 131.981  0.00  0.00    +0.000 C 
ATOM     36  N   UNL     1      -7.536   5.993 132.519  0.00  0.00    +0.000 N 
ATOM     37  O   UNL     1      -9.725   6.450 132.704  0.00  0.00    +0.000 OA
ATOM     38  H   UNL     1      -6.699   5.858 131.982  0.00  0.00    +0.000 HD
ATOM     39  H   UNL     1      -7.447   6.162 133.510  0.00  0.00    +0.000 HD
ENDBRANCH  34  35
BRANCH  34  40
ATOM     40  C   UNL     1      -9.694   7.258 130.024  0.00  0.00    +0.000 C 
BRANCH  40  41
ATOM     41  C   UNL     1     -10.771   7.035 129.027  0.00  0.00    +0.000 C 
ATOM     42  C   UNL     1     -12.154   6.894 129.783  0.00  0.00    +0.000 C 
ATOM     43  C   UNL     1     -13.365   7.095 128.949  0.00  0.00    +0.000 C 
ATOM     44  C   UNL     1     -12.927   8.336 128.301  0.00  0.00    +0.000 C 
ATOM     45  C   UNL     1     -11.575   8.015 127.173  0.00  0.00    +0.000 C 
ATOM     46  C   UNL     1     -10.441   8.112 128.040  0.00  0.00    +0.000 C 
ENDBRANCH  40  41
ENDBRANCH  34  40
ENDBRANCH  32  34
ENDBRANCH  29  30
ENDBRANCH  10  29
TORSDOF 12
ENDMDL
MODEL 3
REMARK VINA RESULT:      -9.3      3.635      6.055
REMARK  Name = CHEMBL278093
REMARK  13 active torsions:
REMARK  status: ('A' for Active; 'I' for Inactive)
REMARK    1  A    between atoms: C_1  and  C_2
REMARK    2  A    between atoms: C_2  and  C_4
REMARK    3  A    between atoms: C_4  and  C_5
REMARK    4  A    between atoms: C_5  and  C_6
REMARK    5  A    between atoms: C_6  and  C_7
REMARK    6  A    between atoms: N_9  and  C_10
REMARK    7  A    between atoms: C_12  and  C_13
REMARK    8  A    between atoms: N_25  and  C_26
REMARK    9  A    between atoms: C_26  and  C_27
REMARK   10  A    between atoms: N_29  and  C_30
REMARK   11  A    between atoms: C_30  and  C_31
REMARK   12  A    between atoms: C_30  and  C_38
REMARK   13  A    between atoms: C_31  and  C_32
REMARK                            x       y       z     vdW  Elec       q    Type
REMARK                         _______ _______ _______ _____ _____    ______ ____
ROOT
ATOM      1  C   UNL     1      -9.963   5.498 131.135  0.00  0.00    +0.000 C 
ATOM      2  N   UNL     1      -8.655   5.945 130.579  0.00  0.00    +0.000 NA
ATOM      3  C   UNL     1      -7.570   5.694 131.244  0.00  0.00    +0.000 C 
ATOM      4  C   UNL     1      -7.519   5.064 132.517  0.00  0.00    +0.000 A 
ATOM      5  C   UNL     1      -6.695   5.639 133.633  0.00  0.00    +0.000 A 
ATOM      6  C   UNL     1      -6.886   5.305 134.944  0.00  0.00    +0.000 A 
ATOM      7  C   UNL     1      -8.060   4.617 135.061  0.00  0.00    +0.000 A 
ATOM      8  C   UNL     1      -8.773   4.010 133.803  0.00  0.00    +0.000 A 
ATOM      9  C   UNL     1      -8.320   3.970 132.545  0.00  0.00    +0.000 A 
ATOM     10  N   UNL     1      -9.063   3.201 131.506  0.00  0.00    +0.000 N 
ATOM     11  C   UNL     1     -10.112   3.947 130.913  0.00  0.00    +0.000 C 
ATOM     12  O   UNL     1     -11.071   3.423 130.345  0.00  0.00    +0.000 OA
ENDROOT
BRANCH   3  13
ATOM     13  C   UNL     1      -6.231   5.967 130.785  0.00  0.00    +0.000 A 
ATOM     14  C   UNL     1      -5.570   4.929 130.167  0.00  0.00    +0.000 A 
ATOM     15  C   UNL     1      -4.264   5.155 129.797  0.00  0.00    +0.000 A 
ATOM     16  C   UNL     1      -3.723   6.444 129.873  0.00  0.00    +0.000 A 
ATOM     17  C   UNL     1      -4.501   7.533 130.268  0.00  0.00    +0.000 A 
ATOM     18  C   UNL     1      -5.761   7.293 130.777  0.00  0.00    +0.000 A 
ENDBRANCH   3  13
BRANCH   1  21
ATOM     19  C   UNL     1     -12.111   6.651 131.018  0.00  0.00    +0.000 C 
ATOM     20  O   UNL     1     -12.290   6.576 132.231  0.00  0.00    +0.000 OA
ATOM     21  N   UNL     1     -11.000   6.154 130.396  0.00  0.00    +0.000 N 
ATOM     22  H   UNL     1     -10.927   6.084 129.393  0.00  0.00    +0.000 HD
BRANCH  19  23
ATOM     23  C   UNL     1     -13.096   7.320 130.079  0.00  0.00    +0.000 C 
BRANCH  23  24
ATOM     24  C   UNL     1     -12.573   8.698 129.683  0.00  0.00    +0.000 C 
BRANCH  24  25
ATOM     25  C   UNL     1     -12.375   8.857 128.181  0.00  0.00    +0.000 C 
BRANCH  25  27
ATOM     26  C   UNL     1     -10.954   7.619 126.417  0.00  0.00    +0.000 C 
ATOM     27  C   UNL     1     -11.026   8.295 127.758  0.00  0.00    +0.000 C 
ATOM     28  O   UNL     1     -10.021   8.378 128.464  0.00  0.00    +0.000 OA
ENDBRANCH  25  27
ENDBRANCH  24  25
ENDBRANCH  23  24
ENDBRANCH  19  23
ENDBRANCH   1  21
BRANCH  10  29
ATOM     29  C   UNL     1      -9.291   1.651 131.517  0.00  0.00    +0.000 C 
BRANCH  29  30
ATOM     30  C   UNL     1      -8.087   0.600 131.720  0.00  0.00    +0.000 C 
ATOM     31  O   UNL     1      -7.851   0.122 132.772  0.00  0.00    +0.000 OA
ATOM     32  N   UNL     1      -7.330   0.223 130.570  0.00  0.00    +0.000 N 
ATOM     33  H   UNL     1      -7.213   0.886 129.826  0.00  0.00    +0.000 HD
BRANCH  32  34
ATOM     34  C   UNL     1      -6.615  -1.129 130.483  0.00  0.00    +0.000 C 
BRANCH  34  35
ATOM     35  C   UNL     1      -5.144  -1.077 130.877  0.00  0.00    +0.000 C 
ATOM     36  N   UNL     1      -4.867  -1.114 132.207  0.00  0.00    +0.000 N 
ATOM     37  O   UNL     1      -4.240  -0.922 130.062  0.00  0.00    +0.000 OA
ATOM     38  H   UNL     1      -5.543  -1.319 132.920  0.00  0.00    +0.000 HD
ATOM     39  H   UNL     1      -3.892  -1.095 132.464  0.00  0.00    +0.000 HD
ENDBRANCH  34  35
BRANCH  34  40
ATOM     40  C   UNL     1      -6.547  -1.861 129.076  0.00  0.00    +0.000 C 
BRANCH  40  41
ATOM     41  C   UNL     1      -7.858  -2.177 128.455  0.00  0.00    +0.000 C 
ATOM     42  C   UNL     1      -7.892  -1.587 126.987  0.00  0.00    +0.000 C 
ATOM     43  C   UNL     1      -8.920  -2.163 126.086  0.00  0.00    +0.000 C 
ATOM     44  C   UNL     1      -8.641  -3.572 126.379  0.00  0.00    +0.000 C 
ATOM     45  C   UNL     1      -9.136  -3.979 128.050  0.00  0.00    +0.000 C 
ATOM     46  C   UNL     1      -7.965  -3.632 128.796  0.00  0.00    +0.000 C 
ENDBRANCH  40  41
ENDBRANCH  34  40
ENDBRANCH  32  34
ENDBRANCH  29  30
ENDBRANCH  10  29
TORSDOF 12
ENDMDL
MODEL 4
REMARK VINA RESULT:      -9.2      2.473      4.195
REMARK  Name = CHEMBL278093
REMARK  13 active torsions:
REMARK  status: ('A' for Active; 'I' for Inactive)
REMARK    1  A    between atoms: C_1  and  C_2
REMARK    2  A    between atoms: C_2  and  C_4
REMARK    3  A    between atoms: C_4  and  C_5
REMARK    4  A    between atoms: C_5  and  C_6
REMARK    5  A    between atoms: C_6  and  C_7
REMARK    6  A    between atoms: N_9  and  C_10
REMARK    7  A    between atoms: C_12  and  C_13
REMARK    8  A    between atoms: N_25  and  C_26
REMARK    9  A    between atoms: C_26  and  C_27
REMARK   10  A    between atoms: N_29  and  C_30
REMARK   11  A    between atoms: C_30  and  C_31
REMARK   12  A    between atoms: C_30  and  C_38
REMARK   13  A    between atoms: C_31  and  C_32
REMARK                            x       y       z     vdW  Elec       q    Type
REMARK                         _______ _______ _______ _____ _____    ______ ____
ROOT
ATOM      1  C   UNL     1      -9.784   5.494 131.085  0.00  0.00    +0.000 C 
ATOM      2  N   UNL     1      -8.499   6.030 130.553  0.00  0.00    +0.000 NA
ATOM      3  C   UNL     1      -7.399   5.775 131.191  0.00  0.00    +0.000 C 
ATOM      4  C   UNL     1      -7.312   5.060 132.416  0.00  0.00    +0.000 A 
ATOM      5  C   UNL     1      -6.499   5.586 133.564  0.00  0.00    +0.000 A 
ATOM      6  C   UNL     1      -6.665   5.154 134.849  0.00  0.00    +0.000 A 
ATOM      7  C   UNL     1      -7.810   4.413 134.925  0.00  0.00    +0.000 A 
ATOM      8  C   UNL     1      -8.512   3.870 133.632  0.00  0.00    +0.000 A 
ATOM      9  C   UNL     1      -8.070   3.936 132.371  0.00  0.00    +0.000 A 
ATOM     10  N   UNL     1      -8.793   3.214 131.285  0.00  0.00    +0.000 N 
ATOM     11  C   UNL     1      -9.876   3.959 130.754  0.00  0.00    +0.000 C 
ATOM     12  O   UNL     1     -10.819   3.440 130.157  0.00  0.00    +0.000 OA
ENDROOT
BRANCH   3  13
ATOM     13  C   UNL     1      -6.076   6.132 130.743  0.00  0.00    +0.000 A 
ATOM     14  C   UNL     1      -5.768   7.474 130.748  0.00  0.00    +0.000 A 
ATOM     15  C   UNL     1      -4.537   7.832 130.248  0.00  0.00    +0.000 A 
ATOM     16  C   UNL     1      -3.587   6.849 129.944  0.00  0.00    +0.000 A 
ATOM     17  C   UNL     1      -3.839   5.499 130.190  0.00  0.00    +0.000 A 
ATOM     18  C   UNL     1      -5.116   5.122 130.552  0.00  0.00    +0.000 A 
ENDBRANCH   3  13
BRANCH   1  21
ATOM     19  C   UNL     1     -11.976   6.567 131.064  0.00  0.00    +0.000 C 
ATOM     20  O   UNL     1     -12.141   6.400 132.270  0.00  0.00    +0.000 OA
ATOM     21  N   UNL     1     -10.852   6.161 130.401  0.00  0.00    +0.000 N 
ATOM     22  H   UNL     1     -10.786   6.165 129.395  0.00  0.00    +0.000 HD
BRANCH  19  23
ATOM     23  C   UNL     1     -12.995   7.262 130.182  0.00  0.00    +0.000 C 
BRANCH  23  24
ATOM     24  C   UNL     1     -12.447   8.613 129.730  0.00  0.00    +0.000 C 
BRANCH  24  25
ATOM     25  C   UNL     1     -12.361   8.751 128.216  0.00  0.00    +0.000 C 
BRANCH  25  27
ATOM     26  C   UNL     1     -10.961   7.662 126.341  0.00  0.00    +0.000 C 
ATOM     27  C   UNL     1     -11.006   8.277 127.712  0.00  0.00    +0.000 C 
ATOM     28  O   UNL     1      -9.976   8.382 128.377  0.00  0.00    +0.000 OA
ENDBRANCH  25  27
ENDBRANCH  24  25
ENDBRANCH  23  24
ENDBRANCH  19  23
ENDBRANCH   1  21
BRANCH  10  29
ATOM     29  C   UNL     1      -8.961   1.659 131.189  0.00  0.00    +0.000 C 
BRANCH  29  30
ATOM     30  C   UNL     1      -7.866   0.712 130.483  0.00  0.00    +0.000 C 
ATOM     31  O   UNL     1      -8.172  -0.286 129.932  0.00  0.00    +0.000 OA
ATOM     32  N   UNL     1      -6.504   1.138 130.503  0.00  0.00    +0.000 N 
ATOM     33  H   UNL     1      -6.177   1.684 131.278  0.00  0.00    +0.000 HD
BRANCH  32  34
ATOM     34  C   UNL     1      -5.508   0.704 129.423  0.00  0.00    +0.000 C 
BRANCH  34  35
ATOM     35  C   UNL     1      -4.785  -0.600 129.735  0.00  0.00    +0.000 C 
ATOM     36  N   UNL     1      -5.416  -1.748 129.374  0.00  0.00    +0.000 N 
ATOM     37  O   UNL     1      -3.729  -0.644 130.358  0.00  0.00    +0.000 OA
ATOM     38  H   UNL     1      -6.235  -1.786 128.795  0.00  0.00    +0.000 HD
ATOM     39  H   UNL     1      -4.927  -2.609 129.568  0.00  0.00    +0.000 HD
ENDBRANCH  34  35
BRANCH  34  40
ATOM     40  C   UNL     1      -4.296   1.671 129.077  0.00  0.00    +0.000 C 
BRANCH  40  41
ATOM     41  C   UNL     1      -4.329   2.279 127.723  0.00  0.00    +0.000 C 
ATOM     42  C   UNL     1      -5.710   3.026 127.524  0.00  0.00    +0.000 C 
ATOM     43  C   UNL     1      -5.747   4.029 126.433  0.00  0.00    +0.000 C 
ATOM     44  C   UNL     1      -4.504   4.722 126.789  0.00  0.00    +0.000 C 
ATOM     45  C   UNL     1      -3.087   3.674 126.477  0.00  0.00    +0.000 C 
ATOM     46  C   UNL     1      -2.986   2.943 127.702  0.00  0.00    +0.000 C 
ENDBRANCH  40  41
ENDBRANCH  34  40
ENDBRANCH  32  34
ENDBRANCH  29  30
ENDBRANCH  10  29
TORSDOF 12
ENDMDL
MODEL 5
REMARK VINA RESULT:      -9.1      3.869      6.540
REMARK  Name = CHEMBL278093
REMARK  13 active torsions:
REMARK  status: ('A' for Active; 'I' for Inactive)
REMARK    1  A    between atoms: C_1  and  C_2
REMARK    2  A    between atoms: C_2  and  C_4
REMARK    3  A    between atoms: C_4  and  C_5
REMARK    4  A    between atoms: C_5  and  C_6
REMARK    5  A    between atoms: C_6  and  C_7
REMARK    6  A    between atoms: N_9  and  C_10
REMARK    7  A    between atoms: C_12  and  C_13
REMARK    8  A    between atoms: N_25  and  C_26
REMARK    9  A    between atoms: C_26  and  C_27
REMARK   10  A    between atoms: N_29  and  C_30
REMARK   11  A    between atoms: C_30  and  C_31
REMARK   12  A    between atoms: C_30  and  C_38
REMARK   13  A    between atoms: C_31  and  C_32
REMARK                            x       y       z     vdW  Elec       q    Type
REMARK                         _______ _______ _______ _____ _____    ______ ____
ROOT
ATOM      1  C   UNL     1      -9.029   4.815 130.885  0.00  0.00    +0.000 C 
ATOM      2  N   UNL     1      -7.821   5.612 130.531  0.00  0.00    +0.000 NA
ATOM      3  C   UNL     1      -6.668   5.249 131.003  0.00  0.00    +0.000 C 
ATOM      4  C   UNL     1      -6.456   4.165 131.897  0.00  0.00    +0.000 A 
ATOM      5  C   UNL     1      -5.613   4.332 133.128  0.00  0.00    +0.000 A 
ATOM      6  C   UNL     1      -5.667   3.469 134.186  0.00  0.00    +0.000 A 
ATOM      7  C   UNL     1      -6.751   2.651 134.037  0.00  0.00    +0.000 A 
ATOM      8  C   UNL     1      -7.491   2.528 132.660  0.00  0.00    +0.000 A 
ATOM      9  C   UNL     1      -7.134   3.065 131.487  0.00  0.00    +0.000 A 
ATOM     10  N   UNL     1      -7.870   2.701 130.242  0.00  0.00    +0.000 N 
ATOM     11  C   UNL     1      -9.033   3.486 130.042  0.00  0.00    +0.000 C 
ATOM     12  O   UNL     1      -9.972   3.125 129.333  0.00  0.00    +0.000 OA
ENDROOT
BRANCH   3  13
ATOM     13  C   UNL     1      -5.404   5.853 130.664  0.00  0.00    +0.000 A 
ATOM     14  C   UNL     1      -4.546   5.094 129.899  0.00  0.00    +0.000 A 
ATOM     15  C   UNL     1      -3.306   5.629 129.637  0.00  0.00    +0.000 A 
ATOM     16  C   UNL     1      -3.028   6.961 129.971  0.00  0.00    +0.000 A 
ATOM     17  C   UNL     1      -4.009   7.788 130.520  0.00  0.00    +0.000 A 
ATOM     18  C   UNL     1      -5.202   7.222 130.917  0.00  0.00    +0.000 A 
ENDBRANCH   3  13
BRANCH   1  21
ATOM     19  C   UNL     1     -10.863   6.331 131.430  0.00  0.00    +0.000 C 
ATOM     20  O   UNL     1     -10.535   6.406 132.612  0.00  0.00    +0.000 OA
ATOM     21  N   UNL     1     -10.182   5.580 130.513  0.00  0.00    +0.000 N 
ATOM     22  H   UNL     1     -10.539   5.403 129.587  0.00  0.00    +0.000 HD
BRANCH  19  23
ATOM     23  C   UNL     1     -12.050   7.080 130.856  0.00  0.00    +0.000 C 
BRANCH  23  24
ATOM     24  C   UNL     1     -12.540   6.375 129.595  0.00  0.00    +0.000 C 
BRANCH  24  25
ATOM     25  C   UNL     1     -12.902   7.337 128.470  0.00  0.00    +0.000 C 
BRANCH  25  27
ATOM     26  C   UNL     1     -10.633   8.358 127.784  0.00  0.00    +0.000 C 
ATOM     27  C   UNL     1     -11.769   7.427 127.459  0.00  0.00    +0.000 C 
ATOM     28  O   UNL     1     -11.757   6.777 126.414  0.00  0.00    +0.000 OA
ENDBRANCH  25  27
ENDBRANCH  24  25
ENDBRANCH  23  24
ENDBRANCH  19  23
ENDBRANCH   1  21
BRANCH  10  29
ATOM     29  C   UNL     1      -7.934   1.268 129.614  0.00  0.00    +0.000 C 
BRANCH  29  30
ATOM     30  C   UNL     1      -7.562   0.981 128.074  0.00  0.00    +0.000 C 
ATOM     31  O   UNL     1      -6.874   0.075 127.760  0.00  0.00    +0.000 OA
ATOM     32  N   UNL     1      -8.129   1.834 127.080  0.00  0.00    +0.000 N 
ATOM     33  H   UNL     1      -8.323   2.791 127.314  0.00  0.00    +0.000 HD
BRANCH  32  34
ATOM     34  C   UNL     1      -8.363   1.356 125.644  0.00  0.00    +0.000 C 
BRANCH  34  35
ATOM     35  C   UNL     1      -9.069   2.376 124.759  0.00  0.00    +0.000 C 
ATOM     36  N   UNL     1     -10.222   1.973 124.164  0.00  0.00    +0.000 N 
ATOM     37  O   UNL     1      -8.599   3.482 124.510  0.00  0.00    +0.000 OA
ATOM     38  H   UNL     1     -10.703   1.120 124.383  0.00  0.00    +0.000 HD
ATOM     39  H   UNL     1     -10.695   2.656 123.592  0.00  0.00    +0.000 HD
ENDBRANCH  34  35
BRANCH  34  40
ATOM     40  C   UNL     1      -9.248   0.058 125.411  0.00  0.00    +0.000 C 
BRANCH  40  41
ATOM     41  C   UNL     1      -8.513  -1.142 124.939  0.00  0.00    +0.000 C 
ATOM     42  C   UNL     1      -8.916  -2.382 125.837  0.00  0.00    +0.000 C 
ATOM     43  C   UNL     1      -8.623  -3.716 125.259  0.00  0.00    +0.000 C 
ATOM     44  C   UNL     1      -9.199  -3.463 123.934  0.00  0.00    +0.000 C 
ATOM     45  C   UNL     1      -8.205  -2.282 123.029  0.00  0.00    +0.000 C 
ATOM     46  C   UNL     1      -8.758  -1.036 123.465  0.00  0.00    +0.000 C 
ENDBRANCH  40  41
ENDBRANCH  34  40
ENDBRANCH  32  34
ENDBRANCH  29  30
ENDBRANCH  10  29
TORSDOF 12
ENDMDL
MODEL 6
REMARK VINA RESULT:      -9.0      3.067      8.767
REMARK  Name = CHEMBL278093
REMARK  13 active torsions:
REMARK  status: ('A' for Active; 'I' for Inactive)
REMARK    1  A    between atoms: C_1  and  C_2
REMARK    2  A    between atoms: C_2  and  C_4
REMARK    3  A    between atoms: C_4  and  C_5
REMARK    4  A    between atoms: C_5  and  C_6
REMARK    5  A    between atoms: C_6  and  C_7
REMARK    6  A    between atoms: N_9  and  C_10
REMARK    7  A    between atoms: C_12  and  C_13
REMARK    8  A    between atoms: N_25  and  C_26
REMARK    9  A    between atoms: C_26  and  C_27
REMARK   10  A    between atoms: N_29  and  C_30
REMARK   11  A    between atoms: C_30  and  C_31
REMARK   12  A    between atoms: C_30  and  C_38
REMARK   13  A    between atoms: C_31  and  C_32
REMARK                            x       y       z     vdW  Elec       q    Type
REMARK                         _______ _______ _______ _____ _____    ______ ____
ROOT
ATOM      1  C   UNL     1      -5.192   3.789 127.773  0.00  0.00    +0.000 C 
ATOM      2  N   UNL     1      -5.751   3.931 126.399  0.00  0.00    +0.000 NA
ATOM      3  C   UNL     1      -6.284   2.895 125.828  0.00  0.00    +0.000 C 
ATOM      4  C   UNL     1      -6.332   1.589 126.385  0.00  0.00    +0.000 A 
ATOM      5  C   UNL     1      -5.932   0.387 125.579  0.00  0.00    +0.000 A 
ATOM      6  C   UNL     1      -5.612  -0.813 126.146  0.00  0.00    +0.000 A 
ATOM      7  C   UNL     1      -5.468  -0.644 127.494  0.00  0.00    +0.000 A 
ATOM      8  C   UNL     1      -6.003   0.644 128.211  0.00  0.00    +0.000 A 
ATOM      9  C   UNL     1      -6.730   1.634 127.681  0.00  0.00    +0.000 A 
ATOM     10  N   UNL     1      -7.295   2.700 128.557  0.00  0.00    +0.000 N 
ATOM     11  C   UNL     1      -6.377   3.751 128.808  0.00  0.00    +0.000 C 
ATOM     12  O   UNL     1      -6.469   4.506 129.776  0.00  0.00    +0.000 OA
ENDROOT
BRANCH   3  13
ATOM     13  C   UNL     1      -6.957   2.903 124.553  0.00  0.00    +0.000 A 
ATOM     14  C   UNL     1      -8.319   2.702 124.577  0.00  0.00    +0.000 A 
ATOM     15  C   UNL     1      -8.960   2.629 123.362  0.00  0.00    +0.000 A 
ATOM     16  C   UNL     1      -8.273   2.946 122.183  0.00  0.00    +0.000 A 
ATOM     17  C   UNL     1      -6.952   3.394 122.214  0.00  0.00    +0.000 A 
ATOM     18  C   UNL     1      -6.262   3.331 123.407  0.00  0.00    +0.000 A 
ENDBRANCH   3  13
BRANCH   1  21
ATOM     19  C   UNL     1      -3.036   4.905 128.031  0.00  0.00    +0.000 C 
ATOM     20  O   UNL     1      -2.404   3.882 127.780  0.00  0.00    +0.000 OA
ATOM     21  N   UNL     1      -4.402   4.954 128.045  0.00  0.00    +0.000 N 
ATOM     22  H   UNL     1      -4.912   5.750 128.395  0.00  0.00    +0.000 HD
BRANCH  19  23
ATOM     23  C   UNL     1      -2.369   6.233 128.332  0.00  0.00    +0.000 C 
BRANCH  23  24
ATOM     24  C   UNL     1      -3.428   7.269 128.696  0.00  0.00    +0.000 C 
BRANCH  24  25
ATOM     25  C   UNL     1      -3.415   7.650 130.171  0.00  0.00    +0.000 C 
BRANCH  25  27
ATOM     26  C   UNL     1      -4.736   6.557 132.100  0.00  0.00    +0.000 C 
ATOM     27  C   UNL     1      -4.757   7.337 130.815  0.00  0.00    +0.000 C 
ATOM     28  O   UNL     1      -5.828   7.697 130.327  0.00  0.00    +0.000 OA
ENDBRANCH  25  27
ENDBRANCH  24  25
ENDBRANCH  23  24
ENDBRANCH  19  23
ENDBRANCH   1  21
BRANCH  10  29
ATOM     29  C   UNL     1      -8.352   2.474 129.691  0.00  0.00    +0.000 C 
BRANCH  29  30
ATOM     30  C   UNL     1      -9.485   3.563 130.047  0.00  0.00    +0.000 C 
ATOM     31  O   UNL     1     -10.435   3.283 130.689  0.00  0.00    +0.000 OA
ATOM     32  N   UNL     1      -9.286   4.903 129.599  0.00  0.00    +0.000 N 
ATOM     33  H   UNL     1      -8.778   5.061 128.748  0.00  0.00    +0.000 HD
BRANCH  32  34
ATOM     34  C   UNL     1      -9.906   6.098 130.330  0.00  0.00    +0.000 C 
BRANCH  34  35
ATOM     35  C   UNL     1      -9.714   6.067 131.841  0.00  0.00    +0.000 C 
ATOM     36  N   UNL     1     -10.797   5.723 132.586  0.00  0.00    +0.000 N 
ATOM     37  O   UNL     1      -8.671   6.412 132.388  0.00  0.00    +0.000 OA
ATOM     38  H   UNL     1     -11.650   5.354 132.208  0.00  0.00    +0.000 HD
ATOM     39  H   UNL     1     -10.661   5.688 133.586  0.00  0.00    +0.000 HD
ENDBRANCH  34  35
BRANCH  34  40
ATOM     40  C   UNL     1     -11.472   6.332 130.208  0.00  0.00    +0.000 C 
BRANCH  40  41
ATOM     41  C   UNL     1     -11.897   7.272 129.140  0.00  0.00    +0.000 C 
ATOM     42  C   UNL     1     -10.720   7.435 128.095  0.00  0.00    +0.000 C 
ATOM     43  C   UNL     1     -11.107   7.978 126.770  0.00  0.00    +0.000 C 
ATOM     44  C   UNL     1     -12.260   7.097 126.550  0.00  0.00    +0.000 C 
ATOM     45  C   UNL     1     -13.588   7.502 127.679  0.00  0.00    +0.000 C 
ATOM     46  C   UNL     1     -13.251   6.713 128.824  0.00  0.00    +0.000 C 
ENDBRANCH  40  41
ENDBRANCH  34  40
ENDBRANCH  32  34
ENDBRANCH  29  30
ENDBRANCH  10  29
TORSDOF 12
ENDMDL
MODEL 7
REMARK VINA RESULT:      -8.9      3.666      6.174
REMARK  Name = CHEMBL278093
REMARK  13 active torsions:
REMARK  status: ('A' for Active; 'I' for Inactive)
REMARK    1  A    between atoms: C_1  and  C_2
REMARK    2  A    between atoms: C_2  and  C_4
REMARK    3  A    between atoms: C_4  and  C_5
REMARK    4  A    between atoms: C_5  and  C_6
REMARK    5  A    between atoms: C_6  and  C_7
REMARK    6  A    between atoms: N_9  and  C_10
REMARK    7  A    between atoms: C_12  and  C_13
REMARK    8  A    between atoms: N_25  and  C_26
REMARK    9  A    between atoms: C_26  and  C_27
REMARK   10  A    between atoms: N_29  and  C_30
REMARK   11  A    between atoms: C_30  and  C_31
REMARK   12  A    between atoms: C_30  and  C_38
REMARK   13  A    between atoms: C_31  and  C_32
REMARK                            x       y       z     vdW  Elec       q    Type
REMARK                         _______ _______ _______ _____ _____    ______ ____
ROOT
ATOM      1  C   UNL     1      -9.541   5.524 130.972  0.00  0.00    +0.000 C 
ATOM      2  N   UNL     1      -8.261   6.102 130.472  0.00  0.00    +0.000 NA
ATOM      3  C   UNL     1      -7.147   5.732 131.024  0.00  0.00    +0.000 C 
ATOM      4  C   UNL     1      -7.037   4.845 132.129  0.00  0.00    +0.000 A 
ATOM      5  C   UNL     1      -6.170   5.181 133.308  0.00  0.00    +0.000 A 
ATOM      6  C   UNL     1      -6.302   4.572 134.523  0.00  0.00    +0.000 A 
ATOM      7  C   UNL     1      -7.465   3.855 134.537  0.00  0.00    +0.000 A 
ATOM      8  C   UNL     1      -8.227   3.520 133.208  0.00  0.00    +0.000 A 
ATOM      9  C   UNL     1      -7.828   3.758 131.953  0.00  0.00    +0.000 A 
ATOM     10  N   UNL     1      -8.608   3.216 130.804  0.00  0.00    +0.000 N 
ATOM     11  C   UNL     1      -9.688   4.055 130.428  0.00  0.00    +0.000 C 
ATOM     12  O   UNL     1     -10.666   3.649 129.800  0.00  0.00    +0.000 OA
ENDROOT
BRANCH   3  13
ATOM     13  C   UNL     1      -5.831   6.119 130.581  0.00  0.00    +0.000 A 
ATOM     14  C   UNL     1      -5.114   5.171 129.885  0.00  0.00    +0.000 A 
ATOM     15  C   UNL     1      -3.828   5.503 129.526  0.00  0.00    +0.000 A 
ATOM     16  C   UNL     1      -3.364   6.813 129.696  0.00  0.00    +0.000 A 
ATOM     17  C   UNL     1      -4.203   7.821 130.173  0.00  0.00    +0.000 A 
ATOM     18  C   UNL     1      -5.442   7.468 130.668  0.00  0.00    +0.000 A 
ENDBRANCH   3  13
BRANCH   1  21
ATOM     19  C   UNL     1     -11.708   6.627 131.186  0.00  0.00    +0.000 C 
ATOM     20  O   UNL     1     -11.841   6.279 132.357  0.00  0.00    +0.000 OA
ATOM     21  N   UNL     1     -10.613   6.307 130.433  0.00  0.00    +0.000 N 
ATOM     22  H   UNL     1     -10.576   6.464 129.438  0.00  0.00    +0.000 HD
BRANCH  19  23
ATOM     23  C   UNL     1     -12.736   7.467 130.454  0.00  0.00    +0.000 C 
BRANCH  23  24
ATOM     24  C   UNL     1     -12.881   6.968 129.020  0.00  0.00    +0.000 C 
BRANCH  24  25
ATOM     25  C   UNL     1     -12.707   8.067 127.980  0.00  0.00    +0.000 C 
BRANCH  25  27
ATOM     26  C   UNL     1     -10.926   7.585 126.174  0.00  0.00    +0.000 C 
ATOM     27  C   UNL     1     -11.257   8.150 127.528  0.00  0.00    +0.000 C 
ATOM     28  O   UNL     1     -10.373   8.654 128.221  0.00  0.00    +0.000 OA
ENDBRANCH  25  27
ENDBRANCH  24  25
ENDBRANCH  23  24
ENDBRANCH  19  23
ENDBRANCH   1  21
BRANCH  10  29
ATOM     29  C   UNL     1      -8.824   1.697 130.492  0.00  0.00    +0.000 C 
BRANCH  29  30
ATOM     30  C   UNL     1      -7.856   0.870 129.506  0.00  0.00    +0.000 C 
ATOM     31  O   UNL     1      -7.193  -0.026 129.895  0.00  0.00    +0.000 OA
ATOM     32  N   UNL     1      -7.852   1.223 128.123  0.00  0.00    +0.000 N 
ATOM     33  H   UNL     1      -8.031   2.175 127.864  0.00  0.00    +0.000 HD
BRANCH  32  34
ATOM     34  C   UNL     1      -7.490   0.209 127.033  0.00  0.00    +0.000 C 
BRANCH  34  35
ATOM     35  C   UNL     1      -6.206   0.541 126.283  0.00  0.00    +0.000 C 
ATOM     36  N   UNL     1      -5.040   0.190 126.885  0.00  0.00    +0.000 N 
ATOM     37  O   UNL     1      -6.193   1.169 125.228  0.00  0.00    +0.000 OA
ATOM     38  H   UNL     1      -4.976  -0.393 127.699  0.00  0.00    +0.000 HD
ATOM     39  H   UNL     1      -4.192   0.396 126.377  0.00  0.00    +0.000 HD
ENDBRANCH  34  35
BRANCH  34  40
ATOM     40  C   UNL     1      -8.513  -0.019 125.840  0.00  0.00    +0.000 C 
BRANCH  40  41
ATOM     41  C   UNL     1      -9.082  -1.386 125.737  0.00  0.00    +0.000 C 
ATOM     42  C   UNL     1      -8.986  -1.875 124.235  0.00  0.00    +0.000 C 
ATOM     43  C   UNL     1      -9.103  -3.339 124.027  0.00  0.00    +0.000 C 
ATOM     44  C   UNL     1      -8.147  -3.740 125.064  0.00  0.00    +0.000 C 
ATOM     45  C   UNL     1      -8.804  -3.399 126.694  0.00  0.00    +0.000 C 
ATOM     46  C   UNL     1      -8.397  -2.042 126.897  0.00  0.00    +0.000 C 
ENDBRANCH  40  41
ENDBRANCH  34  40
ENDBRANCH  32  34
ENDBRANCH  29  30
ENDBRANCH  10  29
TORSDOF 12
ENDMDL
MODEL 8
REMARK VINA RESULT:      -8.8      3.298      4.886
REMARK  Name = CHEMBL278093
REMARK  13 active torsions:
REMARK  status: ('A' for Active; 'I' for Inactive)
REMARK    1  A    between atoms: C_1  and  C_2
REMARK    2  A    between atoms: C_2  and  C_4
REMARK    3  A    between atoms: C_4  and  C_5
REMARK    4  A    between atoms: C_5  and  C_6
REMARK    5  A    between atoms: C_6  and  C_7
REMARK    6  A    between atoms: N_9  and  C_10
REMARK    7  A    between atoms: C_12  and  C_13
REMARK    8  A    between atoms: N_25  and  C_26
REMARK    9  A    between atoms: C_26  and  C_27
REMARK   10  A    between atoms: N_29  and  C_30
REMARK   11  A    between atoms: C_30  and  C_31
REMARK   12  A    between atoms: C_30  and  C_38
REMARK   13  A    between atoms: C_31  and  C_32
REMARK                            x       y       z     vdW  Elec       q    Type
REMARK                         _______ _______ _______ _____ _____    ______ ____
ROOT
ATOM      1  C   UNL     1     -10.056   5.461 131.010  0.00  0.00    +0.000 C 
ATOM      2  N   UNL     1      -8.741   5.920 130.482  0.00  0.00    +0.000 NA
ATOM      3  C   UNL     1      -7.666   5.663 131.161  0.00  0.00    +0.000 C 
ATOM      4  C   UNL     1      -7.634   5.016 132.426  0.00  0.00    +0.000 A 
ATOM      5  C   UNL     1      -6.830   5.578 133.563  0.00  0.00    +0.000 A 
ATOM      6  C   UNL     1      -7.041   5.225 134.865  0.00  0.00    +0.000 A 
ATOM      7  C   UNL     1      -8.214   4.531 134.954  0.00  0.00    +0.000 A 
ATOM      8  C   UNL     1      -8.905   3.940 133.676  0.00  0.00    +0.000 A 
ATOM      9  C   UNL     1      -8.432   3.919 132.425  0.00  0.00    +0.000 A 
ATOM     10  N   UNL     1      -9.154   3.161 131.363  0.00  0.00    +0.000 N 
ATOM     11  C   UNL     1     -10.197   3.913 130.764  0.00  0.00    +0.000 C 
ATOM     12  O   UNL     1     -11.144   3.394 130.173  0.00  0.00    +0.000 OA
ENDROOT
BRANCH   3  13
ATOM     13  C   UNL     1      -6.320   5.946 130.728  0.00  0.00    +0.000 A 
ATOM     14  C   UNL     1      -5.651   4.923 130.094  0.00  0.00    +0.000 A 
ATOM     15  C   UNL     1      -4.340   5.157 129.747  0.00  0.00    +0.000 A 
ATOM     16  C   UNL     1      -3.800   6.444 129.862  0.00  0.00    +0.000 A 
ATOM     17  C   UNL     1      -4.584   7.524 130.272  0.00  0.00    +0.000 A 
ATOM     18  C   UNL     1      -5.851   7.272 130.757  0.00  0.00    +0.000 A 
ENDBRANCH   3  13
BRANCH   1  21
ATOM     19  C   UNL     1     -12.164   6.685 130.884  0.00  0.00    +0.000 C 
ATOM     20  O   UNL     1     -12.322   6.667 132.102  0.00  0.00    +0.000 OA
ATOM     21  N   UNL     1     -11.083   6.124 130.263  0.00  0.00    +0.000 N 
ATOM     22  H   UNL     1     -11.032   6.011 129.263  0.00  0.00    +0.000 HD
BRANCH  19  23
ATOM     23  C   UNL     1     -13.143   7.352 129.937  0.00  0.00    +0.000 C 
BRANCH  23  24
ATOM     24  C   UNL     1     -13.151   6.611 128.602  0.00  0.00    +0.000 C 
BRANCH  24  25
ATOM     25  C   UNL     1     -12.855   7.513 127.412  0.00  0.00    +0.000 C 
BRANCH  25  27
ATOM     26  C   UNL     1     -10.525   8.532 127.858  0.00  0.00    +0.000 C 
ATOM     27  C   UNL     1     -11.363   7.530 127.112  0.00  0.00    +0.000 C 
ATOM     28  O   UNL     1     -10.840   6.767 126.301  0.00  0.00    +0.000 OA
ENDBRANCH  25  27
ENDBRANCH  24  25
ENDBRANCH  23  24
ENDBRANCH  19  23
ENDBRANCH   1  21
BRANCH  10  29
ATOM     29  C   UNL     1      -9.378   1.611 131.350  0.00  0.00    +0.000 C 
BRANCH  29  30
ATOM     30  C   UNL     1      -8.333   0.592 130.668  0.00  0.00    +0.000 C 
ATOM     31  O   UNL     1      -7.666   0.911 129.748  0.00  0.00    +0.000 OA
ATOM     32  N   UNL     1      -8.200  -0.709 131.240  0.00  0.00    +0.000 N 
ATOM     33  H   UNL     1      -8.996  -1.129 131.683  0.00  0.00    +0.000 HD
BRANCH  32  34
ATOM     34  C   UNL     1      -6.905  -1.517 131.112  0.00  0.00    +0.000 C 
BRANCH  34  35
ATOM     35  C   UNL     1      -7.117  -2.958 130.665  0.00  0.00    +0.000 C 
ATOM     36  N   UNL     1      -6.186  -3.864 131.064  0.00  0.00    +0.000 N 
ATOM     37  O   UNL     1      -8.025  -3.296 129.912  0.00  0.00    +0.000 OA
ATOM     38  H   UNL     1      -5.468  -3.677 131.740  0.00  0.00    +0.000 HD
ATOM     39  H   UNL     1      -6.338  -4.820 130.780  0.00  0.00    +0.000 HD
ENDBRANCH  34  35
BRANCH  34  40
ATOM     40  C   UNL     1      -6.001  -1.709 132.403  0.00  0.00    +0.000 C 
BRANCH  40  41
ATOM     41  C   UNL     1      -5.207  -0.522 132.810  0.00  0.00    +0.000 C 
ATOM     42  C   UNL     1      -4.630   0.184 131.517  0.00  0.00    +0.000 C 
ATOM     43  C   UNL     1      -4.188   1.589 131.693  0.00  0.00    +0.000 C 
ATOM     44  C   UNL     1      -5.384   2.060 132.399  0.00  0.00    +0.000 C 
ATOM     45  C   UNL     1      -5.476   1.341 134.035  0.00  0.00    +0.000 C 
ATOM     46  C   UNL     1      -6.160   0.111 133.778  0.00  0.00    +0.000 C 
ENDBRANCH  40  41
ENDBRANCH  34  40
ENDBRANCH  32  34
ENDBRANCH  29  30
ENDBRANCH  10  29
TORSDOF 12
ENDMDL
MODEL 9
REMARK VINA RESULT:      -8.7      4.070      6.855
REMARK  Name = CHEMBL278093
REMARK  13 active torsions:
REMARK  status: ('A' for Active; 'I' for Inactive)
REMARK    1  A    between atoms: C_1  and  C_2
REMARK    2  A    between atoms: C_2  and  C_4
REMARK    3  A    between atoms: C_4  and  C_5
REMARK    4  A    between atoms: C_5  and  C_6
REMARK    5  A    between atoms: C_6  and  C_7
REMARK    6  A    between atoms: N_9  and  C_10
REMARK    7  A    between atoms: C_12  and  C_13
REMARK    8  A    between atoms: N_25  and  C_26
REMARK    9  A    between atoms: C_26  and  C_27
REMARK   10  A    between atoms: N_29  and  C_30
REMARK   11  A    between atoms: C_30  and  C_31
REMARK   12  A    between atoms: C_30  and  C_38
REMARK   13  A    between atoms: C_31  and  C_32
REMARK                            x       y       z     vdW  Elec       q    Type
REMARK                         _______ _______ _______ _____ _____    ______ ____
ROOT
ATOM      1  C   UNL     1      -7.743   4.408 129.016  0.00  0.00    +0.000 C 
ATOM      2  N   UNL     1      -6.597   5.136 129.629  0.00  0.00    +0.000 NA
ATOM      3  C   UNL     1      -5.407   4.629 129.534  0.00  0.00    +0.000 C 
ATOM      4  C   UNL     1      -5.097   3.380 128.933  0.00  0.00    +0.000 A 
ATOM      5  C   UNL     1      -4.211   2.385 129.626  0.00  0.00    +0.000 A 
ATOM      6  C   UNL     1      -4.173   1.063 129.286  0.00  0.00    +0.000 A 
ATOM      7  C   UNL     1      -5.215   0.789 128.446  0.00  0.00    +0.000 A 
ATOM      8  C   UNL     1      -6.007   1.941 127.735  0.00  0.00    +0.000 A 
ATOM      9  C   UNL     1      -5.731   3.249 127.741  0.00  0.00    +0.000 A 
ATOM     10  N   UNL     1      -6.499   4.181 126.866  0.00  0.00    +0.000 N 
ATOM     11  C   UNL     1      -7.711   4.618 127.457  0.00  0.00    +0.000 C 
ATOM     12  O   UNL     1      -8.659   5.051 126.802  0.00  0.00    +0.000 OA
ENDROOT
BRANCH   3  13
ATOM     13  C   UNL     1      -4.193   5.267 129.980  0.00  0.00    +0.000 A 
ATOM     14  C   UNL     1      -3.943   5.231 131.334  0.00  0.00    +0.000 A 
ATOM     15  C   UNL     1      -2.829   5.905 131.779  0.00  0.00    +0.000 A 
ATOM     16  C   UNL     1      -1.905   6.422 130.862  0.00  0.00    +0.000 A 
ATOM     17  C   UNL     1      -2.057   6.220 129.490  0.00  0.00    +0.000 A 
ATOM     18  C   UNL     1      -3.239   5.676 129.031  0.00  0.00    +0.000 A 
ENDBRANCH   3  13
BRANCH   1  21
ATOM     19  C   UNL     1      -9.604   4.461 130.596  0.00  0.00    +0.000 C 
ATOM     20  O   UNL     1      -9.202   3.470 131.201  0.00  0.00    +0.000 OA
ATOM     21  N   UNL     1      -8.952   4.992 129.518  0.00  0.00    +0.000 N 
ATOM     22  H   UNL     1      -9.360   5.707 128.937  0.00  0.00    +0.000 HD
BRANCH  19  23
ATOM     23  C   UNL     1     -10.858   5.216 130.991  0.00  0.00    +0.000 C 
BRANCH  23  24
ATOM     24  C   UNL     1     -11.553   5.748 129.741  0.00  0.00    +0.000 C 
BRANCH  24  25
ATOM     25  C   UNL     1     -11.674   7.266 129.721  0.00  0.00    +0.000 C 
BRANCH  25  27
ATOM     26  C   UNL     1     -10.892   8.323 127.500  0.00  0.00    +0.000 C 
ATOM     27  C   UNL     1     -10.553   7.880 128.896  0.00  0.00    +0.000 C 
ATOM     28  O   UNL     1      -9.410   8.021 129.329  0.00  0.00    +0.000 OA
ENDBRANCH  25  27
ENDBRANCH  24  25
ENDBRANCH  23  24
ENDBRANCH  19  23
ENDBRANCH   1  21
BRANCH  10  29
ATOM     29  C   UNL     1      -6.512   4.149 125.300  0.00  0.00    +0.000 C 
BRANCH  29  30
ATOM     30  C   UNL     1      -7.121   2.914 124.465  0.00  0.00    +0.000 C 
ATOM     31  O   UNL     1      -6.593   2.501 123.493  0.00  0.00    +0.000 OA
ATOM     32  N   UNL     1      -8.308   2.295 124.960  0.00  0.00    +0.000 N 
ATOM     33  H   UNL     1      -8.971   2.851 125.467  0.00  0.00    +0.000 HD
BRANCH  32  34
ATOM     34  C   UNL     1      -8.640   0.830 124.657  0.00  0.00    +0.000 C 
BRANCH  34  35
ATOM     35  C   UNL     1      -9.839   0.645 123.736  0.00  0.00    +0.000 C 
ATOM     36  N   UNL     1     -10.875   1.508 123.903  0.00  0.00    +0.000 N 
ATOM     37  O   UNL     1      -9.928  -0.280 122.934  0.00  0.00    +0.000 OA
ATOM     38  H   UNL     1     -10.839   2.331 124.477  0.00  0.00    +0.000 HD
ATOM     39  H   UNL     1     -11.661   1.393 123.280  0.00  0.00    +0.000 HD
ENDBRANCH  34  35
BRANCH  34  40
ATOM     40  C   UNL     1      -9.011  -0.129 125.867  0.00  0.00    +0.000 C 
BRANCH  40  41
ATOM     41  C   UNL     1      -8.214  -1.378 125.962  0.00  0.00    +0.000 C 
ATOM     42  C   UNL     1      -9.081  -2.588 125.426  0.00  0.00    +0.000 C 
ATOM     43  C   UNL     1      -8.322  -3.805 125.050  0.00  0.00    +0.000 C 
ATOM     44  C   UNL     1      -7.299  -3.132 124.244  0.00  0.00    +0.000 C 
ATOM     45  C   UNL     1      -6.219  -2.154 125.284  0.00  0.00    +0.000 C 
ATOM     46  C   UNL     1      -6.925  -0.912 125.356  0.00  0.00    +0.000 C 
ENDBRANCH  40  41
ENDBRANCH  34  40
ENDBRANCH  32  34
ENDBRANCH  29  30
ENDBRANCH  10  29
TORSDOF 12
ENDMDL
