MODEL 1
REMARK VINA RESULT:      -9.3      0.000      0.000
REMARK  Name = CHEMBL2037510
REMARK  12 active torsions:
REMARK  status: ('A' for Active; 'I' for Inactive)
REMARK    1  A    between atoms: CD1_1  and  CG1_2
REMARK    2  A    between atoms: CG1_2  and  CB_3
REMARK    3  A    between atoms: CB_3  and  CG2_4
REMARK    4  A    between atoms: CB_3  and  CA_5
REMARK    5  A    between atoms: C_9  and  C_10
REMARK    6  A    between atoms: N_21  and  C_22
REMARK    7  A    between atoms: C_22  and  C_23
REMARK    8  A    between atoms: C_22  and  C_28
REMARK    9  A    between atoms: N_25  and  C_26
REMARK   10  A    between atoms: N_25  and  C_27
REMARK   11  A    between atoms: C_31  and  C_32
REMARK   12  A    between atoms: C_34  and  C_35
REMARK                            x       y       z     vdW  Elec       q    Type
REMARK                         _______ _______ _______ _____ _____    ______ ____
ROOT
ATOM      1  CA  ILE A   2      -7.921   2.855 128.790  0.00  0.00    +0.000 C 
ATOM      2  C   ILE A   2      -8.204   4.225 128.151  0.00  0.00    +0.000 C 
ATOM      3  O   ILE A   2      -8.230   4.580 126.948  0.00  0.00    +0.000 OA
ATOM      4  N   UNK A   1      -8.587   5.128 129.019  0.00  0.00    +0.000 N 
ATOM      5  C   UNK A   1      -9.276   4.665 130.192  0.00  0.00    +0.000 C 
ATOM      6  C   UNK A   1      -8.376   3.733 130.971  0.00  0.00    +0.000 C 
ATOM      7  O   UNK A   1      -8.427   3.740 132.198  0.00  0.00    +0.000 OA
ATOM      8  N   ILE A   2      -7.565   2.959 130.179  0.00  0.00    +0.000 N 
ATOM      9  H   UNK A   1      -8.759   6.015 128.562  0.00  0.00    +0.000 HD
ENDROOT
BRANCH   5  10
ATOM     10  C   UNK A   1      -9.517   5.831 131.120  0.00  0.00    +0.000 C 
ATOM     11  C   UNK A   1     -11.006   5.914 131.431  0.00  0.00    +0.000 C 
ATOM     12  C   UNK A   1     -11.479   6.855 130.362  0.00  0.00    +0.000 A 
ATOM     13  C   UNK A   1     -12.754   6.942 129.838  0.00  0.00    +0.000 A 
ATOM     14  C   UNK A   1     -12.960   7.773 128.736  0.00  0.00    +0.000 A 
ATOM     15  C   UNK A   1     -11.893   8.475 128.150  0.00  0.00    +0.000 A 
ATOM     16  C   UNK A   1     -10.597   8.352 128.653  0.00  0.00    +0.000 A 
ATOM     17  C   UNK A   1     -10.409   7.553 129.771  0.00  0.00    +0.000 A 
ATOM     18  C   UNK A   1      -9.109   7.163 130.410  0.00  0.00    +0.000 C 
ENDBRANCH   5  10
BRANCH   1  19
ATOM     19  CB  ILE A   2      -6.811   2.229 128.030  0.00  0.00    +0.000 C 
ATOM     20  CG2 ILE A   2      -7.613   0.801 127.080  0.00  0.00    +0.000 C 
BRANCH  19  22
ATOM     21  CD1 ILE A   2      -4.857   3.734 125.823  0.00  0.00    +0.000 C 
ATOM     22  CG1 ILE A   2      -5.311   3.365 127.425  0.00  0.00    +0.000 C 
ENDBRANCH  19  22
ENDBRANCH   1  19
BRANCH   8  23
ATOM     23  C   UNK A   0      -6.373   2.246 130.639  0.00  0.00    +0.000 C 
BRANCH  23  24
ATOM     24  C   UNK A   0      -6.665   0.934 131.444  0.00  0.00    +0.000 A 
ATOM     25  C   UNK A   0      -6.919  -0.270 130.703  0.00  0.00    +0.000 A 
ATOM     26  C   UNK A   0      -7.458  -1.397 131.315  0.00  0.00    +0.000 A 
ATOM     27  C   UNK A   0      -7.603  -1.353 132.681  0.00  0.00    +0.000 A 
ATOM     28  C   UNK A   0      -8.186  -2.453 133.481  0.00  0.00    +0.000 C 
ATOM     29  N   UNK A   0      -7.195  -0.319 133.423  0.00  0.00    +0.000 NA
ATOM     30  C   UNK A   0      -6.732   0.788 132.818  0.00  0.00    +0.000 A 
ATOM     31  C   UNK A   0      -6.287   1.782 133.805  0.00  0.00    +0.000 C 
ENDBRANCH  23  24
BRANCH  23  32
ATOM     32  C   UNK A   0      -4.959   3.356 131.066  0.00  0.00    +0.000 C 
ATOM     33  O   UNK A   0      -3.835   3.006 130.689  0.00  0.00    +0.000 OA
ATOM     34  N   UNK A   0      -4.951   4.862 131.739  0.00  0.00    +0.000 N 
ATOM     35  C   UNK A   0      -6.143   6.044 132.604  0.00  0.00    +0.000 C 
ATOM     36  C   UNK A   0      -3.553   5.285 131.758  0.00  0.00    +0.000 C 
ENDBRANCH  23  32
ENDBRANCH   8  23
TORSDOF 6
ENDMDL
MODEL 2
REMARK VINA RESULT:      -9.0      2.108      2.788
REMARK  Name = CHEMBL2037510
REMARK  12 active torsions:
REMARK  status: ('A' for Active; 'I' for Inactive)
REMARK    1  A    between atoms: CD1_1  and  CG1_2
REMARK    2  A    between atoms: CG1_2  and  CB_3
REMARK    3  A    between atoms: CB_3  and  CG2_4
REMARK    4  A    between atoms: CB_3  and  CA_5
REMARK    5  A    between atoms: C_9  and  C_10
REMARK    6  A    between atoms: N_21  and  C_22
REMARK    7  A    between atoms: C_22  and  C_23
REMARK    8  A    between atoms: C_22  and  C_28
REMARK    9  A    between atoms: N_25  and  C_26
REMARK   10  A    between atoms: N_25  and  C_27
REMARK   11  A    between atoms: C_31  and  C_32
REMARK   12  A    between atoms: C_34  and  C_35
REMARK                            x       y       z     vdW  Elec       q    Type
REMARK                         _______ _______ _______ _____ _____    ______ ____
ROOT
ATOM      1  CA  ILE A   2      -7.095   2.491 127.507  0.00  0.00    +0.000 C 
ATOM      2  C   ILE A   2      -7.074   4.010 127.744  0.00  0.00    +0.000 C 
ATOM      3  O   ILE A   2      -6.653   4.948 127.025  0.00  0.00    +0.000 OA
ATOM      4  N   UNK A   1      -7.707   4.369 128.834  0.00  0.00    +0.000 N 
ATOM      5  C   UNK A   1      -8.789   3.533 129.274  0.00  0.00    +0.000 C 
ATOM      6  C   UNK A   1      -8.266   2.145 129.567  0.00  0.00    +0.000 C 
ATOM      7  O   UNK A   1      -8.753   1.506 130.496  0.00  0.00    +0.000 OA
ATOM      8  N   ILE A   2      -7.257   1.746 128.726  0.00  0.00    +0.000 N 
ATOM      9  H   UNK A   1      -7.667   5.374 128.957  0.00  0.00    +0.000 HD
ENDROOT
BRANCH   5  10
ATOM     10  C   UNK A   1      -9.299   4.039 130.603  0.00  0.00    +0.000 C 
ATOM     11  C   UNK A   1     -10.821   4.092 130.558  0.00  0.00    +0.000 C 
ATOM     12  C   UNK A   1     -11.053   5.501 130.097  0.00  0.00    +0.000 A 
ATOM     13  C   UNK A   1     -12.162   5.982 129.428  0.00  0.00    +0.000 A 
ATOM     14  C   UNK A   1     -12.124   7.290 128.942  0.00  0.00    +0.000 A 
ATOM     15  C   UNK A   1     -10.976   8.085 129.094  0.00  0.00    +0.000 A 
ATOM     16  C   UNK A   1      -9.840   7.582 129.731  0.00  0.00    +0.000 A 
ATOM     17  C   UNK A   1      -9.900   6.295 130.243  0.00  0.00    +0.000 A 
ATOM     18  C   UNK A   1      -8.783   5.495 130.845  0.00  0.00    +0.000 C 
ENDBRANCH   5  10
BRANCH   1  19
ATOM     19  CB  ILE A   2      -5.813   2.123 126.858  0.00  0.00    +0.000 C 
ATOM     20  CG2 ILE A   2      -6.281   1.646 125.086  0.00  0.00    +0.000 C 
BRANCH  19  22
ATOM     21  CD1 ILE A   2      -2.634   3.027 126.673  0.00  0.00    +0.000 C 
ATOM     22  CG1 ILE A   2      -4.154   3.022 127.447  0.00  0.00    +0.000 C 
ENDBRANCH  19  22
ENDBRANCH   1  19
BRANCH   8  23
ATOM     23  C   UNK A   0      -6.339   0.636 128.981  0.00  0.00    +0.000 C 
BRANCH  23  24
ATOM     24  C   UNK A   0      -6.960  -0.787 128.772  0.00  0.00    +0.000 A 
ATOM     25  C   UNK A   0      -7.032  -1.302 127.433  0.00  0.00    +0.000 A 
ATOM     26  C   UNK A   0      -7.811  -2.413 127.126  0.00  0.00    +0.000 A 
ATOM     27  C   UNK A   0      -8.392  -3.076 128.180  0.00  0.00    +0.000 A 
ATOM     28  C   UNK A   0      -9.273  -4.256 128.024  0.00  0.00    +0.000 C 
ATOM     29  N   UNK A   0      -8.186  -2.736 129.456  0.00  0.00    +0.000 NA
ATOM     30  C   UNK A   0      -7.481  -1.627 129.739  0.00  0.00    +0.000 A 
ATOM     31  C   UNK A   0      -7.323  -1.460 131.191  0.00  0.00    +0.000 C 
ENDBRANCH  23  24
BRANCH  23  32
ATOM     32  C   UNK A   0      -5.111   0.976 130.319  0.00  0.00    +0.000 C 
ATOM     33  O   UNK A   0      -3.937   0.659 130.098  0.00  0.00    +0.000 OA
ATOM     34  N   UNK A   0      -5.279   1.805 131.735  0.00  0.00    +0.000 N 
ATOM     35  C   UNK A   0      -6.653   2.530 132.808  0.00  0.00    +0.000 C 
ATOM     36  C   UNK A   0      -3.953   1.826 132.347  0.00  0.00    +0.000 C 
ENDBRANCH  23  32
ENDBRANCH   8  23
TORSDOF 6
ENDMDL
MODEL 3
REMARK VINA RESULT:      -8.9      2.309      7.668
REMARK  Name = CHEMBL2037510
REMARK  12 active torsions:
REMARK  status: ('A' for Active; 'I' for Inactive)
REMARK    1  A    between atoms: CD1_1  and  CG1_2
REMARK    2  A    between atoms: CG1_2  and  CB_3
REMARK    3  A    between atoms: CB_3  and  CG2_4
REMARK    4  A    between atoms: CB_3  and  CA_5
REMARK    5  A    between atoms: C_9  and  C_10
REMARK    6  A    between atoms: N_21  and  C_22
REMARK    7  A    between atoms: C_22  and  C_23
REMARK    8  A    between atoms: C_22  and  C_28
REMARK    9  A    between atoms: N_25  and  C_26
REMARK   10  A    between atoms: N_25  and  C_27
REMARK   11  A    between atoms: C_31  and  C_32
REMARK   12  A    between atoms: C_34  and  C_35
REMARK                            x       y       z     vdW  Elec       q    Type
REMARK                         _______ _______ _______ _____ _____    ______ ____
ROOT
ATOM      1  CA  ILE A   2      -6.291   2.388 131.059  0.00  0.00    +0.000 C 
ATOM      2  C   ILE A   2      -5.193   1.338 130.819  0.00  0.00    +0.000 C 
ATOM      3  O   ILE A   2      -4.109   1.132 131.416  0.00  0.00    +0.000 OA
ATOM      4  N   UNK A   1      -5.516   0.456 129.906  0.00  0.00    +0.000 N 
ATOM      5  C   UNK A   1      -6.912   0.166 129.733  0.00  0.00    +0.000 C 
ATOM      6  C   UNK A   1      -7.643   1.427 129.331  0.00  0.00    +0.000 C 
ATOM      7  O   UNK A   1      -8.583   1.349 128.544  0.00  0.00    +0.000 OA
ATOM      8  N   ILE A   2      -7.143   2.564 129.914  0.00  0.00    +0.000 N 
ATOM      9  H   UNK A   1      -4.767  -0.214 129.773  0.00  0.00    +0.000 HD
ENDROOT
BRANCH   5  10
ATOM     10  C   UNK A   1      -7.086  -0.769 128.560  0.00  0.00    +0.000 C 
ATOM     11  C   UNK A   1      -7.752  -2.050 129.044  0.00  0.00    +0.000 C 
ATOM     12  C   UNK A   1      -6.557  -2.902 129.360  0.00  0.00    +0.000 A 
ATOM     13  C   UNK A   1      -6.502  -3.953 130.256  0.00  0.00    +0.000 A 
ATOM     14  C   UNK A   1      -5.258  -4.522 130.528  0.00  0.00    +0.000 A 
ATOM     15  C   UNK A   1      -4.086  -4.018 129.939  0.00  0.00    +0.000 A 
ATOM     16  C   UNK A   1      -4.138  -2.928 129.069  0.00  0.00    +0.000 A 
ATOM     17  C   UNK A   1      -5.383  -2.392 128.775  0.00  0.00    +0.000 A 
ATOM     18  C   UNK A   1      -5.685  -1.155 127.983  0.00  0.00    +0.000 C 
ENDBRANCH   5  10
BRANCH   1  19
ATOM     19  CB  ILE A   2      -5.620   3.668 131.391  0.00  0.00    +0.000 C 
ATOM     20  CG2 ILE A   2      -5.921   3.911 133.245  0.00  0.00    +0.000 C 
BRANCH  19  22
ATOM     21  CD1 ILE A   2      -3.859   5.458 129.234  0.00  0.00    +0.000 C 
ATOM     22  CG1 ILE A   2      -4.012   4.194 130.370  0.00  0.00    +0.000 C 
ENDBRANCH  19  22
ENDBRANCH   1  19
BRANCH   8  23
ATOM     23  C   UNK A   0      -7.403   3.929 129.454  0.00  0.00    +0.000 C 
BRANCH  23  24
ATOM     24  C   UNK A   0      -8.608   4.638 130.161  0.00  0.00    +0.000 A 
ATOM     25  C   UNK A   0      -9.866   3.947 130.207  0.00  0.00    +0.000 A 
ATOM     26  C   UNK A   0     -11.042   4.604 130.555  0.00  0.00    +0.000 A 
ATOM     27  C   UNK A   0     -10.923   5.903 130.989  0.00  0.00    +0.000 A 
ATOM     28  C   UNK A   0     -12.075   6.752 131.369  0.00  0.00    +0.000 C 
ATOM     29  N   UNK A   0      -9.744   6.514 131.143  0.00  0.00    +0.000 NA
ATOM     30  C   UNK A   0      -8.620   5.891 130.747  0.00  0.00    +0.000 A 
ATOM     31  C   UNK A   0      -7.433   6.703 131.051  0.00  0.00    +0.000 C 
ENDBRANCH  23  24
BRANCH  23  32
ATOM     32  C   UNK A   0      -7.027   4.198 127.666  0.00  0.00    +0.000 C 
ATOM     33  O   UNK A   0      -7.725   5.019 127.062  0.00  0.00    +0.000 OA
ATOM     34  N   UNK A   0      -5.779   3.641 126.743  0.00  0.00    +0.000 N 
ATOM     35  C   UNK A   0      -4.382   2.375 126.849  0.00  0.00    +0.000 C 
ATOM     36  C   UNK A   0      -5.951   4.248 125.426  0.00  0.00    +0.000 C 
ENDBRANCH  23  32
ENDBRANCH   8  23
TORSDOF 6
ENDMDL
MODEL 4
REMARK VINA RESULT:      -8.9      2.328      6.831
REMARK  Name = CHEMBL2037510
REMARK  12 active torsions:
REMARK  status: ('A' for Active; 'I' for Inactive)
REMARK    1  A    between atoms: CD1_1  and  CG1_2
REMARK    2  A    between atoms: CG1_2  and  CB_3
REMARK    3  A    between atoms: CB_3  and  CG2_4
REMARK    4  A    between atoms: CB_3  and  CA_5
REMARK    5  A    between atoms: C_9  and  C_10
REMARK    6  A    between atoms: N_21  and  C_22
REMARK    7  A    between atoms: C_22  and  C_23
REMARK    8  A    between atoms: C_22  and  C_28
REMARK    9  A    between atoms: N_25  and  C_26
REMARK   10  A    between atoms: N_25  and  C_27
REMARK   11  A    between atoms: C_31  and  C_32
REMARK   12  A    between atoms: C_34  and  C_35
REMARK                            x       y       z     vdW  Elec       q    Type
REMARK                         _______ _______ _______ _____ _____    ______ ____
ROOT
ATOM      1  CA  ILE A   2      -8.134   2.311 130.162  0.00  0.00    +0.000 C 
ATOM      2  C   ILE A   2      -7.132   1.208 129.783  0.00  0.00    +0.000 C 
ATOM      3  O   ILE A   2      -6.934   0.073 130.278  0.00  0.00    +0.000 OA
ATOM      4  N   UNK A   1      -6.462   1.476 128.689  0.00  0.00    +0.000 N 
ATOM      5  C   UNK A   1      -7.103   2.307 127.709  0.00  0.00    +0.000 C 
ATOM      6  C   UNK A   1      -7.412   3.657 128.317  0.00  0.00    +0.000 C 
ATOM      7  O   UNK A   1      -7.330   4.662 127.616  0.00  0.00    +0.000 OA
ATOM      8  N   ILE A   2      -7.756   3.598 129.645  0.00  0.00    +0.000 N 
ATOM      9  H   UNK A   1      -5.811   0.730 128.475  0.00  0.00    +0.000 HD
ENDROOT
BRANCH   5  10
ATOM     10  C   UNK A   1      -6.130   2.603 126.593  0.00  0.00    +0.000 C 
ATOM     11  C   UNK A   1      -6.856   2.480 125.260  0.00  0.00    +0.000 C 
ATOM     12  C   UNK A   1      -6.594   1.044 124.912  0.00  0.00    +0.000 A 
ATOM     13  C   UNK A   1      -7.362   0.234 124.098  0.00  0.00    +0.000 A 
ATOM     14  C   UNK A   1      -7.040  -1.121 124.023  0.00  0.00    +0.000 A 
ATOM     15  C   UNK A   1      -5.988  -1.659 124.783  0.00  0.00    +0.000 A 
ATOM     16  C   UNK A   1      -5.241  -0.848 125.639  0.00  0.00    +0.000 A 
ATOM     17  C   UNK A   1      -5.544   0.505 125.679  0.00  0.00    +0.000 A 
ATOM     18  C   UNK A   1      -4.980   1.543 126.603  0.00  0.00    +0.000 C 
ENDBRANCH   5  10
BRANCH   1  19
ATOM     19  CB  ILE A   2      -8.201   2.363 131.643  0.00  0.00    +0.000 C 
ATOM     20  CG2 ILE A   2      -9.926   1.714 132.077  0.00  0.00    +0.000 C 
BRANCH  19  22
ATOM     21  CD1 ILE A   2      -5.027   2.857 132.443  0.00  0.00    +0.000 C 
ATOM     22  CG1 ILE A   2      -6.539   2.105 132.682  0.00  0.00    +0.000 C 
ENDBRANCH  19  22
ENDBRANCH   1  19
BRANCH   8  23
ATOM     23  C   UNK A   0      -7.759   4.737 130.564  0.00  0.00    +0.000 C 
BRANCH  23  24
ATOM     24  C   UNK A   0      -9.180   5.303 130.901  0.00  0.00    +0.000 A 
ATOM     25  C   UNK A   0     -10.188   5.247 129.879  0.00  0.00    +0.000 A 
ATOM     26  C   UNK A   0     -11.372   5.969 129.990  0.00  0.00    +0.000 A 
ATOM     27  C   UNK A   0     -11.594   6.622 131.178  0.00  0.00    +0.000 A 
ATOM     28  C   UNK A   0     -12.786   7.456 131.449  0.00  0.00    +0.000 C 
ATOM     29  N   UNK A   0     -10.763   6.534 132.223  0.00  0.00    +0.000 NA
ATOM     30  C   UNK A   0      -9.595   5.884 132.085  0.00  0.00    +0.000 A 
ATOM     31  C   UNK A   0      -8.855   5.855 133.355  0.00  0.00    +0.000 C 
ENDBRANCH  23  24
BRANCH  23  32
ATOM     32  C   UNK A   0      -6.288   5.841 130.387  0.00  0.00    +0.000 C 
ATOM     33  O   UNK A   0      -6.409   7.006 130.779  0.00  0.00    +0.000 OA
ATOM     34  N   UNK A   0      -4.740   5.491 129.936  0.00  0.00    +0.000 N 
ATOM     35  C   UNK A   0      -3.764   4.064 129.175  0.00  0.00    +0.000 C 
ATOM     36  C   UNK A   0      -3.993   6.739 130.063  0.00  0.00    +0.000 C 
ENDBRANCH  23  32
ENDBRANCH   8  23
TORSDOF 6
ENDMDL
MODEL 5
REMARK VINA RESULT:      -8.9      2.211      2.901
REMARK  Name = CHEMBL2037510
REMARK  12 active torsions:
REMARK  status: ('A' for Active; 'I' for Inactive)
REMARK    1  A    between atoms: CD1_1  and  CG1_2
REMARK    2  A    between atoms: CG1_2  and  CB_3
REMARK    3  A    between atoms: CB_3  and  CG2_4
REMARK    4  A    between atoms: CB_3  and  CA_5
REMARK    5  A    between atoms: C_9  and  C_10
REMARK    6  A    between atoms: N_21  and  C_22
REMARK    7  A    between atoms: C_22  and  C_23
REMARK    8  A    between atoms: C_22  and  C_28
REMARK    9  A    between atoms: N_25  and  C_26
REMARK   10  A    between atoms: N_25  and  C_27
REMARK   11  A    between atoms: C_31  and  C_32
REMARK   12  A    between atoms: C_34  and  C_35
REMARK                            x       y       z     vdW  Elec       q    Type
REMARK                         _______ _______ _______ _____ _____    ______ ____
ROOT
ATOM      1  CA  ILE A   2      -7.109   2.440 129.947  0.00  0.00    +0.000 C 
ATOM      2  C   ILE A   2      -8.171   3.396 129.378  0.00  0.00    +0.000 C 
ATOM      3  O   ILE A   2      -8.973   3.258 128.423  0.00  0.00    +0.000 OA
ATOM      4  N   UNK A   1      -8.321   4.483 130.094  0.00  0.00    +0.000 N 
ATOM      5  C   UNK A   1      -8.037   4.391 131.500  0.00  0.00    +0.000 C 
ATOM      6  C   UNK A   1      -6.593   3.991 131.698  0.00  0.00    +0.000 C 
ATOM      7  O   UNK A   1      -5.968   4.454 132.648  0.00  0.00    +0.000 OA
ATOM      8  N   ILE A   2      -6.125   3.122 130.743  0.00  0.00    +0.000 N 
ATOM      9  H   UNK A   1      -9.023   5.087 129.686  0.00  0.00    +0.000 HD
ENDROOT
BRANCH   5  10
ATOM     10  C   UNK A   1      -8.143   5.764 132.119  0.00  0.00    +0.000 C 
ATOM     11  C   UNK A   1      -9.480   5.879 132.840  0.00  0.00    +0.000 C 
ATOM     12  C   UNK A   1     -10.348   6.457 131.761  0.00  0.00    +0.000 A 
ATOM     13  C   UNK A   1     -11.721   6.344 131.652  0.00  0.00    +0.000 A 
ATOM     14  C   UNK A   1     -12.331   6.819 130.490  0.00  0.00    +0.000 A 
ATOM     15  C   UNK A   1     -11.569   7.363 129.443  0.00  0.00    +0.000 A 
ATOM     16  C   UNK A   1     -10.179   7.435 129.536  0.00  0.00    +0.000 A 
ATOM     17  C   UNK A   1      -9.584   6.996 130.709  0.00  0.00    +0.000 A 
ATOM     18  C   UNK A   1      -8.119   6.852 130.996  0.00  0.00    +0.000 C 
ENDBRANCH   5  10
BRANCH   1  19
ATOM     19  CB  ILE A   2      -6.452   1.768 128.799  0.00  0.00    +0.000 C 
ATOM     20  CG2 ILE A   2      -7.095  -0.013 128.841  0.00  0.00    +0.000 C 
BRANCH  19  22
ATOM     21  CD1 ILE A   2      -5.596   2.268 125.641  0.00  0.00    +0.000 C 
ATOM     22  CG1 ILE A   2      -6.014   2.835 127.194  0.00  0.00    +0.000 C 
ENDBRANCH  19  22
ENDBRANCH   1  19
BRANCH   8  23
ATOM     23  C   UNK A   0      -4.713   2.848 130.474  0.00  0.00    +0.000 C 
BRANCH  23  24
ATOM     24  C   UNK A   0      -4.030   1.873 131.493  0.00  0.00    +0.000 A 
ATOM     25  C   UNK A   0      -4.178   0.461 131.278  0.00  0.00    +0.000 A 
ATOM     26  C   UNK A   0      -3.853  -0.460 132.269  0.00  0.00    +0.000 A 
ATOM     27  C   UNK A   0      -3.256   0.032 133.404  0.00  0.00    +0.000 A 
ATOM     28  C   UNK A   0      -2.875  -0.806 134.563  0.00  0.00    +0.000 C 
ATOM     29  N   UNK A   0      -2.928   1.320 133.554  0.00  0.00    +0.000 NA
ATOM     30  C   UNK A   0      -3.299   2.210 132.618  0.00  0.00    +0.000 A 
ATOM     31  C   UNK A   0      -2.799   3.554 132.940  0.00  0.00    +0.000 C 
ENDBRANCH  23  24
BRANCH  23  32
ATOM     32  C   UNK A   0      -3.805   4.277 129.734  0.00  0.00    +0.000 C 
ATOM     33  O   UNK A   0      -3.865   5.354 130.336  0.00  0.00    +0.000 OA
ATOM     34  N   UNK A   0      -2.760   4.331 128.459  0.00  0.00    +0.000 N 
ATOM     35  C   UNK A   0      -2.181   3.225 127.042  0.00  0.00    +0.000 C 
ATOM     36  C   UNK A   0      -2.285   5.710 128.388  0.00  0.00    +0.000 C 
ENDBRANCH  23  32
ENDBRANCH   8  23
TORSDOF 6
ENDMDL
MODEL 6
REMARK VINA RESULT:      -8.8      2.547      7.280
REMARK  Name = CHEMBL2037510
REMARK  12 active torsions:
REMARK  status: ('A' for Active; 'I' for Inactive)
REMARK    1  A    between atoms: CD1_1  and  CG1_2
REMARK    2  A    between atoms: CG1_2  and  CB_3
REMARK    3  A    between atoms: CB_3  and  CG2_4
REMARK    4  A    between atoms: CB_3  and  CA_5
REMARK    5  A    between atoms: C_9  and  C_10
REMARK    6  A    between atoms: N_21  and  C_22
REMARK    7  A    between atoms: C_22  and  C_23
REMARK    8  A    between atoms: C_22  and  C_28
REMARK    9  A    between atoms: N_25  and  C_26
REMARK   10  A    between atoms: N_25  and  C_27
REMARK   11  A    between atoms: C_31  and  C_32
REMARK   12  A    between atoms: C_34  and  C_35
REMARK                            x       y       z     vdW  Elec       q    Type
REMARK                         _______ _______ _______ _____ _____    ______ ____
ROOT
ATOM      1  CA  ILE A   2      -4.165   2.490 128.666  0.00  0.00    +0.000 C 
ATOM      2  C   ILE A   2      -5.154   1.501 128.027  0.00  0.00    +0.000 C 
ATOM      3  O   ILE A   2      -5.196   1.010 126.873  0.00  0.00    +0.000 OA
ATOM      4  N   UNK A   1      -6.024   1.020 128.881  0.00  0.00    +0.000 N 
ATOM      5  C   UNK A   1      -5.617   0.926 130.255  0.00  0.00    +0.000 C 
ATOM      6  C   UNK A   1      -5.281   2.306 130.777  0.00  0.00    +0.000 C 
ATOM      7  O   UNK A   1      -5.544   2.585 131.943  0.00  0.00    +0.000 OA
ATOM      8  N   ILE A   2      -4.702   3.124 129.839  0.00  0.00    +0.000 N 
ATOM      9  H   UNK A   1      -6.660   0.378 128.422  0.00  0.00    +0.000 HD
ENDROOT
BRANCH   5  10
ATOM     10  C   UNK A   1      -6.790   0.475 131.092  0.00  0.00    +0.000 C 
ATOM     11  C   UNK A   1      -6.341  -0.665 131.997  0.00  0.00    +0.000 C 
ATOM     12  C   UNK A   1      -6.671  -1.860 131.151  0.00  0.00    +0.000 A 
ATOM     13  C   UNK A   1      -6.080  -3.107 131.213  0.00  0.00    +0.000 A 
ATOM     14  C   UNK A   1      -6.414  -4.045 130.235  0.00  0.00    +0.000 A 
ATOM     15  C   UNK A   1      -7.298  -3.719 129.192  0.00  0.00    +0.000 A 
ATOM     16  C   UNK A   1      -7.859  -2.444 129.106  0.00  0.00    +0.000 A 
ATOM     17  C   UNK A   1      -7.551  -1.531 130.103  0.00  0.00    +0.000 A 
ATOM     18  C   UNK A   1      -7.919  -0.078 130.162  0.00  0.00    +0.000 C 
ENDBRANCH   5  10
BRANCH   1  19
ATOM     19  CB  ILE A   2      -3.836   3.514 127.644  0.00  0.00    +0.000 C 
ATOM     20  CG2 ILE A   2      -2.058   3.129 127.120  0.00  0.00    +0.000 C 
BRANCH  19  22
ATOM     21  CD1 ILE A   2      -5.533   3.945 124.835  0.00  0.00    +0.000 C 
ATOM     22  CG1 ILE A   2      -5.286   4.219 126.500  0.00  0.00    +0.000 C 
ENDBRANCH  19  22
ENDBRANCH   1  19
BRANCH   8  23
ATOM     23  C   UNK A   0      -4.599   4.580 129.942  0.00  0.00    +0.000 C 
BRANCH  23  24
ATOM     24  C   UNK A   0      -3.282   5.096 130.615  0.00  0.00    +0.000 A 
ATOM     25  C   UNK A   0      -2.907   4.537 131.884  0.00  0.00    +0.000 A 
ATOM     26  C   UNK A   0      -1.926   5.126 132.674  0.00  0.00    +0.000 A 
ATOM     27  C   UNK A   0      -1.237   6.181 132.126  0.00  0.00    +0.000 A 
ATOM     28  C   UNK A   0      -0.184   6.936 132.842  0.00  0.00    +0.000 C 
ATOM     29  N   UNK A   0      -1.428   6.603 130.872  0.00  0.00    +0.000 NA
ATOM     30  C   UNK A   0      -2.419   6.066 130.139  0.00  0.00    +0.000 A 
ATOM     31  C   UNK A   0      -2.429   6.625 128.779  0.00  0.00    +0.000 C 
ENDBRANCH  23  24
BRANCH  23  32
ATOM     32  C   UNK A   0      -6.221   5.425 130.200  0.00  0.00    +0.000 C 
ATOM     33  O   UNK A   0      -6.189   6.615 130.531  0.00  0.00    +0.000 OA
ATOM     34  N   UNK A   0      -7.756   4.903 129.897  0.00  0.00    +0.000 N 
ATOM     35  C   UNK A   0      -8.657   3.302 129.460  0.00  0.00    +0.000 C 
ATOM     36  C   UNK A   0      -8.633   6.027 130.213  0.00  0.00    +0.000 C 
ENDBRANCH  23  32
ENDBRANCH   8  23
TORSDOF 6
ENDMDL
MODEL 7
REMARK VINA RESULT:      -8.5      2.751      7.175
REMARK  Name = CHEMBL2037510
REMARK  12 active torsions:
REMARK  status: ('A' for Active; 'I' for Inactive)
REMARK    1  A    between atoms: CD1_1  and  CG1_2
REMARK    2  A    between atoms: CG1_2  and  CB_3
REMARK    3  A    between atoms: CB_3  and  CG2_4
REMARK    4  A    between atoms: CB_3  and  CA_5
REMARK    5  A    between atoms: C_9  and  C_10
REMARK    6  A    between atoms: N_21  and  C_22
REMARK    7  A    between atoms: C_22  and  C_23
REMARK    8  A    between atoms: C_22  and  C_28
REMARK    9  A    between atoms: N_25  and  C_26
REMARK   10  A    between atoms: N_25  and  C_27
REMARK   11  A    between atoms: C_31  and  C_32
REMARK   12  A    between atoms: C_34  and  C_35
REMARK                            x       y       z     vdW  Elec       q    Type
REMARK                         _______ _______ _______ _____ _____    ______ ____
ROOT
ATOM      1  CA  ILE A   2      -7.795   0.778 129.574  0.00  0.00    +0.000 C 
ATOM      2  C   ILE A   2      -7.094  -0.365 128.820  0.00  0.00    +0.000 C 
ATOM      3  O   ILE A   2      -6.628  -1.455 129.230  0.00  0.00    +0.000 OA
ATOM      4  N   UNK A   1      -7.095  -0.200 127.520  0.00  0.00    +0.000 N 
ATOM      5  C   UNK A   1      -8.180   0.550 126.951  0.00  0.00    +0.000 C 
ATOM      6  C   UNK A   1      -8.178   1.951 127.521  0.00  0.00    +0.000 C 
ATOM      7  O   UNK A   1      -8.506   2.890 126.802  0.00  0.00    +0.000 OA
ATOM      8  N   ILE A   2      -7.785   2.011 128.835  0.00  0.00    +0.000 N 
ATOM      9  H   UNK A   1      -6.621  -0.968 127.061  0.00  0.00    +0.000 HD
ENDROOT
BRANCH   5  10
ATOM     10  C   UNK A   1      -7.934   0.738 125.473  0.00  0.00    +0.000 C 
ATOM     11  C   UNK A   1      -9.092   0.123 124.698  0.00  0.00    +0.000 C 
ATOM     12  C   UNK A   1      -8.580  -1.268 124.459  0.00  0.00    +0.000 A 
ATOM     13  C   UNK A   1      -9.337  -2.404 124.243  0.00  0.00    +0.000 A 
ATOM     14  C   UNK A   1      -8.682  -3.635 124.198  0.00  0.00    +0.000 A 
ATOM     15  C   UNK A   1      -7.295  -3.724 124.406  0.00  0.00    +0.000 A 
ATOM     16  C   UNK A   1      -6.539  -2.581 124.669  0.00  0.00    +0.000 A 
ATOM     17  C   UNK A   1      -7.192  -1.358 124.674  0.00  0.00    +0.000 A 
ATOM     18  C   UNK A   1      -6.632  -0.020 125.056  0.00  0.00    +0.000 C 
ENDBRANCH   5  10
BRANCH   1  19
ATOM     19  CB  ILE A   2      -7.089   0.958 130.866  0.00  0.00    +0.000 C 
ATOM     20  CG2 ILE A   2      -8.228   0.172 132.159  0.00  0.00    +0.000 C 
BRANCH  19  22
ATOM     21  CD1 ILE A   2      -4.056  -0.265 131.381  0.00  0.00    +0.000 C 
ATOM     22  CG1 ILE A   2      -5.113   0.977 130.879  0.00  0.00    +0.000 C 
ENDBRANCH  19  22
ENDBRANCH   1  19
BRANCH   8  23
ATOM     23  C   UNK A   0      -7.353   3.226 129.529  0.00  0.00    +0.000 C 
BRANCH  23  24
ATOM     24  C   UNK A   0      -8.484   3.959 130.328  0.00  0.00    +0.000 A 
ATOM     25  C   UNK A   0      -9.845   3.742 129.925  0.00  0.00    +0.000 A 
ATOM     26  C   UNK A   0     -10.875   4.556 130.385  0.00  0.00    +0.000 A 
ATOM     27  C   UNK A   0     -10.553   5.483 131.346  0.00  0.00    +0.000 A 
ATOM     28  C   UNK A   0     -11.521   6.445 131.919  0.00  0.00    +0.000 C 
ATOM     29  N   UNK A   0      -9.332   5.581 131.884  0.00  0.00    +0.000 NA
ATOM     30  C   UNK A   0      -8.332   4.831 131.391  0.00  0.00    +0.000 A 
ATOM     31  C   UNK A   0      -7.090   5.044 132.149  0.00  0.00    +0.000 C 
ENDBRANCH  23  24
BRANCH  23  32
ATOM     32  C   UNK A   0      -6.023   4.156 128.646  0.00  0.00    +0.000 C 
ATOM     33  O   UNK A   0      -5.904   5.356 128.913  0.00  0.00    +0.000 OA
ATOM     34  N   UNK A   0      -4.822   3.614 127.654  0.00  0.00    +0.000 N 
ATOM     35  C   UNK A   0      -4.332   2.037 126.737  0.00  0.00    +0.000 C 
ATOM     36  C   UNK A   0      -4.018   4.786 127.321  0.00  0.00    +0.000 C 
ENDBRANCH  23  32
ENDBRANCH   8  23
TORSDOF 6
ENDMDL
MODEL 8
REMARK VINA RESULT:      -8.4      1.947      5.177
REMARK  Name = CHEMBL2037510
REMARK  12 active torsions:
REMARK  status: ('A' for Active; 'I' for Inactive)
REMARK    1  A    between atoms: CD1_1  and  CG1_2
REMARK    2  A    between atoms: CG1_2  and  CB_3
REMARK    3  A    between atoms: CB_3  and  CG2_4
REMARK    4  A    between atoms: CB_3  and  CA_5
REMARK    5  A    between atoms: C_9  and  C_10
REMARK    6  A    between atoms: N_21  and  C_22
REMARK    7  A    between atoms: C_22  and  C_23
REMARK    8  A    between atoms: C_22  and  C_28
REMARK    9  A    between atoms: N_25  and  C_26
REMARK   10  A    between atoms: N_25  and  C_27
REMARK   11  A    between atoms: C_31  and  C_32
REMARK   12  A    between atoms: C_34  and  C_35
REMARK                            x       y       z     vdW  Elec       q    Type
REMARK                         _______ _______ _______ _____ _____    ______ ____
ROOT
ATOM      1  CA  ILE A   2      -6.982   5.603 131.268  0.00  0.00    +0.000 C 
ATOM      2  C   ILE A   2      -8.270   5.908 132.053  0.00  0.00    +0.000 C 
ATOM      3  O   ILE A   2      -8.439   6.413 133.188  0.00  0.00    +0.000 OA
ATOM      4  N   UNK A   1      -9.359   5.699 131.355  0.00  0.00    +0.000 N 
ATOM      5  C   UNK A   1      -9.268   5.853 129.929  0.00  0.00    +0.000 C 
ATOM      6  C   UNK A   1      -8.259   4.870 129.379  0.00  0.00    +0.000 C 
ATOM      7  O   UNK A   1      -8.459   4.360 128.280  0.00  0.00    +0.000 OA
ATOM      8  N   ILE A   2      -7.194   4.647 130.215  0.00  0.00    +0.000 N 
ATOM      9  H   UNK A   1     -10.183   5.906 131.906  0.00  0.00    +0.000 HD
ENDROOT
BRANCH   5  10
ATOM     10  C   UNK A   1     -10.580   5.448 129.300  0.00  0.00    +0.000 C 
ATOM     11  C   UNK A   1     -10.969   6.489 128.258  0.00  0.00    +0.000 C 
ATOM     12  C   UNK A   1     -11.815   7.422 129.075  0.00  0.00    +0.000 A 
ATOM     13  C   UNK A   1     -12.048   8.761 128.827  0.00  0.00    +0.000 A 
ATOM     14  C   UNK A   1     -12.736   9.501 129.790  0.00  0.00    +0.000 A 
ATOM     15  C   UNK A   1     -13.146   8.912 130.998  0.00  0.00    +0.000 A 
ATOM     16  C   UNK A   1     -12.869   7.571 131.266  0.00  0.00    +0.000 A 
ATOM     17  C   UNK A   1     -12.220   6.833 130.288  0.00  0.00    +0.000 A 
ATOM     18  C   UNK A   1     -11.702   5.430 130.390  0.00  0.00    +0.000 C 
ENDBRANCH   5  10
BRANCH   1  19
ATOM     19  CB  ILE A   2      -5.985   5.079 132.233  0.00  0.00    +0.000 C 
ATOM     20  CG2 ILE A   2      -4.752   6.494 132.479  0.00  0.00    +0.000 C 
BRANCH  19  22
ATOM     21  CD1 ILE A   2      -6.450   3.884 135.285  0.00  0.00    +0.000 C 
ATOM     22  CG1 ILE A   2      -6.570   3.763 133.588  0.00  0.00    +0.000 C 
ENDBRANCH  19  22
ENDBRANCH   1  19
BRANCH   8  23
ATOM     23  C   UNK A   0      -6.271   3.515 130.119  0.00  0.00    +0.000 C 
BRANCH  23  24
ATOM     24  C   UNK A   0      -5.111   3.703 129.082  0.00  0.00    +0.000 A 
ATOM     25  C   UNK A   0      -5.451   3.734 127.687  0.00  0.00    +0.000 A 
ATOM     26  C   UNK A   0      -4.476   3.614 126.702  0.00  0.00    +0.000 A 
ATOM     27  C   UNK A   0      -3.168   3.606 127.119  0.00  0.00    +0.000 A 
ATOM     28  C   UNK A   0      -2.013   3.456 126.205  0.00  0.00    +0.000 C 
ATOM     29  N   UNK A   0      -2.810   3.772 128.397  0.00  0.00    +0.000 NA
ATOM     30  C   UNK A   0      -3.759   3.827 129.347  0.00  0.00    +0.000 A 
ATOM     31  C   UNK A   0      -3.167   4.064 130.671  0.00  0.00    +0.000 C 
ENDBRANCH  23  24
BRANCH  23  32
ATOM     32  C   UNK A   0      -7.073   1.874 130.396  0.00  0.00    +0.000 C 
ATOM     33  O   UNK A   0      -6.430   0.871 130.070  0.00  0.00    +0.000 OA
ATOM     34  N   UNK A   0      -8.474   1.491 131.179  0.00  0.00    +0.000 N 
ATOM     35  C   UNK A   0      -9.994   2.357 131.888  0.00  0.00    +0.000 C 
ATOM     36  C   UNK A   0      -8.557   0.033 131.161  0.00  0.00    +0.000 C 
ENDBRANCH  23  32
ENDBRANCH   8  23
TORSDOF 6
ENDMDL
MODEL 9
REMARK VINA RESULT:      -8.2      3.249      8.206
REMARK  Name = CHEMBL2037510
REMARK  12 active torsions:
REMARK  status: ('A' for Active; 'I' for Inactive)
REMARK    1  A    between atoms: CD1_1  and  CG1_2
REMARK    2  A    between atoms: CG1_2  and  CB_3
REMARK    3  A    between atoms: CB_3  and  CG2_4
REMARK    4  A    between atoms: CB_3  and  CA_5
REMARK    5  A    between atoms: C_9  and  C_10
REMARK    6  A    between atoms: N_21  and  C_22
REMARK    7  A    between atoms: C_22  and  C_23
REMARK    8  A    between atoms: C_22  and  C_28
REMARK    9  A    between atoms: N_25  and  C_26
REMARK   10  A    between atoms: N_25  and  C_27
REMARK   11  A    between atoms: C_31  and  C_32
REMARK   12  A    between atoms: C_34  and  C_35
REMARK                            x       y       z     vdW  Elec       q    Type
REMARK                         _______ _______ _______ _____ _____    ______ ____
ROOT
ATOM      1  CA  ILE A   2      -7.003   1.893 130.946  0.00  0.00    +0.000 C 
ATOM      2  C   ILE A   2      -6.893   0.995 132.190  0.00  0.00    +0.000 C 
ATOM      3  O   ILE A   2      -7.717   0.754 133.105  0.00  0.00    +0.000 OA
ATOM      4  N   UNK A   1      -5.790   0.289 132.218  0.00  0.00    +0.000 N 
ATOM      5  C   UNK A   1      -5.198  -0.062 130.957  0.00  0.00    +0.000 C 
ATOM      6  C   UNK A   1      -4.835   1.197 130.202  0.00  0.00    +0.000 C 
ATOM      7  O   UNK A   1      -3.822   1.208 129.509  0.00  0.00    +0.000 OA
ATOM      8  N   ILE A   2      -5.718   2.230 130.396  0.00  0.00    +0.000 N 
ATOM      9  H   UNK A   1      -5.752  -0.285 133.052  0.00  0.00    +0.000 HD
ENDROOT
BRANCH   5  10
ATOM     10  C   UNK A   1      -3.879  -0.756 131.201  0.00  0.00    +0.000 C 
ATOM     11  C   UNK A   1      -3.690  -1.840 130.147  0.00  0.00    +0.000 C 
ATOM     12  C   UNK A   1      -4.281  -3.032 130.841  0.00  0.00    +0.000 A 
ATOM     13  C   UNK A   1      -4.821  -4.155 130.245  0.00  0.00    +0.000 A 
ATOM     14  C   UNK A   1      -5.465  -5.089 131.057  0.00  0.00    +0.000 A 
ATOM     15  C   UNK A   1      -5.596  -4.876 132.440  0.00  0.00    +0.000 A 
ATOM     16  C   UNK A   1      -5.089  -3.720 133.034  0.00  0.00    +0.000 A 
ATOM     17  C   UNK A   1      -4.418  -2.816 132.225  0.00  0.00    +0.000 A 
ATOM     18  C   UNK A   1      -3.904  -1.457 132.598  0.00  0.00    +0.000 C 
ENDBRANCH   5  10
BRANCH   1  19
ATOM     19  CB  ILE A   2      -7.719   3.128 131.350  0.00  0.00    +0.000 C 
ATOM     20  CG2 ILE A   2      -9.398   3.026 130.480  0.00  0.00    +0.000 C 
BRANCH  19  22
ATOM     21  CD1 ILE A   2      -8.438   4.131 134.422  0.00  0.00    +0.000 C 
ATOM     22  CG1 ILE A   2      -7.349   3.907 133.129  0.00  0.00    +0.000 C 
ENDBRANCH  19  22
ENDBRANCH   1  19
BRANCH   8  23
ATOM     23  C   UNK A   0      -5.447   3.637 130.095  0.00  0.00    +0.000 C 
BRANCH  23  24
ATOM     24  C   UNK A   0      -5.418   3.984 128.568  0.00  0.00    +0.000 A 
ATOM     25  C   UNK A   0      -6.673   4.124 127.883  0.00  0.00    +0.000 A 
ATOM     26  C   UNK A   0      -6.742   4.150 126.494  0.00  0.00    +0.000 A 
ATOM     27  C   UNK A   0      -5.549   4.178 125.813  0.00  0.00    +0.000 A 
ATOM     28  C   UNK A   0      -5.444   4.177 124.337  0.00  0.00    +0.000 C 
ATOM     29  N   UNK A   0      -4.362   4.244 126.426  0.00  0.00    +0.000 NA
ATOM     30  C   UNK A   0      -4.304   4.158 127.766  0.00  0.00    +0.000 A 
ATOM     31  C   UNK A   0      -2.922   4.305 128.245  0.00  0.00    +0.000 C 
ENDBRANCH  23  24
BRANCH  23  32
ATOM     32  C   UNK A   0      -4.309   4.451 131.301  0.00  0.00    +0.000 C 
ATOM     33  O   UNK A   0      -4.269   5.686 131.291  0.00  0.00    +0.000 OA
ATOM     34  N   UNK A   0      -3.432   3.808 132.542  0.00  0.00    +0.000 N 
ATOM     35  C   UNK A   0      -2.911   2.113 133.191  0.00  0.00    +0.000 C 
ATOM     36  C   UNK A   0      -2.790   4.938 133.207  0.00  0.00    +0.000 C 
ENDBRANCH  23  32
ENDBRANCH   8  23
TORSDOF 6
ENDMDL
