MODEL 1
REMARK VINA RESULT:      -8.8      0.000      0.000
REMARK  Name = CHEMBL32054
REMARK  2 active torsions:
REMARK  status: ('A' for Active; 'I' for Inactive)
REMARK    1  A    between atoms: C_2  and  C_3
REMARK    2  A    between atoms: C_15  and  N_16
REMARK                            x       y       z     vdW  Elec       q    Type
REMARK                         _______ _______ _______ _____ _____    ______ ____
ROOT
ATOM      1  O   UNL     1      -7.611   1.960 133.655  0.00  0.00    +0.000 OA
ATOM      2  C   UNL     1      -7.982   2.055 132.491  0.00  0.00    +0.000 C 
ATOM      3  N   UNL     1      -8.509   3.206 131.936  0.00  0.00    +0.000 N 
ATOM      4  C   UNL     1      -9.675   3.194 131.051  0.00  0.00    +0.000 C 
ATOM      5  C   UNL     1      -9.390   4.065 129.842  0.00  0.00    +0.000 C 
ATOM      6  C   UNL     1      -8.976   5.494 130.273  0.00  0.00    +0.000 C 
ATOM      7  C   UNL     1      -7.811   5.435 131.281  0.00  0.00    +0.000 C 
ATOM      8  C   UNL     1      -8.087   4.500 132.451  0.00  0.00    +0.000 C 
ENDROOT
BRANCH   6   9
ATOM      9  N   UNL     1     -10.150   6.318 130.690  0.00  0.00    +0.000 N 
ATOM     10  C   UNL     1     -10.666   6.332 131.986  0.00  0.00    +0.000 C 
ATOM     11  O   UNL     1     -10.063   6.482 133.039  0.00  0.00    +0.000 OA
ATOM     12  O   UNL     1     -11.998   6.096 132.024  0.00  0.00    +0.000 OA
ATOM     13  C   UNL     1     -12.678   7.224 131.522  0.00  0.00    +0.000 C 
ATOM     14  C   UNL     1     -12.141   7.595 130.174  0.00  0.00    +0.000 A 
ATOM     15  C   UNL     1     -12.889   8.453 129.367  0.00  0.00    +0.000 A 
ATOM     16  C   UNL     1     -12.397   8.830 128.126  0.00  0.00    +0.000 A 
ATOM     17  C   UNL     1     -11.157   8.357 127.698  0.00  0.00    +0.000 A 
ATOM     18  C   UNL     1     -10.402   7.498 128.505  0.00  0.00    +0.000 A 
ATOM     19  C   UNL     1     -10.887   7.107 129.754  0.00  0.00    +0.000 A 
ENDBRANCH   6   9
BRANCH   2  20
ATOM     20  C   UNL     1      -7.728   0.930 131.554  0.00  0.00    +0.000 A 
ATOM     21  C   UNL     1      -8.373  -0.282 131.776  0.00  0.00    +0.000 A 
ATOM     22  C   UNL     1      -8.159  -1.358 130.908  0.00  0.00    +0.000 A 
ATOM     23  C   UNL     1      -7.272  -1.227 129.819  0.00  0.00    +0.000 A 
ATOM     24  N   UNL     1      -6.988  -2.207 128.884  0.00  0.00    +0.000 NA
ATOM     25  C   UNL     1      -6.109  -1.749 128.021  0.00  0.00    +0.000 A 
ATOM     26  S   UNL     1      -5.574  -0.140 128.260  0.00  0.00    +0.000 S 
ATOM     27  C   UNL     1      -6.599  -0.014 129.643  0.00  0.00    +0.000 A 
ATOM     28  C   UNL     1      -6.796   1.075 130.509  0.00  0.00    +0.000 A 
ENDBRANCH   2  20
TORSDOF 2
ENDMDL
MODEL 2
REMARK VINA RESULT:      -8.6      6.365      9.824
REMARK  Name = CHEMBL32054
REMARK  2 active torsions:
REMARK  status: ('A' for Active; 'I' for Inactive)
REMARK    1  A    between atoms: C_2  and  C_3
REMARK    2  A    between atoms: C_15  and  N_16
REMARK                            x       y       z     vdW  Elec       q    Type
REMARK                         _______ _______ _______ _____ _____    ______ ____
ROOT
ATOM      1  O   UNL     1      -9.796   1.645 125.119  0.00  0.00    +0.000 OA
ATOM      2  C   UNL     1      -8.596   1.434 125.253  0.00  0.00    +0.000 C 
ATOM      3  N   UNL     1      -8.067   0.315 125.867  0.00  0.00    +0.000 N 
ATOM      4  C   UNL     1      -6.941   0.383 126.800  0.00  0.00    +0.000 C 
ATOM      5  C   UNL     1      -5.937  -0.697 126.446  0.00  0.00    +0.000 C 
ATOM      6  C   UNL     1      -6.610  -2.092 126.416  0.00  0.00    +0.000 C 
ATOM      7  C   UNL     1      -7.847  -2.072 125.496  0.00  0.00    +0.000 C 
ATOM      8  C   UNL     1      -8.808  -0.936 125.820  0.00  0.00    +0.000 C 
ENDROOT
BRANCH   6   9
ATOM      9  N   UNL     1      -6.835  -2.638 127.789  0.00  0.00    +0.000 N 
ATOM     10  C   UNL     1      -8.092  -2.969 128.295  0.00  0.00    +0.000 C 
ATOM     11  O   UNL     1      -8.961  -3.654 127.775  0.00  0.00    +0.000 OA
ATOM     12  O   UNL     1      -8.345  -2.392 129.493  0.00  0.00    +0.000 OA
ATOM     13  C   UNL     1      -7.556  -3.018 130.479  0.00  0.00    +0.000 C 
ATOM     14  C   UNL     1      -6.115  -3.016 130.069  0.00  0.00    +0.000 A 
ATOM     15  C   UNL     1      -5.142  -3.273 131.035  0.00  0.00    +0.000 A 
ATOM     16  C   UNL     1      -3.804  -3.301 130.671  0.00  0.00    +0.000 A 
ATOM     17  C   UNL     1      -3.442  -3.083 129.343  0.00  0.00    +0.000 A 
ATOM     18  C   UNL     1      -4.414  -2.826 128.369  0.00  0.00    +0.000 A 
ATOM     19  C   UNL     1      -5.764  -2.790 128.722  0.00  0.00    +0.000 A 
ENDBRANCH   6   9
BRANCH   2  20
ATOM     20  C   UNL     1      -7.622   2.345 124.597  0.00  0.00    +0.000 A 
ATOM     21  C   UNL     1      -7.041   3.358 125.353  0.00  0.00    +0.000 A 
ATOM     22  C   UNL     1      -6.117   4.228 124.766  0.00  0.00    +0.000 A 
ATOM     23  C   UNL     1      -5.788   4.098 123.400  0.00  0.00    +0.000 A 
ATOM     24  N   UNL     1      -4.880   4.882 122.708  0.00  0.00    +0.000 NA
ATOM     25  C   UNL     1      -4.834   4.495 121.453  0.00  0.00    +0.000 A 
ATOM     26  S   UNL     1      -5.849   3.185 121.021  0.00  0.00    +0.000 S 
ATOM     27  C   UNL     1      -6.420   3.103 122.648  0.00  0.00    +0.000 A 
ATOM     28  C   UNL     1      -7.357   2.226 123.220  0.00  0.00    +0.000 A 
ENDBRANCH   2  20
TORSDOF 2
ENDMDL
MODEL 3
REMARK VINA RESULT:      -8.6      6.750      8.430
REMARK  Name = CHEMBL32054
REMARK  2 active torsions:
REMARK  status: ('A' for Active; 'I' for Inactive)
REMARK    1  A    between atoms: C_2  and  C_3
REMARK    2  A    between atoms: C_15  and  N_16
REMARK                            x       y       z     vdW  Elec       q    Type
REMARK                         _______ _______ _______ _____ _____    ______ ____
ROOT
ATOM      1  O   UNL     1      -7.614   0.879 124.352  0.00  0.00    +0.000 OA
ATOM      2  C   UNL     1      -7.261   2.045 124.223  0.00  0.00    +0.000 C 
ATOM      3  N   UNL     1      -6.584   2.763 125.191  0.00  0.00    +0.000 N 
ATOM      4  C   UNL     1      -6.912   4.151 125.520  0.00  0.00    +0.000 C 
ATOM      5  C   UNL     1      -5.631   4.960 125.597  0.00  0.00    +0.000 C 
ATOM      6  C   UNL     1      -4.632   4.324 126.596  0.00  0.00    +0.000 C 
ATOM      7  C   UNL     1      -4.406   2.838 126.257  0.00  0.00    +0.000 C 
ATOM      8  C   UNL     1      -5.706   2.058 126.112  0.00  0.00    +0.000 C 
ENDROOT
BRANCH   6   9
ATOM      9  N   UNL     1      -4.996   4.615 128.016  0.00  0.00    +0.000 N 
ATOM     10  C   UNL     1      -6.185   4.194 128.613  0.00  0.00    +0.000 C 
ATOM     11  O   UNL     1      -6.676   3.074 128.614  0.00  0.00    +0.000 OA
ATOM     12  O   UNL     1      -6.860   5.205 129.210  0.00  0.00    +0.000 OA
ATOM     13  C   UNL     1      -6.169   5.590 130.377  0.00  0.00    +0.000 C 
ATOM     14  C   UNL     1      -4.737   5.890 130.058  0.00  0.00    +0.000 A 
ATOM     15  C   UNL     1      -3.978   6.604 130.985  0.00  0.00    +0.000 A 
ATOM     16  C   UNL     1      -2.643   6.869 130.720  0.00  0.00    +0.000 A 
ATOM     17  C   UNL     1      -2.067   6.413 129.535  0.00  0.00    +0.000 A 
ATOM     18  C   UNL     1      -2.823   5.694 128.603  0.00  0.00    +0.000 A 
ATOM     19  C   UNL     1      -4.170   5.424 128.854  0.00  0.00    +0.000 A 
ENDBRANCH   6   9
BRANCH   2  20
ATOM     20  C   UNL     1      -7.427   2.713 122.906  0.00  0.00    +0.000 A 
ATOM     21  C   UNL     1      -8.687   2.723 122.317  0.00  0.00    +0.000 A 
ATOM     22  C   UNL     1      -8.877   3.348 121.080  0.00  0.00    +0.000 A 
ATOM     23  C   UNL     1      -7.788   3.949 120.414  0.00  0.00    +0.000 A 
ATOM     24  N   UNL     1      -7.847   4.610 119.199  0.00  0.00    +0.000 NA
ATOM     25  C   UNL     1      -6.647   5.030 118.869  0.00  0.00    +0.000 A 
ATOM     26  S   UNL     1      -5.386   4.675 119.971  0.00  0.00    +0.000 S 
ATOM     27  C   UNL     1      -6.521   3.885 121.003  0.00  0.00    +0.000 A 
ATOM     28  C   UNL     1      -6.312   3.254 122.241  0.00  0.00    +0.000 A 
ENDBRANCH   2  20
TORSDOF 2
ENDMDL
MODEL 4
REMARK VINA RESULT:      -8.4      2.512      7.817
REMARK  Name = CHEMBL32054
REMARK  2 active torsions:
REMARK  status: ('A' for Active; 'I' for Inactive)
REMARK    1  A    between atoms: C_2  and  C_3
REMARK    2  A    between atoms: C_15  and  N_16
REMARK                            x       y       z     vdW  Elec       q    Type
REMARK                         _______ _______ _______ _____ _____    ______ ____
ROOT
ATOM      1  O   UNL     1      -8.910   6.342 133.460  0.00  0.00    +0.000 OA
ATOM      2  C   UNL     1      -9.270   5.758 132.445  0.00  0.00    +0.000 C 
ATOM      3  N   UNL     1      -8.917   4.459 132.130  0.00  0.00    +0.000 N 
ATOM      4  C   UNL     1      -8.516   4.053 130.782  0.00  0.00    +0.000 C 
ATOM      5  C   UNL     1      -9.241   2.773 130.413  0.00  0.00    +0.000 C 
ATOM      6  C   UNL     1      -8.995   1.670 131.472  0.00  0.00    +0.000 C 
ATOM      7  C   UNL     1      -9.339   2.191 132.881  0.00  0.00    +0.000 C 
ATOM      8  C   UNL     1      -8.659   3.514 133.206  0.00  0.00    +0.000 C 
ENDROOT
BRANCH   6   9
ATOM      9  N   UNL     1      -7.646   1.043 131.327  0.00  0.00    +0.000 N 
ATOM     10  C   UNL     1      -6.774   0.824 132.394  0.00  0.00    +0.000 C 
ATOM     11  O   UNL     1      -7.012   0.294 133.469  0.00  0.00    +0.000 OA
ATOM     12  O   UNL     1      -5.536   1.326 132.173  0.00  0.00    +0.000 OA
ATOM     13  C   UNL     1      -4.884   0.530 131.209  0.00  0.00    +0.000 C 
ATOM     14  C   UNL     1      -5.737   0.393 129.986  0.00  0.00    +0.000 A 
ATOM     15  C   UNL     1      -5.149  -0.059 128.804  0.00  0.00    +0.000 A 
ATOM     16  C   UNL     1      -5.927  -0.217 127.668  0.00  0.00    +0.000 A 
ATOM     17  C   UNL     1      -7.291   0.066 127.715  0.00  0.00    +0.000 A 
ATOM     18  C   UNL     1      -7.887   0.517 128.898  0.00  0.00    +0.000 A 
ATOM     19  C   UNL     1      -7.115   0.686 130.049  0.00  0.00    +0.000 A 
ENDBRANCH   6   9
BRANCH   2  20
ATOM     20  C   UNL     1     -10.265   6.403 131.550  0.00  0.00    +0.000 A 
ATOM     21  C   UNL     1     -11.607   6.377 131.914  0.00  0.00    +0.000 A 
ATOM     22  C   UNL     1     -12.567   6.980 131.095  0.00  0.00    +0.000 A 
ATOM     23  C   UNL     1     -12.182   7.596 129.886  0.00  0.00    +0.000 A 
ATOM     24  N   UNL     1     -13.029   8.239 128.999  0.00  0.00    +0.000 NA
ATOM     25  C   UNL     1     -12.338   8.681 127.973  0.00  0.00    +0.000 A 
ATOM     26  S   UNL     1     -10.654   8.370 127.998  0.00  0.00    +0.000 S 
ATOM     27  C   UNL     1     -10.834   7.569 129.517  0.00  0.00    +0.000 A 
ATOM     28  C   UNL     1      -9.858   6.960 130.323  0.00  0.00    +0.000 A 
ENDBRANCH   2  20
TORSDOF 2
ENDMDL
MODEL 5
REMARK VINA RESULT:      -8.4      5.355      9.240
REMARK  Name = CHEMBL32054
REMARK  2 active torsions:
REMARK  status: ('A' for Active; 'I' for Inactive)
REMARK    1  A    between atoms: C_2  and  C_3
REMARK    2  A    between atoms: C_15  and  N_16
REMARK                            x       y       z     vdW  Elec       q    Type
REMARK                         _______ _______ _______ _____ _____    ______ ____
ROOT
ATOM      1  O   UNL     1      -8.474   4.622 127.413  0.00  0.00    +0.000 OA
ATOM      2  C   UNL     1      -7.480   3.941 127.190  0.00  0.00    +0.000 C 
ATOM      3  N   UNL     1      -7.467   2.835 126.361  0.00  0.00    +0.000 N 
ATOM      4  C   UNL     1      -6.768   1.596 126.708  0.00  0.00    +0.000 C 
ATOM      5  C   UNL     1      -5.966   1.127 125.510  0.00  0.00    +0.000 C 
ATOM      6  C   UNL     1      -6.868   0.980 124.259  0.00  0.00    +0.000 C 
ATOM      7  C   UNL     1      -7.652   2.283 124.006  0.00  0.00    +0.000 C 
ATOM      8  C   UNL     1      -8.394   2.777 125.241  0.00  0.00    +0.000 C 
ENDROOT
BRANCH   6   9
ATOM      9  N   UNL     1      -7.687  -0.270 124.301  0.00  0.00    +0.000 N 
ATOM     10  C   UNL     1      -9.078  -0.281 124.406  0.00  0.00    +0.000 C 
ATOM     11  O   UNL     1      -9.892   0.347 123.743  0.00  0.00    +0.000 OA
ATOM     12  O   UNL     1      -9.523  -1.065 125.415  0.00  0.00    +0.000 OA
ATOM     13  C   UNL     1      -9.333  -2.417 125.063  0.00  0.00    +0.000 C 
ATOM     14  C   UNL     1      -7.910  -2.653 124.660  0.00  0.00    +0.000 A 
ATOM     15  C   UNL     1      -7.437  -3.965 124.605  0.00  0.00    +0.000 A 
ATOM     16  C   UNL     1      -6.130  -4.206 124.210  0.00  0.00    +0.000 A 
ATOM     17  C   UNL     1      -5.302  -3.140 123.861  0.00  0.00    +0.000 A 
ATOM     18  C   UNL     1      -5.773  -1.823 123.912  0.00  0.00    +0.000 A 
ATOM     19  C   UNL     1      -7.085  -1.564 124.313  0.00  0.00    +0.000 A 
ENDBRANCH   6   9
BRANCH   2  20
ATOM     20  C   UNL     1      -6.162   4.388 127.710  0.00  0.00    +0.000 A 
ATOM     21  C   UNL     1      -5.159   4.707 126.801  0.00  0.00    +0.000 A 
ATOM     22  C   UNL     1      -3.909   5.136 127.259  0.00  0.00    +0.000 A 
ATOM     23  C   UNL     1      -3.652   5.224 128.643  0.00  0.00    +0.000 A 
ATOM     24  N   UNL     1      -2.468   5.648 129.221  0.00  0.00    +0.000 NA
ATOM     25  C   UNL     1      -2.572   5.589 130.529  0.00  0.00    +0.000 A 
ATOM     26  S   UNL     1      -4.070   5.039 131.150  0.00  0.00    +0.000 S 
ATOM     27  C   UNL     1      -4.659   4.853 129.539  0.00  0.00    +0.000 A 
ATOM     28  C   UNL     1      -5.918   4.413 129.096  0.00  0.00    +0.000 A 
ENDBRANCH   2  20
TORSDOF 2
ENDMDL
MODEL 6
REMARK VINA RESULT:      -8.3      3.980      7.897
REMARK  Name = CHEMBL32054
REMARK  2 active torsions:
REMARK  status: ('A' for Active; 'I' for Inactive)
REMARK    1  A    between atoms: C_2  and  C_3
REMARK    2  A    between atoms: C_15  and  N_16
REMARK                            x       y       z     vdW  Elec       q    Type
REMARK                         _______ _______ _______ _____ _____    ______ ____
ROOT
ATOM      1  O   UNL     1     -10.122   3.479 131.458  0.00  0.00    +0.000 OA
ATOM      2  C   UNL     1      -9.663   4.604 131.295  0.00  0.00    +0.000 C 
ATOM      3  N   UNL     1      -8.314   4.905 131.326  0.00  0.00    +0.000 N 
ATOM      4  C   UNL     1      -7.783   6.086 132.008  0.00  0.00    +0.000 C 
ATOM      5  C   UNL     1      -6.789   6.780 131.097  0.00  0.00    +0.000 C 
ATOM      6  C   UNL     1      -5.680   5.801 130.637  0.00  0.00    +0.000 C 
ATOM      7  C   UNL     1      -6.304   4.534 130.019  0.00  0.00    +0.000 C 
ATOM      8  C   UNL     1      -7.353   3.892 130.918  0.00  0.00    +0.000 C 
ENDROOT
BRANCH   6   9
ATOM      9  N   UNL     1      -4.660   5.565 131.704  0.00  0.00    +0.000 N 
ATOM     10  C   UNL     1      -4.502   4.348 132.368  0.00  0.00    +0.000 C 
ATOM     11  O   UNL     1      -4.397   3.230 131.885  0.00  0.00    +0.000 OA
ATOM     12  O   UNL     1      -4.521   4.478 133.716  0.00  0.00    +0.000 OA
ATOM     13  C   UNL     1      -3.326   5.097 134.134  0.00  0.00    +0.000 C 
ATOM     14  C   UNL     1      -3.111   6.374 133.380  0.00  0.00    +0.000 A 
ATOM     15  C   UNL     1      -2.186   7.296 133.870  0.00  0.00    +0.000 A 
ATOM     16  C   UNL     1      -1.954   8.471 133.173  0.00  0.00    +0.000 A 
ATOM     17  C   UNL     1      -2.638   8.719 131.983  0.00  0.00    +0.000 A 
ATOM     18  C   UNL     1      -3.565   7.797 131.486  0.00  0.00    +0.000 A 
ATOM     19  C   UNL     1      -3.812   6.611 132.180  0.00  0.00    +0.000 A 
ENDBRANCH   6   9
BRANCH   2  20
ATOM     20  C   UNL     1     -10.573   5.708 130.895  0.00  0.00    +0.000 A 
ATOM     21  C   UNL     1     -11.507   6.171 131.815  0.00  0.00    +0.000 A 
ATOM     22  C   UNL     1     -12.375   7.212 131.470  0.00  0.00    +0.000 A 
ATOM     23  C   UNL     1     -12.322   7.782 130.181  0.00  0.00    +0.000 A 
ATOM     24  N   UNL     1     -13.111   8.823 129.723  0.00  0.00    +0.000 NA
ATOM     25  C   UNL     1     -12.807   9.088 128.473  0.00  0.00    +0.000 A 
ATOM     26  S   UNL     1     -11.574   8.130 127.770  0.00  0.00    +0.000 S 
ATOM     27  C   UNL     1     -11.408   7.269 129.256  0.00  0.00    +0.000 A 
ATOM     28  C   UNL     1     -10.535   6.218 129.583  0.00  0.00    +0.000 A 
ENDBRANCH   2  20
TORSDOF 2
ENDMDL
MODEL 7
REMARK VINA RESULT:      -8.1      4.676      8.257
REMARK  Name = CHEMBL32054
REMARK  2 active torsions:
REMARK  status: ('A' for Active; 'I' for Inactive)
REMARK    1  A    between atoms: C_2  and  C_3
REMARK    2  A    between atoms: C_15  and  N_16
REMARK                            x       y       z     vdW  Elec       q    Type
REMARK                         _______ _______ _______ _____ _____    ______ ____
ROOT
ATOM      1  O   UNL     1      -8.461   4.899 127.977  0.00  0.00    +0.000 OA
ATOM      2  C   UNL     1      -8.242   3.728 128.268  0.00  0.00    +0.000 C 
ATOM      3  N   UNL     1      -7.950   2.740 127.346  0.00  0.00    +0.000 N 
ATOM      4  C   UNL     1      -8.534   1.400 127.412  0.00  0.00    +0.000 C 
ATOM      5  C   UNL     1      -7.439   0.371 127.209  0.00  0.00    +0.000 C 
ATOM      6  C   UNL     1      -6.671   0.629 125.889  0.00  0.00    +0.000 C 
ATOM      7  C   UNL     1      -6.169   2.085 125.834  0.00  0.00    +0.000 C 
ATOM      8  C   UNL     1      -7.269   3.102 126.112  0.00  0.00    +0.000 C 
ENDROOT
BRANCH   6   9
ATOM      9  N   UNL     1      -7.439   0.165 124.693  0.00  0.00    +0.000 N 
ATOM     10  C   UNL     1      -7.796   0.997 123.631  0.00  0.00    +0.000 C 
ATOM     11  O   UNL     1      -7.086   1.764 122.998  0.00  0.00    +0.000 OA
ATOM     12  O   UNL     1      -9.118   0.940 123.342  0.00  0.00    +0.000 OA
ATOM     13  C   UNL     1      -9.401  -0.300 122.735  0.00  0.00    +0.000 C 
ATOM     14  C   UNL     1      -8.894  -1.423 123.587  0.00  0.00    +0.000 A 
ATOM     15  C   UNL     1      -9.364  -2.714 123.345  0.00  0.00    +0.000 A 
ATOM     16  C   UNL     1      -8.887  -3.771 124.105  0.00  0.00    +0.000 A 
ATOM     17  C   UNL     1      -7.936  -3.538 125.098  0.00  0.00    +0.000 A 
ATOM     18  C   UNL     1      -7.460  -2.245 125.343  0.00  0.00    +0.000 A 
ATOM     19  C   UNL     1      -7.935  -1.171 124.589  0.00  0.00    +0.000 A 
ENDBRANCH   6   9
BRANCH   2  20
ATOM     20  C   UNL     1      -8.133   3.344 129.699  0.00  0.00    +0.000 A 
ATOM     21  C   UNL     1      -9.291   3.293 130.467  0.00  0.00    +0.000 A 
ATOM     22  C   UNL     1      -9.222   2.929 131.816  0.00  0.00    +0.000 A 
ATOM     23  C   UNL     1      -7.977   2.635 132.408  0.00  0.00    +0.000 A 
ATOM     24  N   UNL     1      -7.776   2.249 133.723  0.00  0.00    +0.000 NA
ATOM     25  C   UNL     1      -6.493   2.073 133.938  0.00  0.00    +0.000 A 
ATOM     26  S   UNL     1      -5.452   2.346 132.606  0.00  0.00    +0.000 S 
ATOM     27  C   UNL     1      -6.820   2.738 131.629  0.00  0.00    +0.000 A 
ATOM     28  C   UNL     1      -6.871   3.110 130.275  0.00  0.00    +0.000 A 
ENDBRANCH   2  20
TORSDOF 2
ENDMDL
MODEL 8
REMARK VINA RESULT:      -8.1      4.745      6.876
REMARK  Name = CHEMBL32054
REMARK  2 active torsions:
REMARK  status: ('A' for Active; 'I' for Inactive)
REMARK    1  A    between atoms: C_2  and  C_3
REMARK    2  A    between atoms: C_15  and  N_16
REMARK                            x       y       z     vdW  Elec       q    Type
REMARK                         _______ _______ _______ _____ _____    ______ ____
ROOT
ATOM      1  O   UNL     1      -3.422   5.796 129.854  0.00  0.00    +0.000 OA
ATOM      2  C   UNL     1      -4.209   6.182 130.711  0.00  0.00    +0.000 C 
ATOM      3  N   UNL     1      -5.570   5.939 130.682  0.00  0.00    +0.000 N 
ATOM      4  C   UNL     1      -6.562   6.962 131.014  0.00  0.00    +0.000 C 
ATOM      5  C   UNL     1      -7.595   6.366 131.951  0.00  0.00    +0.000 C 
ATOM      6  C   UNL     1      -8.227   5.090 131.342  0.00  0.00    +0.000 C 
ATOM      7  C   UNL     1      -7.127   4.095 130.920  0.00  0.00    +0.000 C 
ATOM      8  C   UNL     1      -6.060   4.730 130.038  0.00  0.00    +0.000 C 
ENDROOT
BRANCH   6   9
ATOM      9  N   UNL     1      -9.244   5.411 130.295  0.00  0.00    +0.000 N 
ATOM     10  C   UNL     1      -9.099   5.082 128.947  0.00  0.00    +0.000 C 
ATOM     11  O   UNL     1      -8.796   4.002 128.460  0.00  0.00    +0.000 OA
ATOM     12  O   UNL     1      -9.281   6.142 128.125  0.00  0.00    +0.000 OA
ATOM     13  C   UNL     1     -10.650   6.478 128.107  0.00  0.00    +0.000 C 
ATOM     14  C   UNL     1     -11.156   6.669 129.504  0.00  0.00    +0.000 A 
ATOM     15  C   UNL     1     -12.371   7.327 129.695  0.00  0.00    +0.000 A 
ATOM     16  C   UNL     1     -12.868   7.491 130.978  0.00  0.00    +0.000 A 
ATOM     17  C   UNL     1     -12.157   6.990 132.067  0.00  0.00    +0.000 A 
ATOM     18  C   UNL     1     -10.939   6.327 131.882  0.00  0.00    +0.000 A 
ATOM     19  C   UNL     1     -10.423   6.159 130.596  0.00  0.00    +0.000 A 
ENDBRANCH   6   9
BRANCH   2  20
ATOM     20  C   UNL     1      -3.683   6.827 131.942  0.00  0.00    +0.000 A 
ATOM     21  C   UNL     1      -3.948   6.234 133.172  0.00  0.00    +0.000 A 
ATOM     22  C   UNL     1      -3.463   6.814 134.348  0.00  0.00    +0.000 A 
ATOM     23  C   UNL     1      -2.723   8.014 134.295  0.00  0.00    +0.000 A 
ATOM     24  N   UNL     1      -2.176   8.677 135.381  0.00  0.00    +0.000 NA
ATOM     25  C   UNL     1      -1.569   9.767 134.970  0.00  0.00    +0.000 A 
ATOM     26  S   UNL     1      -1.603  10.068 133.285  0.00  0.00    +0.000 S 
ATOM     27  C   UNL     1      -2.509   8.617 133.052  0.00  0.00    +0.000 A 
ATOM     28  C   UNL     1      -2.997   8.053 131.862  0.00  0.00    +0.000 A 
ENDBRANCH   2  20
TORSDOF 2
ENDMDL
MODEL 9
REMARK VINA RESULT:      -8.0      5.402      8.275
REMARK  Name = CHEMBL32054
REMARK  2 active torsions:
REMARK  status: ('A' for Active; 'I' for Inactive)
REMARK    1  A    between atoms: C_2  and  C_3
REMARK    2  A    between atoms: C_15  and  N_16
REMARK                            x       y       z     vdW  Elec       q    Type
REMARK                         _______ _______ _______ _____ _____    ______ ____
ROOT
ATOM      1  O   UNL     1      -8.610   5.159 128.086  0.00  0.00    +0.000 OA
ATOM      2  C   UNL     1      -7.824   4.238 127.900  0.00  0.00    +0.000 C 
ATOM      3  N   UNL     1      -7.725   3.527 126.719  0.00  0.00    +0.000 N 
ATOM      4  C   UNL     1      -7.581   2.071 126.683  0.00  0.00    +0.000 C 
ATOM      5  C   UNL     1      -6.481   1.705 125.706  0.00  0.00    +0.000 C 
ATOM      6  C   UNL     1      -6.752   2.318 124.309  0.00  0.00    +0.000 C 
ATOM      7  C   UNL     1      -6.996   3.835 124.426  0.00  0.00    +0.000 C 
ATOM      8  C   UNL     1      -8.053   4.188 125.465  0.00  0.00    +0.000 C 
ENDROOT
BRANCH   6   9
ATOM      9  N   UNL     1      -7.790   1.554 123.552  0.00  0.00    +0.000 N 
ATOM     10  C   UNL     1      -8.837   2.154 122.852  0.00  0.00    +0.000 C 
ATOM     11  O   UNL     1      -8.781   3.069 122.044  0.00  0.00    +0.000 OA
ATOM     12  O   UNL     1     -10.049   1.651 123.188  0.00  0.00    +0.000 OA
ATOM     13  C   UNL     1     -10.168   0.351 122.658  0.00  0.00    +0.000 C 
ATOM     14  C   UNL     1      -8.999  -0.489 123.076  0.00  0.00    +0.000 A 
ATOM     15  C   UNL     1      -9.089  -1.875 122.949  0.00  0.00    +0.000 A 
ATOM     16  C   UNL     1      -8.009  -2.668 123.306  0.00  0.00    +0.000 A 
ATOM     17  C   UNL     1      -6.839  -2.075 123.778  0.00  0.00    +0.000 A 
ATOM     18  C   UNL     1      -6.743  -0.684 123.905  0.00  0.00    +0.000 A 
ATOM     19  C   UNL     1      -7.824   0.126 123.555  0.00  0.00    +0.000 A 
ENDBRANCH   6   9
BRANCH   2  20
ATOM     20  C   UNL     1      -6.799   3.938 128.934  0.00  0.00    +0.000 A 
ATOM     21  C   UNL     1      -5.464   4.198 128.646  0.00  0.00    +0.000 A 
ATOM     22  C   UNL     1      -4.476   3.932 129.601  0.00  0.00    +0.000 A 
ATOM     23  C   UNL     1      -4.828   3.377 130.849  0.00  0.00    +0.000 A 
ATOM     24  N   UNL     1      -3.951   3.083 131.880  0.00  0.00    +0.000 NA
ATOM     25  C   UNL     1      -4.616   2.564 132.887  0.00  0.00    +0.000 A 
ATOM     26  S   UNL     1      -6.308   2.399 132.679  0.00  0.00    +0.000 S 
ATOM     27  C   UNL     1      -6.171   3.080 131.099  0.00  0.00    +0.000 A 
ATOM     28  C   UNL     1      -7.174   3.334 130.149  0.00  0.00    +0.000 A 
ENDBRANCH   2  20
TORSDOF 2
ENDMDL
