MODEL 1
REMARK VINA RESULT:      -8.6      0.000      0.000
REMARK  Name = CHEMBL341339
REMARK  9 active torsions:
REMARK  status: ('A' for Active; 'I' for Inactive)
REMARK    1  A    between atoms: C_1  and  C_2
REMARK    2  A    between atoms: C_2  and  C_3
REMARK    3  A    between atoms: C_7  and  C_8
REMARK    4  A    between atoms: C_8  and  S_9
REMARK    5  A    between atoms: S_9  and  N_12
REMARK    6  A    between atoms: C_26  and  O_27
REMARK    7  A    between atoms: C_26  and  C_28
REMARK    8  A    between atoms: C_28  and  C_29
REMARK    9  A    between atoms: C_29  and  O_31
REMARK                            x       y       z     vdW  Elec       q    Type
REMARK                         _______ _______ _______ _____ _____    ______ ____
ROOT
ATOM      1  C   UNL     1      -7.444   2.999 130.820  0.00  0.00    +0.000 C 
ENDROOT
BRANCH   1   8
ATOM      2  C   UNL     1      -6.586   6.113 131.608  0.00  0.00    +0.000 C 
ATOM      3  C   UNL     1      -7.099   5.030 132.556  0.00  0.00    +0.000 C 
ATOM      4  C   UNL     1      -5.832   4.416 133.190  0.00  0.00    +0.000 C 
ATOM      5  C   UNL     1      -8.165   5.503 133.593  0.00  0.00    +0.000 C 
ATOM      6  C   UNL     1      -8.543   4.223 134.349  0.00  0.00    +0.000 C 
ATOM      7  C   UNL     1      -8.458   3.157 133.245  0.00  0.00    +0.000 C 
ATOM      8  C   UNL     1      -8.070   4.003 131.888  0.00  0.00    +0.000 C 
ATOM      9  C   UNL     1      -9.392   4.929 131.543  0.00  0.00    +0.000 C 
ATOM     10  C   UNL     1      -9.417   5.877 132.759  0.00  0.00    +0.000 C 
BRANCH   9  11
ATOM     11  O   UNL     1     -10.099   3.695 131.608  0.00  0.00    +0.000 OA
ATOM     12  H   UNL     1     -10.792   4.007 130.983  0.00  0.00    +0.000 HD
ENDBRANCH   9  11
BRANCH   9  13
ATOM     13  C   UNL     1     -10.612   5.322 130.601  0.00  0.00    +0.000 C 
BRANCH  13  14
ATOM     14  C   UNL     1     -10.424   6.443 129.684  0.00  0.00    +0.000 C 
ATOM     15  O   UNL     1     -10.747   7.617 129.964  0.00  0.00    +0.000 OA
BRANCH  14  16
ATOM     16  O   UNL     1      -9.828   6.107 128.522  0.00  0.00    +0.000 OA
ATOM     17  H   UNL     1      -8.921   6.473 128.412  0.00  0.00    +0.000 HD
ENDBRANCH  14  16
ENDBRANCH  13  14
ENDBRANCH   9  13
ENDBRANCH   1   8
BRANCH   1  18
ATOM     18  S   UNL     1      -7.968   3.265 129.058  0.00  0.00    +0.000 S 
ATOM     19  O   UNL     1      -9.405   3.016 128.891  0.00  0.00    +0.000 OA
ATOM     20  O   UNL     1      -7.472   4.561 128.709  0.00  0.00    +0.000 OA
BRANCH  18  21
ATOM     21  N   UNL     1      -7.053   2.279 128.064  0.00  0.00    +0.000 NA
ATOM     22  C   UNL     1      -6.748   0.911 128.593  0.00  0.00    +0.000 C 
ATOM     23  C   UNL     1      -7.807  -0.039 128.141  0.00  0.00    +0.000 C 
ATOM     24  C   UNL     1      -7.857  -0.043 126.344  0.00  0.00    +0.000 C 
ATOM     25  C   UNL     1      -8.228  -1.430 126.789  0.00  0.00    +0.000 C 
ATOM     26  C   UNL     1      -8.981  -2.019 125.878  0.00  0.00    +0.000 C 
ATOM     27  C   UNL     1      -7.887  -2.075 124.959  0.00  0.00    +0.000 A 
ATOM     28  C   UNL     1      -6.940  -3.153 124.977  0.00  0.00    +0.000 A 
ATOM     29  C   UNL     1      -5.871  -3.246 124.127  0.00  0.00    +0.000 A 
ATOM     30  C   UNL     1      -5.871  -2.236 123.212  0.00  0.00    +0.000 A 
ATOM     31  C   UNL     1      -6.635  -0.967 123.533  0.00  0.00    +0.000 A 
ATOM     32  C   UNL     1      -7.553  -0.772 124.667  0.00  0.00    +0.000 A 
ATOM     33  C   UNL     1      -8.791   1.198 126.401  0.00  0.00    +0.000 C 
ATOM     34  C   UNL     1      -7.686   2.261 126.657  0.00  0.00    +0.000 C 
ENDBRANCH  18  21
ENDBRANCH   1  18
TORSDOF 7
ENDMDL
MODEL 2
REMARK VINA RESULT:      -8.4      4.332      8.807
REMARK  Name = CHEMBL341339
REMARK  9 active torsions:
REMARK  status: ('A' for Active; 'I' for Inactive)
REMARK    1  A    between atoms: C_1  and  C_2
REMARK    2  A    between atoms: C_2  and  C_3
REMARK    3  A    between atoms: C_7  and  C_8
REMARK    4  A    between atoms: C_8  and  S_9
REMARK    5  A    between atoms: S_9  and  N_12
REMARK    6  A    between atoms: C_26  and  O_27
REMARK    7  A    between atoms: C_26  and  C_28
REMARK    8  A    between atoms: C_28  and  C_29
REMARK    9  A    between atoms: C_29  and  O_31
REMARK                            x       y       z     vdW  Elec       q    Type
REMARK                         _______ _______ _______ _____ _____    ______ ____
ROOT
ATOM      1  C   UNL     1      -6.975  -0.220 125.596  0.00  0.00    +0.000 C 
ENDROOT
BRANCH   1   8
ATOM      2  C   UNL     1      -5.521  -3.028 124.566  0.00  0.00    +0.000 C 
ATOM      3  C   UNL     1      -6.777  -2.375 123.989  0.00  0.00    +0.000 C 
ATOM      4  C   UNL     1      -6.285  -1.558 122.774  0.00  0.00    +0.000 C 
ATOM      5  C   UNL     1      -7.949  -3.354 123.668  0.00  0.00    +0.000 C 
ATOM      6  C   UNL     1      -9.078  -2.436 123.180  0.00  0.00    +0.000 C 
ATOM      7  C   UNL     1      -8.877  -1.185 124.050  0.00  0.00    +0.000 C 
ATOM      8  C   UNL     1      -7.615  -1.569 125.034  0.00  0.00    +0.000 C 
ATOM      9  C   UNL     1      -8.174  -2.753 126.039  0.00  0.00    +0.000 C 
ATOM     10  C   UNL     1      -8.422  -3.900 125.038  0.00  0.00    +0.000 C 
BRANCH   9  11
ATOM     11  O   UNL     1      -9.222  -1.830 126.314  0.00  0.00    +0.000 OA
ATOM     12  H   UNL     1      -9.727  -2.490 126.841  0.00  0.00    +0.000 HD
ENDBRANCH   9  11
BRANCH   9  13
ATOM     13  C   UNL     1      -8.563  -3.284 127.487  0.00  0.00    +0.000 C 
BRANCH  13  14
ATOM     14  C   UNL     1      -7.758  -2.823 128.615  0.00  0.00    +0.000 C 
ATOM     15  O   UNL     1      -7.119  -3.596 129.359  0.00  0.00    +0.000 OA
BRANCH  14  16
ATOM     16  O   UNL     1      -7.730  -1.483 128.756  0.00  0.00    +0.000 OA
ATOM     17  H   UNL     1      -7.558  -0.992 127.920  0.00  0.00    +0.000 HD
ENDBRANCH  14  16
ENDBRANCH  13  14
ENDBRANCH   9  13
ENDBRANCH   1   8
BRANCH   1  18
ATOM     18  S   UNL     1      -8.026   1.301 125.426  0.00  0.00    +0.000 S 
ATOM     19  O   UNL     1      -8.018   1.799 124.045  0.00  0.00    +0.000 OA
ATOM     20  O   UNL     1      -9.289   0.954 126.001  0.00  0.00    +0.000 OA
BRANCH  18  21
ATOM     21  N   UNL     1      -7.478   2.461 126.500  0.00  0.00    +0.000 NA
ATOM     22  C   UNL     1      -6.751   1.952 127.707  0.00  0.00    +0.000 C 
ATOM     23  C   UNL     1      -5.289   1.895 127.412  0.00  0.00    +0.000 C 
ATOM     24  C   UNL     1      -4.719   3.540 126.968  0.00  0.00    +0.000 C 
ATOM     25  C   UNL     1      -3.573   2.861 127.664  0.00  0.00    +0.000 C 
ATOM     26  C   UNL     1      -2.423   3.374 127.266  0.00  0.00    +0.000 C 
ATOM     27  C   UNL     1      -2.718   4.619 127.905  0.00  0.00    +0.000 A 
ATOM     28  C   UNL     1      -2.420   4.843 129.292  0.00  0.00    +0.000 A 
ATOM     29  C   UNL     1      -2.692   6.012 129.952  0.00  0.00    +0.000 A 
ATOM     30  C   UNL     1      -3.199   6.955 129.110  0.00  0.00    +0.000 A 
ATOM     31  C   UNL     1      -3.847   6.501 127.817  0.00  0.00    +0.000 A 
ATOM     32  C   UNL     1      -3.824   5.135 127.270  0.00  0.00    +0.000 A 
ATOM     33  C   UNL     1      -5.172   3.266 125.506  0.00  0.00    +0.000 C 
ATOM     34  C   UNL     1      -6.688   3.533 125.720  0.00  0.00    +0.000 C 
ENDBRANCH  18  21
ENDBRANCH   1  18
TORSDOF 7
ENDMDL
MODEL 3
REMARK VINA RESULT:      -8.4      2.700      8.573
REMARK  Name = CHEMBL341339
REMARK  9 active torsions:
REMARK  status: ('A' for Active; 'I' for Inactive)
REMARK    1  A    between atoms: C_1  and  C_2
REMARK    2  A    between atoms: C_2  and  C_3
REMARK    3  A    between atoms: C_7  and  C_8
REMARK    4  A    between atoms: C_8  and  S_9
REMARK    5  A    between atoms: S_9  and  N_12
REMARK    6  A    between atoms: C_26  and  O_27
REMARK    7  A    between atoms: C_26  and  C_28
REMARK    8  A    between atoms: C_28  and  C_29
REMARK    9  A    between atoms: C_29  and  O_31
REMARK                            x       y       z     vdW  Elec       q    Type
REMARK                         _______ _______ _______ _____ _____    ______ ____
ROOT
ATOM      1  C   UNL     1      -6.591   0.228 126.310  0.00  0.00    +0.000 C 
ENDROOT
BRANCH   1   8
ATOM      2  C   UNL     1      -9.165  -1.876 126.236  0.00  0.00    +0.000 C 
ATOM      3  C   UNL     1      -7.775  -2.099 125.640  0.00  0.00    +0.000 C 
ATOM      4  C   UNL     1      -7.009  -2.919 126.701  0.00  0.00    +0.000 C 
ATOM      5  C   UNL     1      -7.755  -2.726 124.212  0.00  0.00    +0.000 C 
ATOM      6  C   UNL     1      -6.266  -2.769 123.844  0.00  0.00    +0.000 C 
ATOM      7  C   UNL     1      -5.732  -1.490 124.507  0.00  0.00    +0.000 C 
ATOM      8  C   UNL     1      -7.063  -0.787 125.174  0.00  0.00    +0.000 C 
ATOM      9  C   UNL     1      -7.997  -0.301 123.904  0.00  0.00    +0.000 C 
ATOM     10  C   UNL     1      -8.382  -1.658 123.280  0.00  0.00    +0.000 C 
BRANCH   9  11
ATOM     11  O   UNL     1      -6.813   0.357 123.466  0.00  0.00    +0.000 OA
ATOM     12  H   UNL     1      -6.637   0.732 124.358  0.00  0.00    +0.000 HD
ENDBRANCH   9  11
BRANCH   9  13
ATOM     13  C   UNL     1      -8.686   0.840 123.036  0.00  0.00    +0.000 C 
BRANCH  13  14
ATOM     14  C   UNL     1     -10.092   1.134 123.299  0.00  0.00    +0.000 C 
ATOM     15  O   UNL     1     -11.031   0.568 122.700  0.00  0.00    +0.000 OA
BRANCH  14  16
ATOM     16  O   UNL     1     -10.289   2.040 124.277  0.00  0.00    +0.000 OA
ATOM     17  H   UNL     1     -11.233   2.282 124.419  0.00  0.00    +0.000 HD
ENDBRANCH  14  16
ENDBRANCH  13  14
ENDBRANCH   9  13
ENDBRANCH   1   8
BRANCH   1  18
ATOM     18  S   UNL     1      -7.561   1.807 126.433  0.00  0.00    +0.000 S 
ATOM     19  O   UNL     1      -7.303   2.677 125.280  0.00  0.00    +0.000 OA
ATOM     20  O   UNL     1      -8.912   1.402 126.672  0.00  0.00    +0.000 OA
BRANCH  18  21
ATOM     21  N   UNL     1      -7.180   2.566 127.874  0.00  0.00    +0.000 NA
ATOM     22  C   UNL     1      -8.161   3.589 128.360  0.00  0.00    +0.000 C 
ATOM     23  C   UNL     1      -9.153   2.931 129.260  0.00  0.00    +0.000 C 
ATOM     24  C   UNL     1      -8.280   2.176 130.637  0.00  0.00    +0.000 C 
ATOM     25  C   UNL     1      -9.616   2.618 131.164  0.00  0.00    +0.000 C 
ATOM     26  C   UNL     1      -9.970   1.879 132.201  0.00  0.00    +0.000 C 
ATOM     27  C   UNL     1      -8.919   2.433 132.998  0.00  0.00    +0.000 A 
ATOM     28  C   UNL     1      -9.089   3.660 133.723  0.00  0.00    +0.000 A 
ATOM     29  C   UNL     1      -8.113   4.237 134.490  0.00  0.00    +0.000 A 
ATOM     30  C   UNL     1      -6.996   3.458 134.544  0.00  0.00    +0.000 A 
ATOM     31  C   UNL     1      -6.769   2.437 133.447  0.00  0.00    +0.000 A 
ATOM     32  C   UNL     1      -7.736   2.056 132.405  0.00  0.00    +0.000 A 
ATOM     33  C   UNL     1      -8.034   0.922 129.750  0.00  0.00    +0.000 C 
ATOM     34  C   UNL     1      -6.844   1.494 128.932  0.00  0.00    +0.000 C 
ENDBRANCH  18  21
ENDBRANCH   1  18
TORSDOF 7
ENDMDL
MODEL 4
REMARK VINA RESULT:      -8.1      4.714      8.879
REMARK  Name = CHEMBL341339
REMARK  9 active torsions:
REMARK  status: ('A' for Active; 'I' for Inactive)
REMARK    1  A    between atoms: C_1  and  C_2
REMARK    2  A    between atoms: C_2  and  C_3
REMARK    3  A    between atoms: C_7  and  C_8
REMARK    4  A    between atoms: C_8  and  S_9
REMARK    5  A    between atoms: S_9  and  N_12
REMARK    6  A    between atoms: C_26  and  O_27
REMARK    7  A    between atoms: C_26  and  C_28
REMARK    8  A    between atoms: C_28  and  C_29
REMARK    9  A    between atoms: C_29  and  O_31
REMARK                            x       y       z     vdW  Elec       q    Type
REMARK                         _______ _______ _______ _____ _____    ______ ____
ROOT
ATOM      1  C   UNL     1      -8.211  -1.953 126.660  0.00  0.00    +0.000 C 
ENDROOT
BRANCH   1   8
ATOM      2  C   UNL     1      -9.207  -2.824 123.610  0.00  0.00    +0.000 C 
ATOM      3  C   UNL     1      -7.788  -2.896 124.171  0.00  0.00    +0.000 C 
ATOM      4  C   UNL     1      -7.613  -4.358 124.638  0.00  0.00    +0.000 C 
ATOM      5  C   UNL     1      -6.665  -2.395 123.211  0.00  0.00    +0.000 C 
ATOM      6  C   UNL     1      -5.382  -2.514 124.043  0.00  0.00    +0.000 C 
ATOM      7  C   UNL     1      -5.879  -2.166 125.455  0.00  0.00    +0.000 C 
ATOM      8  C   UNL     1      -7.473  -1.812 125.254  0.00  0.00    +0.000 C 
ATOM      9  C   UNL     1      -7.516  -0.411 124.384  0.00  0.00    +0.000 C 
ATOM     10  C   UNL     1      -6.910  -0.875 123.043  0.00  0.00    +0.000 C 
BRANCH   9  11
ATOM     11  O   UNL     1      -6.654   0.084 125.403  0.00  0.00    +0.000 OA
ATOM     12  H   UNL     1      -6.234   0.733 124.795  0.00  0.00    +0.000 HD
ENDBRANCH   9  11
BRANCH   9  13
ATOM     13  C   UNL     1      -7.870   1.133 124.244  0.00  0.00    +0.000 C 
BRANCH  13  14
ATOM     14  C   UNL     1      -9.120   1.597 124.839  0.00  0.00    +0.000 C 
ATOM     15  O   UNL     1     -10.152   1.823 124.172  0.00  0.00    +0.000 OA
BRANCH  14  16
ATOM     16  O   UNL     1      -9.076   1.717 126.181  0.00  0.00    +0.000 OA
ATOM     17  H   UNL     1      -8.620   2.529 126.499  0.00  0.00    +0.000 HD
ENDBRANCH  14  16
ENDBRANCH  13  14
ENDBRANCH   9  13
ENDBRANCH   1   8
BRANCH   1  18
ATOM     18  S   UNL     1      -7.400  -1.083 128.086  0.00  0.00    +0.000 S 
ATOM     19  O   UNL     1      -5.938  -1.099 127.953  0.00  0.00    +0.000 OA
ATOM     20  O   UNL     1      -8.047   0.191 128.169  0.00  0.00    +0.000 OA
BRANCH  18  21
ATOM     21  N   UNL     1      -7.895  -1.802 129.513  0.00  0.00    +0.000 NA
ATOM     22  C   UNL     1      -7.880  -3.300 129.537  0.00  0.00    +0.000 C 
ATOM     23  C   UNL     1      -6.560  -3.770 130.051  0.00  0.00    +0.000 C 
ATOM     24  C   UNL     1      -6.304  -3.101 131.699  0.00  0.00    +0.000 C 
ATOM     25  C   UNL     1      -5.628  -4.443 131.669  0.00  0.00    +0.000 C 
ATOM     26  C   UNL     1      -4.644  -4.482 132.550  0.00  0.00    +0.000 C 
ATOM     27  C   UNL     1      -5.570  -4.423 133.638  0.00  0.00    +0.000 A 
ATOM     28  C   UNL     1      -6.188  -5.605 134.168  0.00  0.00    +0.000 A 
ATOM     29  C   UNL     1      -7.087  -5.601 135.201  0.00  0.00    +0.000 A 
ATOM     30  C   UNL     1      -7.254  -4.349 135.712  0.00  0.00    +0.000 A 
ATOM     31  C   UNL     1      -6.901  -3.158 134.844  0.00  0.00    +0.000 A 
ATOM     32  C   UNL     1      -6.206  -3.206 133.547  0.00  0.00    +0.000 A 
ATOM     33  C   UNL     1      -5.752  -1.801 131.049  0.00  0.00    +0.000 C 
ATOM     34  C   UNL     1      -7.123  -1.166 130.688  0.00  0.00    +0.000 C 
ENDBRANCH  18  21
ENDBRANCH   1  18
TORSDOF 7
ENDMDL
MODEL 5
REMARK VINA RESULT:      -8.0      3.878      8.920
REMARK  Name = CHEMBL341339
REMARK  9 active torsions:
REMARK  status: ('A' for Active; 'I' for Inactive)
REMARK    1  A    between atoms: C_1  and  C_2
REMARK    2  A    between atoms: C_2  and  C_3
REMARK    3  A    between atoms: C_7  and  C_8
REMARK    4  A    between atoms: C_8  and  S_9
REMARK    5  A    between atoms: S_9  and  N_12
REMARK    6  A    between atoms: C_26  and  O_27
REMARK    7  A    between atoms: C_26  and  C_28
REMARK    8  A    between atoms: C_28  and  C_29
REMARK    9  A    between atoms: C_29  and  O_31
REMARK                            x       y       z     vdW  Elec       q    Type
REMARK                         _______ _______ _______ _____ _____    ______ ____
ROOT
ATOM      1  C   UNL     1      -7.345   0.169 126.487  0.00  0.00    +0.000 C 
ENDROOT
BRANCH   1   8
ATOM      2  C   UNL     1      -9.338  -2.456 126.057  0.00  0.00    +0.000 C 
ATOM      3  C   UNL     1      -7.905  -2.295 125.551  0.00  0.00    +0.000 C 
ATOM      4  C   UNL     1      -7.025  -3.011 126.599  0.00  0.00    +0.000 C 
ATOM      5  C   UNL     1      -7.660  -2.764 124.084  0.00  0.00    +0.000 C 
ATOM      6  C   UNL     1      -6.185  -2.427 123.826  0.00  0.00    +0.000 C 
ATOM      7  C   UNL     1      -6.006  -1.127 124.625  0.00  0.00    +0.000 C 
ATOM      8  C   UNL     1      -7.500  -0.816 125.243  0.00  0.00    +0.000 C 
ATOM      9  C   UNL     1      -8.452  -0.443 123.949  0.00  0.00    +0.000 C 
ATOM     10  C   UNL     1      -8.470  -1.788 123.194  0.00  0.00    +0.000 C 
BRANCH   9  11
ATOM     11  O   UNL     1      -7.436   0.509 123.653  0.00  0.00    +0.000 OA
ATOM     12  H   UNL     1      -7.474   0.897 124.555  0.00  0.00    +0.000 HD
ENDBRANCH   9  11
BRANCH   9  13
ATOM     13  C   UNL     1      -9.344   0.584 123.123  0.00  0.00    +0.000 C 
BRANCH  13  14
ATOM     14  C   UNL     1     -10.273   1.426 123.871  0.00  0.00    +0.000 C 
ATOM     15  O   UNL     1     -11.489   1.163 123.989  0.00  0.00    +0.000 OA
BRANCH  14  16
ATOM     16  O   UNL     1      -9.695   2.490 124.462  0.00  0.00    +0.000 OA
ATOM     17  H   UNL     1      -9.487   2.359 125.416  0.00  0.00    +0.000 HD
ENDBRANCH  14  16
ENDBRANCH  13  14
ENDBRANCH   9  13
ENDBRANCH   1   8
BRANCH   1  18
ATOM     18  S   UNL     1      -6.332   1.697 126.183  0.00  0.00    +0.000 S 
ATOM     19  O   UNL     1      -5.088   1.374 125.475  0.00  0.00    +0.000 OA
ATOM     20  O   UNL     1      -7.228   2.626 125.565  0.00  0.00    +0.000 OA
BRANCH  18  21
ATOM     21  N   UNL     1      -6.030   2.447 127.647  0.00  0.00    +0.000 NA
ATOM     22  C   UNL     1      -4.722   2.119 128.300  0.00  0.00    +0.000 C 
ATOM     23  C   UNL     1      -3.693   3.109 127.865  0.00  0.00    +0.000 C 
ATOM     24  C   UNL     1      -4.242   4.758 128.324  0.00  0.00    +0.000 C 
ATOM     25  C   UNL     1      -2.741   4.762 128.413  0.00  0.00    +0.000 C 
ATOM     26  C   UNL     1      -2.273   5.984 128.235  0.00  0.00    +0.000 C 
ATOM     27  C   UNL     1      -2.840   6.419 129.474  0.00  0.00    +0.000 A 
ATOM     28  C   UNL     1      -2.145   6.257 130.719  0.00  0.00    +0.000 A 
ATOM     29  C   UNL     1      -2.648   6.647 131.932  0.00  0.00    +0.000 A 
ATOM     30  C   UNL     1      -3.847   7.280 131.794  0.00  0.00    +0.000 A 
ATOM     31  C   UNL     1      -4.660   7.030 130.541  0.00  0.00    +0.000 A 
ATOM     32  C   UNL     1      -4.205   6.306 129.342  0.00  0.00    +0.000 A 
ATOM     33  C   UNL     1      -5.063   4.815 127.006  0.00  0.00    +0.000 C 
ATOM     34  C   UNL     1      -6.269   3.964 127.491  0.00  0.00    +0.000 C 
ENDBRANCH  18  21
ENDBRANCH   1  18
TORSDOF 7
ENDMDL
MODEL 6
REMARK VINA RESULT:      -7.7      3.641      9.115
REMARK  Name = CHEMBL341339
REMARK  9 active torsions:
REMARK  status: ('A' for Active; 'I' for Inactive)
REMARK    1  A    between atoms: C_1  and  C_2
REMARK    2  A    between atoms: C_2  and  C_3
REMARK    3  A    between atoms: C_7  and  C_8
REMARK    4  A    between atoms: C_8  and  S_9
REMARK    5  A    between atoms: S_9  and  N_12
REMARK    6  A    between atoms: C_26  and  O_27
REMARK    7  A    between atoms: C_26  and  C_28
REMARK    8  A    between atoms: C_28  and  C_29
REMARK    9  A    between atoms: C_29  and  O_31
REMARK                            x       y       z     vdW  Elec       q    Type
REMARK                         _______ _______ _______ _____ _____    ______ ____
ROOT
ATOM      1  C   UNL     1      -7.392   0.069 124.823  0.00  0.00    +0.000 C 
ENDROOT
BRANCH   1   8
ATOM      2  C   UNL     1      -5.510  -2.666 124.647  0.00  0.00    +0.000 C 
ATOM      3  C   UNL     1      -6.814  -2.395 123.897  0.00  0.00    +0.000 C 
ATOM      4  C   UNL     1      -6.380  -1.888 122.505  0.00  0.00    +0.000 C 
ATOM      5  C   UNL     1      -7.819  -3.587 123.857  0.00  0.00    +0.000 C 
ATOM      6  C   UNL     1      -9.039  -3.021 123.118  0.00  0.00    +0.000 C 
ATOM      7  C   UNL     1      -9.059  -1.561 123.598  0.00  0.00    +0.000 C 
ATOM      8  C   UNL     1      -7.808  -1.462 124.663  0.00  0.00    +0.000 C 
ATOM      9  C   UNL     1      -8.246  -2.387 125.957  0.00  0.00    +0.000 C 
ATOM     10  C   UNL     1      -8.280  -3.792 125.322  0.00  0.00    +0.000 C 
BRANCH   9  11
ATOM     11  O   UNL     1      -9.426  -1.590 125.949  0.00  0.00    +0.000 OA
ATOM     12  H   UNL     1      -9.556  -1.710 124.982  0.00  0.00    +0.000 HD
ENDBRANCH   9  11
BRANCH   9  13
ATOM     13  C   UNL     1      -8.630  -2.543 127.493  0.00  0.00    +0.000 C 
BRANCH  13  14
ATOM     14  C   UNL     1      -7.581  -2.976 128.411  0.00  0.00    +0.000 C 
ATOM     15  O   UNL     1      -6.364  -2.794 128.193  0.00  0.00    +0.000 OA
BRANCH  14  16
ATOM     16  O   UNL     1      -8.042  -3.551 129.540  0.00  0.00    +0.000 OA
ATOM     17  H   UNL     1      -7.346  -3.744 130.209  0.00  0.00    +0.000 HD
ENDBRANCH  14  16
ENDBRANCH  13  14
ENDBRANCH   9  13
ENDBRANCH   1   8
BRANCH   1  18
ATOM     18  S   UNL     1      -6.827   0.577 126.517  0.00  0.00    +0.000 S 
ATOM     19  O   UNL     1      -7.935   0.535 127.479  0.00  0.00    +0.000 OA
ATOM     20  O   UNL     1      -5.678  -0.232 126.790  0.00  0.00    +0.000 OA
BRANCH  18  21
ATOM     21  N   UNL     1      -6.148   2.103 126.428  0.00  0.00    +0.000 NA
ATOM     22  C   UNL     1      -6.959   3.221 127.007  0.00  0.00    +0.000 C 
ATOM     23  C   UNL     1      -6.583   3.411 128.439  0.00  0.00    +0.000 C 
ATOM     24  C   UNL     1      -4.826   3.778 128.535  0.00  0.00    +0.000 C 
ATOM     25  C   UNL     1      -5.484   4.522 129.664  0.00  0.00    +0.000 C 
ATOM     26  C   UNL     1      -4.625   4.720 130.647  0.00  0.00    +0.000 C 
ATOM     27  C   UNL     1      -3.860   5.623 129.844  0.00  0.00    +0.000 A 
ATOM     28  C   UNL     1      -4.190   7.017 129.754  0.00  0.00    +0.000 A 
ATOM     29  C   UNL     1      -3.497   7.919 128.992  0.00  0.00    +0.000 A 
ATOM     30  C   UNL     1      -2.412   7.344 128.401  0.00  0.00    +0.000 A 
ATOM     31  C   UNL     1      -2.397   5.839 128.220  0.00  0.00    +0.000 A 
ATOM     32  C   UNL     1      -3.363   4.888 128.792  0.00  0.00    +0.000 A 
ATOM     33  C   UNL     1      -4.540   2.250 128.512  0.00  0.00    +0.000 C 
ATOM     34  C   UNL     1      -4.709   2.044 126.981  0.00  0.00    +0.000 C 
ENDBRANCH  18  21
ENDBRANCH   1  18
TORSDOF 7
ENDMDL
MODEL 7
REMARK VINA RESULT:      -7.7      5.093      7.423
REMARK  Name = CHEMBL341339
REMARK  9 active torsions:
REMARK  status: ('A' for Active; 'I' for Inactive)
REMARK    1  A    between atoms: C_1  and  C_2
REMARK    2  A    between atoms: C_2  and  C_3
REMARK    3  A    between atoms: C_7  and  C_8
REMARK    4  A    between atoms: C_8  and  S_9
REMARK    5  A    between atoms: S_9  and  N_12
REMARK    6  A    between atoms: C_26  and  O_27
REMARK    7  A    between atoms: C_26  and  C_28
REMARK    8  A    between atoms: C_28  and  C_29
REMARK    9  A    between atoms: C_29  and  O_31
REMARK                            x       y       z     vdW  Elec       q    Type
REMARK                         _______ _______ _______ _____ _____    ______ ____
ROOT
ATOM      1  C   UNL     1      -5.138   4.265 131.288  0.00  0.00    +0.000 C 
ENDROOT
BRANCH   1   8
ATOM      2  C   UNL     1      -2.229   4.126 132.892  0.00  0.00    +0.000 C 
ATOM      3  C   UNL     1      -3.574   4.578 133.460  0.00  0.00    +0.000 C 
ATOM      4  C   UNL     1      -4.144   3.338 134.183  0.00  0.00    +0.000 C 
ATOM      5  C   UNL     1      -3.526   5.865 134.342  0.00  0.00    +0.000 C 
ATOM      6  C   UNL     1      -4.994   6.119 134.710  0.00  0.00    +0.000 C 
ATOM      7  C   UNL     1      -5.730   5.665 133.439  0.00  0.00    +0.000 C 
ATOM      8  C   UNL     1      -4.528   5.227 132.404  0.00  0.00    +0.000 C 
ATOM      9  C   UNL     1      -3.739   6.622 132.015  0.00  0.00    +0.000 C 
ATOM     10  C   UNL     1      -3.135   7.014 133.380  0.00  0.00    +0.000 C 
BRANCH   9  11
ATOM     11  O   UNL     1      -5.036   7.094 131.667  0.00  0.00    +0.000 OA
ATOM     12  H   UNL     1      -5.261   7.303 132.601  0.00  0.00    +0.000 HD
ENDBRANCH   9  11
BRANCH   9  13
ATOM     13  C   UNL     1      -3.298   7.727 130.959  0.00  0.00    +0.000 C 
BRANCH  13  14
ATOM     14  C   UNL     1      -4.082   7.841 129.732  0.00  0.00    +0.000 C 
ATOM     15  O   UNL     1      -4.279   6.882 128.956  0.00  0.00    +0.000 OA
BRANCH  14  16
ATOM     16  O   UNL     1      -4.615   9.063 129.534  0.00  0.00    +0.000 OA
ATOM     17  H   UNL     1      -5.567   9.133 129.776  0.00  0.00    +0.000 HD
ENDBRANCH  14  16
ENDBRANCH  13  14
ENDBRANCH   9  13
ENDBRANCH   1   8
BRANCH   1  18
ATOM     18  S   UNL     1      -6.866   3.661 131.603  0.00  0.00    +0.000 S 
ATOM     19  O   UNL     1      -6.911   2.195 131.667  0.00  0.00    +0.000 OA
ATOM     20  O   UNL     1      -7.319   4.392 132.747  0.00  0.00    +0.000 OA
BRANCH  18  21
ATOM     21  N   UNL     1      -7.874   4.255 130.407  0.00  0.00    +0.000 NA
ATOM     22  C   UNL     1      -9.248   3.662 130.348  0.00  0.00    +0.000 C 
ATOM     23  C   UNL     1     -10.174   4.480 131.185  0.00  0.00    +0.000 C 
ATOM     24  C   UNL     1     -10.179   6.168 130.569  0.00  0.00    +0.000 C 
ATOM     25  C   UNL     1     -11.557   5.902 131.107  0.00  0.00    +0.000 C 
ATOM     26  C   UNL     1     -12.130   7.031 131.484  0.00  0.00    +0.000 C 
ATOM     27  C   UNL     1     -12.210   7.482 130.129  0.00  0.00    +0.000 A 
ATOM     28  C   UNL     1     -13.310   7.123 129.279  0.00  0.00    +0.000 A 
ATOM     29  C   UNL     1     -13.428   7.520 127.973  0.00  0.00    +0.000 A 
ATOM     30  C   UNL     1     -12.419   8.362 127.614  0.00  0.00    +0.000 A 
ATOM     31  C   UNL     1     -11.133   8.337 128.416  0.00  0.00    +0.000 A 
ATOM     32  C   UNL     1     -10.916   7.620 129.683  0.00  0.00    +0.000 A 
ATOM     33  C   UNL     1      -8.916   6.450 131.431  0.00  0.00    +0.000 C 
ATOM     34  C   UNL     1      -7.879   5.797 130.476  0.00  0.00    +0.000 C 
ENDBRANCH  18  21
ENDBRANCH   1  18
TORSDOF 7
ENDMDL
MODEL 8
REMARK VINA RESULT:      -7.7      1.621      2.646
REMARK  Name = CHEMBL341339
REMARK  9 active torsions:
REMARK  status: ('A' for Active; 'I' for Inactive)
REMARK    1  A    between atoms: C_1  and  C_2
REMARK    2  A    between atoms: C_2  and  C_3
REMARK    3  A    between atoms: C_7  and  C_8
REMARK    4  A    between atoms: C_8  and  S_9
REMARK    5  A    between atoms: S_9  and  N_12
REMARK    6  A    between atoms: C_26  and  O_27
REMARK    7  A    between atoms: C_26  and  C_28
REMARK    8  A    between atoms: C_28  and  C_29
REMARK    9  A    between atoms: C_29  and  O_31
REMARK                            x       y       z     vdW  Elec       q    Type
REMARK                         _______ _______ _______ _____ _____    ______ ____
ROOT
ATOM      1  C   UNL     1      -6.402   3.084 130.619  0.00  0.00    +0.000 C 
ENDROOT
BRANCH   1   8
ATOM      2  C   UNL     1      -6.812   2.728 133.899  0.00  0.00    +0.000 C 
ATOM      3  C   UNL     1      -7.769   2.277 132.797  0.00  0.00    +0.000 C 
ATOM      4  C   UNL     1      -7.451   0.781 132.575  0.00  0.00    +0.000 C 
ATOM      5  C   UNL     1      -9.277   2.576 133.060  0.00  0.00    +0.000 C 
ATOM      6  C   UNL     1      -9.982   2.089 131.787  0.00  0.00    +0.000 C 
ATOM      7  C   UNL     1      -8.952   2.427 130.698  0.00  0.00    +0.000 C 
ATOM      8  C   UNL     1      -7.723   3.162 131.509  0.00  0.00    +0.000 C 
ATOM      9  C   UNL     1      -8.333   4.601 132.039  0.00  0.00    +0.000 C 
ATOM     10  C   UNL     1      -9.404   4.120 133.039  0.00  0.00    +0.000 C 
BRANCH   9  11
ATOM     11  O   UNL     1      -8.690   4.793 130.675  0.00  0.00    +0.000 OA
ATOM     12  H   UNL     1      -9.243   5.579 130.883  0.00  0.00    +0.000 HD
ENDBRANCH   9  11
BRANCH   9  13
ATOM     13  C   UNL     1      -8.356   6.192 132.037  0.00  0.00    +0.000 C 
BRANCH  13  14
ATOM     14  C   UNL     1      -7.954   6.871 130.808  0.00  0.00    +0.000 C 
ATOM     15  O   UNL     1      -8.721   7.608 130.153  0.00  0.00    +0.000 OA
BRANCH  14  16
ATOM     16  O   UNL     1      -6.666   6.670 130.467  0.00  0.00    +0.000 OA
ATOM     17  H   UNL     1      -6.021   6.878 131.182  0.00  0.00    +0.000 HD
ENDBRANCH  14  16
ENDBRANCH  13  14
ENDBRANCH   9  13
ENDBRANCH   1   8
BRANCH   1  18
ATOM     18  S   UNL     1      -6.662   3.168 128.782  0.00  0.00    +0.000 S 
ATOM     19  O   UNL     1      -7.462   4.343 128.415  0.00  0.00    +0.000 OA
ATOM     20  O   UNL     1      -5.356   3.046 128.210  0.00  0.00    +0.000 OA
BRANCH  18  21
ATOM     21  N   UNL     1      -7.384   1.748 128.271  0.00  0.00    +0.000 NA
ATOM     22  C   UNL     1      -8.513   1.895 127.297  0.00  0.00    +0.000 C 
ATOM     23  C   UNL     1      -7.974   1.828 125.906  0.00  0.00    +0.000 C 
ATOM     24  C   UNL     1      -7.136   0.254 125.682  0.00  0.00    +0.000 C 
ATOM     25  C   UNL     1      -7.727   0.621 124.350  0.00  0.00    +0.000 C 
ATOM     26  C   UNL     1      -7.039   0.061 123.371  0.00  0.00    +0.000 C 
ATOM     27  C   UNL     1      -7.479  -1.242 123.761  0.00  0.00    +0.000 A 
ATOM     28  C   UNL     1      -8.722  -1.790 123.297  0.00  0.00    +0.000 A 
ATOM     29  C   UNL     1      -9.192  -3.027 123.649  0.00  0.00    +0.000 A 
ATOM     30  C   UNL     1      -8.294  -3.700 124.423  0.00  0.00    +0.000 A 
ATOM     31  C   UNL     1      -7.248  -2.906 125.178  0.00  0.00    +0.000 A 
ATOM     32  C   UNL     1      -6.969  -1.469 125.019  0.00  0.00    +0.000 A 
ATOM     33  C   UNL     1      -5.858   0.885 126.302  0.00  0.00    +0.000 C 
ATOM     34  C   UNL     1      -6.288   0.774 127.791  0.00  0.00    +0.000 C 
ENDBRANCH  18  21
ENDBRANCH   1  18
TORSDOF 7
ENDMDL
MODEL 9
REMARK VINA RESULT:      -7.6      5.179      8.323
REMARK  Name = CHEMBL341339
REMARK  9 active torsions:
REMARK  status: ('A' for Active; 'I' for Inactive)
REMARK    1  A    between atoms: C_1  and  C_2
REMARK    2  A    between atoms: C_2  and  C_3
REMARK    3  A    between atoms: C_7  and  C_8
REMARK    4  A    between atoms: C_8  and  S_9
REMARK    5  A    between atoms: S_9  and  N_12
REMARK    6  A    between atoms: C_26  and  O_27
REMARK    7  A    between atoms: C_26  and  C_28
REMARK    8  A    between atoms: C_28  and  C_29
REMARK    9  A    between atoms: C_29  and  O_31
REMARK                            x       y       z     vdW  Elec       q    Type
REMARK                         _______ _______ _______ _____ _____    ______ ____
ROOT
ATOM      1  C   UNL     1      -7.760   0.469 126.937  0.00  0.00    +0.000 C 
ENDROOT
BRANCH   1   8
ATOM      2  C   UNL     1      -5.639   2.564 125.463  0.00  0.00    +0.000 C 
ATOM      3  C   UNL     1      -7.152   2.491 125.262  0.00  0.00    +0.000 C 
ATOM      4  C   UNL     1      -7.735   3.579 126.191  0.00  0.00    +0.000 C 
ATOM      5  C   UNL     1      -7.632   2.593 123.781  0.00  0.00    +0.000 C 
ATOM      6  C   UNL     1      -9.155   2.424 123.871  0.00  0.00    +0.000 C 
ATOM      7  C   UNL     1      -9.302   1.419 125.024  0.00  0.00    +0.000 C 
ATOM      8  C   UNL     1      -7.755   1.061 125.456  0.00  0.00    +0.000 C 
ATOM      9  C   UNL     1      -7.115   0.225 124.185  0.00  0.00    +0.000 C 
ATOM     10  C   UNL     1      -7.113   1.308 123.087  0.00  0.00    +0.000 C 
BRANCH   9  11
ATOM     11  O   UNL     1      -8.259  -0.608 124.339  0.00  0.00    +0.000 OA
ATOM     12  H   UNL     1      -7.804  -1.384 123.942  0.00  0.00    +0.000 HD
ENDBRANCH   9  11
BRANCH   9  13
ATOM     13  C   UNL     1      -6.510  -1.103 123.553  0.00  0.00    +0.000 C 
BRANCH  13  14
ATOM     14  C   UNL     1      -7.447  -2.145 123.144  0.00  0.00    +0.000 C 
ATOM     15  O   UNL     1      -8.113  -2.089 122.088  0.00  0.00    +0.000 OA
BRANCH  14  16
ATOM     16  O   UNL     1      -7.499  -3.197 123.985  0.00  0.00    +0.000 OA
ATOM     17  H   UNL     1      -6.746  -3.825 123.893  0.00  0.00    +0.000 HD
ENDBRANCH  14  16
ENDBRANCH  13  14
ENDBRANCH   9  13
ENDBRANCH   1   8
BRANCH   1  18
ATOM     18  S   UNL     1      -6.550  -0.902 127.261  0.00  0.00    +0.000 S 
ATOM     19  O   UNL     1      -7.002  -2.160 126.655  0.00  0.00    +0.000 OA
ATOM     20  O   UNL     1      -5.278  -0.387 126.854  0.00  0.00    +0.000 OA
BRANCH  18  21
ATOM     21  N   UNL     1      -6.335  -1.056 128.912  0.00  0.00    +0.000 NA
ATOM     22  C   UNL     1      -7.382  -1.840 129.644  0.00  0.00    +0.000 C 
ATOM     23  C   UNL     1      -6.969  -3.272 129.709  0.00  0.00    +0.000 C 
ATOM     24  C   UNL     1      -5.383  -3.383 130.548  0.00  0.00    +0.000 C 
ATOM     25  C   UNL     1      -6.138  -4.639 130.884  0.00  0.00    +0.000 C 
ATOM     26  C   UNL     1      -5.298  -5.619 131.165  0.00  0.00    +0.000 C 
ATOM     27  C   UNL     1      -4.879  -4.962 132.365  0.00  0.00    +0.000 A 
ATOM     28  C   UNL     1      -5.593  -5.121 133.600  0.00  0.00    +0.000 A 
ATOM     29  C   UNL     1      -5.239  -4.506 134.772  0.00  0.00    +0.000 A 
ATOM     30  C   UNL     1      -4.083  -3.797 134.634  0.00  0.00    +0.000 A 
ATOM     31  C   UNL     1      -3.660  -3.361 133.246  0.00  0.00    +0.000 A 
ATOM     32  C   UNL     1      -4.276  -3.787 131.978  0.00  0.00    +0.000 A 
ATOM     33  C   UNL     1      -4.683  -3.092 129.190  0.00  0.00    +0.000 C 
ATOM     34  C   UNL     1      -4.900  -1.554 129.186  0.00  0.00    +0.000 C 
ENDBRANCH  18  21
ENDBRANCH   1  18
TORSDOF 7
ENDMDL
