MODEL 1
REMARK VINA RESULT:      -8.4      0.000      0.000
REMARK  Name = CHEMBL602545
REMARK  7 active torsions:
REMARK  status: ('A' for Active; 'I' for Inactive)
REMARK    1  A    between atoms: C_1  and  O_2
REMARK    2  A    between atoms: O_2  and  C_3
REMARK    3  A    between atoms: C_6  and  N_7
REMARK    4  A    between atoms: C_8  and  C_9
REMARK    5  A    between atoms: C_16  and  O_17
REMARK    6  A    between atoms: O_17  and  C_18
REMARK    7  A    between atoms: C_24  and  C_25
REMARK                            x       y       z     vdW  Elec       q    Type
REMARK                         _______ _______ _______ _____ _____    ______ ____
ROOT
ATOM      1  N   UNL     1      -7.199   0.138 127.728  0.00  0.00    +0.000 N 
ATOM      2  C   UNL     1      -7.099   0.227 129.125  0.00  0.00    +0.000 A 
ATOM      3  C   UNL     1      -7.309  -0.824 130.161  0.00  0.00    +0.000 C 
ATOM      4  N   UNL     1      -6.647   1.420 129.447  0.00  0.00    +0.000 NA
ATOM      5  N   UNL     1      -6.436   2.130 128.301  0.00  0.00    +0.000 NA
ATOM      6  C   UNL     1      -6.823   1.411 127.282  0.00  0.00    +0.000 A 
ATOM      7  N   UNL     1      -6.793   1.799 125.970  0.00  0.00    +0.000 N 
ATOM      8  C   UNL     1      -5.590   2.418 125.475  0.00  0.00    +0.000 C 
ATOM      9  C   UNL     1      -5.882   3.855 125.016  0.00  0.00    +0.000 C 
ATOM     10  C   UNL     1      -6.865   3.808 123.854  0.00  0.00    +0.000 C 
ATOM     11  C   UNL     1      -8.145   3.153 124.433  0.00  0.00    +0.000 C 
ATOM     12  C   UNL     1      -7.891   1.746 125.019  0.00  0.00    +0.000 C 
ENDROOT
BRANCH   1  16
ATOM     13  C   UNL     1      -8.370  -2.884 125.102  0.00  0.00    +0.000 A 
ATOM     14  C   UNL     1      -7.012  -2.704 125.316  0.00  0.00    +0.000 A 
ATOM     15  C   UNL     1      -6.602  -1.726 126.231  0.00  0.00    +0.000 A 
ATOM     16  C   UNL     1      -7.562  -0.957 126.906  0.00  0.00    +0.000 A 
ATOM     17  C   UNL     1      -8.891  -1.177 126.589  0.00  0.00    +0.000 A 
ATOM     18  N   UNL     1      -9.309  -2.119 125.702  0.00  0.00    +0.000 NA
BRANCH  13  20
ATOM     19  C   UNL     1      -9.640  -3.178 123.158  0.00  0.00    +0.000 C 
ATOM     20  O   UNL     1      -8.854  -3.782 124.185  0.00  0.00    +0.000 OA
ENDBRANCH  13  20
ENDBRANCH   1  16
BRANCH  10  21
ATOM     21  O   UNL     1      -6.353   3.038 122.727  0.00  0.00    +0.000 OA
BRANCH  21  22
ATOM     22  C   UNL     1      -6.300   3.684 121.503  0.00  0.00    +0.000 A 
ATOM     23  C   UNL     1      -5.123   4.405 121.214  0.00  0.00    +0.000 A 
ATOM     24  C   UNL     1      -5.016   5.173 120.040  0.00  0.00    +0.000 A 
ATOM     25  C   UNL     1      -6.066   5.204 119.134  0.00  0.00    +0.000 A 
ATOM     26  C   UNL     1      -7.232   4.529 119.433  0.00  0.00    +0.000 A 
ATOM     27  F   UNL     1      -8.246   4.599 118.557  0.00  0.00    +0.000 F 
ATOM     28  C   UNL     1      -7.405   3.825 120.631  0.00  0.00    +0.000 A 
ATOM     29  C   UNL     1      -8.820   3.391 120.866  0.00  0.00    +0.000 C 
ENDBRANCH  21  22
ENDBRANCH  10  21
TORSDOF 4
ENDMDL
MODEL 2
REMARK VINA RESULT:      -8.0      5.654      7.504
REMARK  Name = CHEMBL602545
REMARK  7 active torsions:
REMARK  status: ('A' for Active; 'I' for Inactive)
REMARK    1  A    between atoms: C_1  and  O_2
REMARK    2  A    between atoms: O_2  and  C_3
REMARK    3  A    between atoms: C_6  and  N_7
REMARK    4  A    between atoms: C_8  and  C_9
REMARK    5  A    between atoms: C_16  and  O_17
REMARK    6  A    between atoms: O_17  and  C_18
REMARK    7  A    between atoms: C_24  and  C_25
REMARK                            x       y       z     vdW  Elec       q    Type
REMARK                         _______ _______ _______ _____ _____    ______ ____
ROOT
ATOM      1  N   UNL     1      -6.824   2.719 127.584  0.00  0.00    +0.000 N 
ATOM      2  C   UNL     1      -5.423   2.684 127.531  0.00  0.00    +0.000 A 
ATOM      3  C   UNL     1      -4.526   1.974 126.574  0.00  0.00    +0.000 C 
ATOM      4  N   UNL     1      -4.939   3.512 128.431  0.00  0.00    +0.000 NA
ATOM      5  N   UNL     1      -5.982   4.106 129.081  0.00  0.00    +0.000 NA
ATOM      6  C   UNL     1      -7.099   3.596 128.640  0.00  0.00    +0.000 A 
ATOM      7  N   UNL     1      -8.355   3.922 129.075  0.00  0.00    +0.000 N 
ATOM      8  C   UNL     1      -8.684   5.317 129.214  0.00  0.00    +0.000 C 
ATOM      9  C   UNL     1      -9.006   5.645 130.679  0.00  0.00    +0.000 C 
ATOM     10  C   UNL     1     -10.241   4.858 131.096  0.00  0.00    +0.000 C 
ATOM     11  C   UNL     1      -9.841   3.367 130.950  0.00  0.00    +0.000 C 
ATOM     12  C   UNL     1      -9.391   3.002 129.517  0.00  0.00    +0.000 C 
ENDROOT
BRANCH   1  16
ATOM     13  C   UNL     1      -9.456   0.814 124.968  0.00  0.00    +0.000 A 
ATOM     14  C   UNL     1      -8.922   0.066 126.006  0.00  0.00    +0.000 A 
ATOM     15  C   UNL     1      -8.074   0.701 126.921  0.00  0.00    +0.000 A 
ATOM     16  C   UNL     1      -7.786   2.066 126.774  0.00  0.00    +0.000 A 
ATOM     17  C   UNL     1      -8.328   2.716 125.678  0.00  0.00    +0.000 A 
ATOM     18  N   UNL     1      -9.150   2.117 124.776  0.00  0.00    +0.000 NA
BRANCH  13  20
ATOM     19  C   UNL     1     -10.121   0.890 122.724  0.00  0.00    +0.000 C 
ATOM     20  O   UNL     1     -10.251   0.258 123.998  0.00  0.00    +0.000 OA
ENDBRANCH  13  20
ENDBRANCH   1  16
BRANCH  10  21
ATOM     21  O   UNL     1     -11.401   5.166 130.268  0.00  0.00    +0.000 OA
BRANCH  21  22
ATOM     22  C   UNL     1     -11.867   6.469 130.308  0.00  0.00    +0.000 A 
ATOM     23  C   UNL     1     -12.388   6.922 131.539  0.00  0.00    +0.000 A 
ATOM     24  C   UNL     1     -12.974   8.196 131.650  0.00  0.00    +0.000 A 
ATOM     25  C   UNL     1     -13.019   9.037 130.548  0.00  0.00    +0.000 A 
ATOM     26  C   UNL     1     -12.544   8.581 129.335  0.00  0.00    +0.000 A 
ATOM     27  F   UNL     1     -12.626   9.400 128.275  0.00  0.00    +0.000 F 
ATOM     28  C   UNL     1     -12.032   7.289 129.168  0.00  0.00    +0.000 A 
ATOM     29  C   UNL     1     -11.817   6.917 127.731  0.00  0.00    +0.000 C 
ENDBRANCH  21  22
ENDBRANCH  10  21
TORSDOF 4
ENDMDL
MODEL 3
REMARK VINA RESULT:      -8.0      5.231      7.707
REMARK  Name = CHEMBL602545
REMARK  7 active torsions:
REMARK  status: ('A' for Active; 'I' for Inactive)
REMARK    1  A    between atoms: C_1  and  O_2
REMARK    2  A    between atoms: O_2  and  C_3
REMARK    3  A    between atoms: C_6  and  N_7
REMARK    4  A    between atoms: C_8  and  C_9
REMARK    5  A    between atoms: C_16  and  O_17
REMARK    6  A    between atoms: O_17  and  C_18
REMARK    7  A    between atoms: C_24  and  C_25
REMARK                            x       y       z     vdW  Elec       q    Type
REMARK                         _______ _______ _______ _____ _____    ______ ____
ROOT
ATOM      1  N   UNL     1      -4.717   3.597 127.613  0.00  0.00    +0.000 N 
ATOM      2  C   UNL     1      -3.410   3.406 128.085  0.00  0.00    +0.000 A 
ATOM      3  C   UNL     1      -2.161   3.103 127.326  0.00  0.00    +0.000 C 
ATOM      4  N   UNL     1      -3.378   3.658 129.375  0.00  0.00    +0.000 NA
ATOM      5  N   UNL     1      -4.631   4.020 129.779  0.00  0.00    +0.000 NA
ATOM      6  C   UNL     1      -5.445   3.921 128.765  0.00  0.00    +0.000 A 
ATOM      7  N   UNL     1      -6.790   4.173 128.790  0.00  0.00    +0.000 N 
ATOM      8  C   UNL     1      -7.242   5.379 129.434  0.00  0.00    +0.000 C 
ATOM      9  C   UNL     1      -8.138   5.038 130.634  0.00  0.00    +0.000 C 
ATOM     10  C   UNL     1      -9.380   4.318 130.128  0.00  0.00    +0.000 C 
ATOM     11  C   UNL     1      -8.853   3.022 129.460  0.00  0.00    +0.000 C 
ATOM     12  C   UNL     1      -7.851   3.298 128.316  0.00  0.00    +0.000 C 
ENDROOT
BRANCH   1  16
ATOM     13  C   UNL     1      -6.506   3.287 123.858  0.00  0.00    +0.000 A 
ATOM     14  C   UNL     1      -6.160   4.553 124.307  0.00  0.00    +0.000 A 
ATOM     15  C   UNL     1      -5.515   4.671 125.544  0.00  0.00    +0.000 A 
ATOM     16  C   UNL     1      -5.234   3.521 126.297  0.00  0.00    +0.000 A 
ATOM     17  C   UNL     1      -5.662   2.307 125.788  0.00  0.00    +0.000 A 
ATOM     18  N   UNL     1      -6.293   2.171 124.590  0.00  0.00    +0.000 NA
BRANCH  13  20
ATOM     19  C   UNL     1      -8.562   2.754 122.874  0.00  0.00    +0.000 C 
ATOM     20  O   UNL     1      -7.187   3.087 122.684  0.00  0.00    +0.000 OA
ENDBRANCH  13  20
ENDBRANCH   1  16
BRANCH  10  21
ATOM     21  O   UNL     1     -10.137   5.121 129.175  0.00  0.00    +0.000 OA
BRANCH  21  22
ATOM     22  C   UNL     1     -10.903   6.149 129.696  0.00  0.00    +0.000 A 
ATOM     23  C   UNL     1     -11.568   5.896 130.914  0.00  0.00    +0.000 A 
ATOM     24  C   UNL     1     -12.446   6.845 131.469  0.00  0.00    +0.000 A 
ATOM     25  C   UNL     1     -12.645   8.061 130.833  0.00  0.00    +0.000 A 
ATOM     26  C   UNL     1     -12.024   8.296 129.623  0.00  0.00    +0.000 A 
ATOM     27  F   UNL     1     -12.254   9.467 129.010  0.00  0.00    +0.000 F 
ATOM     28  C   UNL     1     -11.211   7.341 128.999  0.00  0.00    +0.000 A 
ATOM     29  C   UNL     1     -10.853   7.698 127.588  0.00  0.00    +0.000 C 
ENDBRANCH  21  22
ENDBRANCH  10  21
TORSDOF 4
ENDMDL
MODEL 4
REMARK VINA RESULT:      -7.9      6.947      9.085
REMARK  Name = CHEMBL602545
REMARK  7 active torsions:
REMARK  status: ('A' for Active; 'I' for Inactive)
REMARK    1  A    between atoms: C_1  and  O_2
REMARK    2  A    between atoms: O_2  and  C_3
REMARK    3  A    between atoms: C_6  and  N_7
REMARK    4  A    between atoms: C_8  and  C_9
REMARK    5  A    between atoms: C_16  and  O_17
REMARK    6  A    between atoms: O_17  and  C_18
REMARK    7  A    between atoms: C_24  and  C_25
REMARK                            x       y       z     vdW  Elec       q    Type
REMARK                         _______ _______ _______ _____ _____    ______ ____
ROOT
ATOM      1  N   UNL     1      -4.096   4.875 131.706  0.00  0.00    +0.000 N 
ATOM      2  C   UNL     1      -3.143   4.977 132.731  0.00  0.00    +0.000 A 
ATOM      3  C   UNL     1      -1.662   4.811 132.671  0.00  0.00    +0.000 C 
ATOM      4  N   UNL     1      -3.738   5.385 133.831  0.00  0.00    +0.000 NA
ATOM      5  N   UNL     1      -5.065   5.564 133.567  0.00  0.00    +0.000 NA
ATOM      6  C   UNL     1      -5.303   5.200 132.336  0.00  0.00    +0.000 A 
ATOM      7  N   UNL     1      -6.525   5.210 131.720  0.00  0.00    +0.000 N 
ATOM      8  C   UNL     1      -7.345   6.386 131.860  0.00  0.00    +0.000 C 
ATOM      9  C   UNL     1      -8.654   6.038 132.585  0.00  0.00    +0.000 C 
ATOM     10  C   UNL     1      -9.439   5.053 131.730  0.00  0.00    +0.000 C 
ATOM     11  C   UNL     1      -8.533   3.800 131.618  0.00  0.00    +0.000 C 
ATOM     12  C   UNL     1      -7.149   4.110 131.002  0.00  0.00    +0.000 C 
ENDROOT
BRANCH   1  16
ATOM     13  C   UNL     1      -3.329   4.011 127.698  0.00  0.00    +0.000 A 
ATOM     14  C   UNL     1      -3.562   2.947 128.556  0.00  0.00    +0.000 A 
ATOM     15  C   UNL     1      -3.869   3.220 129.895  0.00  0.00    +0.000 A 
ATOM     16  C   UNL     1      -3.934   4.550 130.337  0.00  0.00    +0.000 A 
ATOM     17  C   UNL     1      -3.637   5.542 129.418  0.00  0.00    +0.000 A 
ATOM     18  N   UNL     1      -3.334   5.297 128.115  0.00  0.00    +0.000 NA
BRANCH  13  20
ATOM     19  C   UNL     1      -1.736   3.130 126.225  0.00  0.00    +0.000 C 
ATOM     20  O   UNL     1      -2.970   3.829 126.386  0.00  0.00    +0.000 OA
ENDBRANCH  13  20
ENDBRANCH   1  16
BRANCH  10  21
ATOM     21  O   UNL     1      -9.748   5.588 130.409  0.00  0.00    +0.000 OA
BRANCH  21  22
ATOM     22  C   UNL     1     -10.736   6.555 130.343  0.00  0.00    +0.000 A 
ATOM     23  C   UNL     1     -11.654   6.603 131.413  0.00  0.00    +0.000 A 
ATOM     24  C   UNL     1     -12.750   7.485 131.386  0.00  0.00    +0.000 A 
ATOM     25  C   UNL     1     -12.922   8.345 130.311  0.00  0.00    +0.000 A 
ATOM     26  C   UNL     1     -12.046   8.274 129.248  0.00  0.00    +0.000 A 
ATOM     27  F   UNL     1     -12.249   9.093 128.205  0.00  0.00    +0.000 F 
ATOM     28  C   UNL     1     -10.995   7.349 129.202  0.00  0.00    +0.000 A 
ATOM     29  C   UNL     1     -10.334   7.268 127.858  0.00  0.00    +0.000 C 
ENDBRANCH  21  22
ENDBRANCH  10  21
TORSDOF 4
ENDMDL
MODEL 5
REMARK VINA RESULT:      -7.9      6.094      7.245
REMARK  Name = CHEMBL602545
REMARK  7 active torsions:
REMARK  status: ('A' for Active; 'I' for Inactive)
REMARK    1  A    between atoms: C_1  and  O_2
REMARK    2  A    between atoms: O_2  and  C_3
REMARK    3  A    between atoms: C_6  and  N_7
REMARK    4  A    between atoms: C_8  and  C_9
REMARK    5  A    between atoms: C_16  and  O_17
REMARK    6  A    between atoms: O_17  and  C_18
REMARK    7  A    between atoms: C_24  and  C_25
REMARK                            x       y       z     vdW  Elec       q    Type
REMARK                         _______ _______ _______ _____ _____    ______ ____
ROOT
ATOM      1  N   UNL     1      -6.569  -2.808 130.513  0.00  0.00    +0.000 N 
ATOM      2  C   UNL     1      -5.870  -3.808 131.205  0.00  0.00    +0.000 A 
ATOM      3  C   UNL     1      -5.582  -5.216 130.806  0.00  0.00    +0.000 C 
ATOM      4  N   UNL     1      -5.349  -3.290 132.296  0.00  0.00    +0.000 NA
ATOM      5  N   UNL     1      -5.677  -1.966 132.349  0.00  0.00    +0.000 NA
ATOM      6  C   UNL     1      -6.455  -1.684 131.339  0.00  0.00    +0.000 A 
ATOM      7  N   UNL     1      -7.010  -0.462 131.073  0.00  0.00    +0.000 N 
ATOM      8  C   UNL     1      -6.160   0.699 131.144  0.00  0.00    +0.000 C 
ATOM      9  C   UNL     1      -6.654   1.654 132.240  0.00  0.00    +0.000 C 
ATOM     10  C   UNL     1      -8.046   2.148 131.867  0.00  0.00    +0.000 C 
ATOM     11  C   UNL     1      -8.929   0.876 131.819  0.00  0.00    +0.000 C 
ATOM     12  C   UNL     1      -8.413  -0.179 130.814  0.00  0.00    +0.000 C 
ENDROOT
BRANCH   1  16
ATOM     13  C   UNL     1      -8.299  -3.138 126.731  0.00  0.00    +0.000 A 
ATOM     14  C   UNL     1      -8.974  -3.703 127.802  0.00  0.00    +0.000 A 
ATOM     15  C   UNL     1      -8.432  -3.560 129.086  0.00  0.00    +0.000 A 
ATOM     16  C   UNL     1      -7.231  -2.856 129.261  0.00  0.00    +0.000 A 
ATOM     17  C   UNL     1      -6.606  -2.371 128.125  0.00  0.00    +0.000 A 
ATOM     18  N   UNL     1      -7.114  -2.502 126.870  0.00  0.00    +0.000 NA
BRANCH  13  20
ATOM     19  C   UNL     1      -7.693  -3.633 124.525  0.00  0.00    +0.000 C 
ATOM     20  O   UNL     1      -8.732  -3.277 125.437  0.00  0.00    +0.000 OA
ENDBRANCH  13  20
ENDBRANCH   1  16
BRANCH  10  21
ATOM     21  O   UNL     1      -8.063   2.840 130.584  0.00  0.00    +0.000 OA
BRANCH  21  22
ATOM     22  C   UNL     1      -8.401   4.182 130.603  0.00  0.00    +0.000 A 
ATOM     23  C   UNL     1      -7.378   5.093 130.941  0.00  0.00    +0.000 A 
ATOM     24  C   UNL     1      -7.650   6.466 131.082  0.00  0.00    +0.000 A 
ATOM     25  C   UNL     1      -8.933   6.944 130.860  0.00  0.00    +0.000 A 
ATOM     26  C   UNL     1      -9.942   6.050 130.565  0.00  0.00    +0.000 A 
ATOM     27  F   UNL     1     -11.181   6.532 130.384  0.00  0.00    +0.000 F 
ATOM     28  C   UNL     1      -9.725   4.669 130.500  0.00  0.00    +0.000 A 
ATOM     29  C   UNL     1     -10.993   3.872 130.426  0.00  0.00    +0.000 C 
ENDBRANCH  21  22
ENDBRANCH  10  21
TORSDOF 4
ENDMDL
MODEL 6
REMARK VINA RESULT:      -7.9      4.346      6.899
REMARK  Name = CHEMBL602545
REMARK  7 active torsions:
REMARK  status: ('A' for Active; 'I' for Inactive)
REMARK    1  A    between atoms: C_1  and  O_2
REMARK    2  A    between atoms: O_2  and  C_3
REMARK    3  A    between atoms: C_6  and  N_7
REMARK    4  A    between atoms: C_8  and  C_9
REMARK    5  A    between atoms: C_16  and  O_17
REMARK    6  A    between atoms: O_17  and  C_18
REMARK    7  A    between atoms: C_24  and  C_25
REMARK                            x       y       z     vdW  Elec       q    Type
REMARK                         _______ _______ _______ _____ _____    ______ ____
ROOT
ATOM      1  N   UNL     1      -8.535   4.346 129.968  0.00  0.00    +0.000 N 
ATOM      2  C   UNL     1      -9.059   5.633 130.159  0.00  0.00    +0.000 A 
ATOM      3  C   UNL     1      -9.330   6.370 131.426  0.00  0.00    +0.000 C 
ATOM      4  N   UNL     1      -9.192   6.219 128.988  0.00  0.00    +0.000 NA
ATOM      5  N   UNL     1      -8.765   5.358 128.019  0.00  0.00    +0.000 NA
ATOM      6  C   UNL     1      -8.440   4.224 128.576  0.00  0.00    +0.000 A 
ATOM      7  N   UNL     1      -7.994   3.108 127.921  0.00  0.00    +0.000 N 
ATOM      8  C   UNL     1      -6.964   3.272 126.927  0.00  0.00    +0.000 C 
ATOM      9  C   UNL     1      -7.484   2.845 125.547  0.00  0.00    +0.000 C 
ATOM     10  C   UNL     1      -7.823   1.361 125.590  0.00  0.00    +0.000 C 
ATOM     11  C   UNL     1      -8.942   1.231 126.654  0.00  0.00    +0.000 C 
ATOM     12  C   UNL     1      -8.516   1.757 128.044  0.00  0.00    +0.000 C 
ENDROOT
BRANCH   1  16
ATOM     13  C   UNL     1      -7.340   1.690 132.955  0.00  0.00    +0.000 A 
ATOM     14  C   UNL     1      -8.682   1.710 132.606  0.00  0.00    +0.000 A 
ATOM     15  C   UNL     1      -9.093   2.561 131.572  0.00  0.00    +0.000 A 
ATOM     16  C   UNL     1      -8.150   3.366 130.916  0.00  0.00    +0.000 A 
ATOM     17  C   UNL     1      -6.843   3.313 131.368  0.00  0.00    +0.000 A 
ATOM     18  N   UNL     1      -6.425   2.496 132.372  0.00  0.00    +0.000 NA
BRANCH  13  20
ATOM     19  C   UNL     1      -6.093  -0.196 133.561  0.00  0.00    +0.000 C 
ATOM     20  O   UNL     1      -6.863   0.926 133.990  0.00  0.00    +0.000 OA
ENDBRANCH  13  20
ENDBRANCH   1  16
BRANCH  10  21
ATOM     21  O   UNL     1      -6.671   0.540 125.945  0.00  0.00    +0.000 OA
BRANCH  21  22
ATOM     22  C   UNL     1      -6.327  -0.468 125.061  0.00  0.00    +0.000 A 
ATOM     23  C   UNL     1      -6.785  -0.336 123.733  0.00  0.00    +0.000 A 
ATOM     24  C   UNL     1      -6.569  -1.356 122.789  0.00  0.00    +0.000 A 
ATOM     25  C   UNL     1      -5.871  -2.499 123.151  0.00  0.00    +0.000 A 
ATOM     26  C   UNL     1      -5.454  -2.646 124.458  0.00  0.00    +0.000 A 
ATOM     27  F   UNL     1      -4.807  -3.773 124.793  0.00  0.00    +0.000 F 
ATOM     28  C   UNL     1      -5.726  -1.690 125.445  0.00  0.00    +0.000 A 
ATOM     29  C   UNL     1      -5.415  -2.164 126.832  0.00  0.00    +0.000 C 
ENDBRANCH  21  22
ENDBRANCH  10  21
TORSDOF 4
ENDMDL
MODEL 7
REMARK VINA RESULT:      -7.9      4.079      7.558
REMARK  Name = CHEMBL602545
REMARK  7 active torsions:
REMARK  status: ('A' for Active; 'I' for Inactive)
REMARK    1  A    between atoms: C_1  and  O_2
REMARK    2  A    between atoms: O_2  and  C_3
REMARK    3  A    between atoms: C_6  and  N_7
REMARK    4  A    between atoms: C_8  and  C_9
REMARK    5  A    between atoms: C_16  and  O_17
REMARK    6  A    between atoms: O_17  and  C_18
REMARK    7  A    between atoms: C_24  and  C_25
REMARK                            x       y       z     vdW  Elec       q    Type
REMARK                         _______ _______ _______ _____ _____    ______ ____
ROOT
ATOM      1  N   UNL     1      -6.717   2.856 123.236  0.00  0.00    +0.000 N 
ATOM      2  C   UNL     1      -5.992   3.587 122.284  0.00  0.00    +0.000 A 
ATOM      3  C   UNL     1      -5.957   3.442 120.800  0.00  0.00    +0.000 C 
ATOM      4  N   UNL     1      -5.376   4.583 122.885  0.00  0.00    +0.000 NA
ATOM      5  N   UNL     1      -5.675   4.539 124.216  0.00  0.00    +0.000 NA
ATOM      6  C   UNL     1      -6.409   3.485 124.449  0.00  0.00    +0.000 A 
ATOM      7  N   UNL     1      -6.880   3.092 125.672  0.00  0.00    +0.000 N 
ATOM      8  C   UNL     1      -7.490   4.088 126.515  0.00  0.00    +0.000 C 
ATOM      9  C   UNL     1      -6.689   4.248 127.815  0.00  0.00    +0.000 C 
ATOM     10  C   UNL     1      -6.734   2.933 128.582  0.00  0.00    +0.000 C 
ATOM     11  C   UNL     1      -6.054   1.897 127.651  0.00  0.00    +0.000 C 
ATOM     12  C   UNL     1      -6.748   1.776 126.276  0.00  0.00    +0.000 C 
ENDROOT
BRANCH   1  16
ATOM     13  C   UNL     1      -9.231  -0.466 123.042  0.00  0.00    +0.000 A 
ATOM     14  C   UNL     1      -9.811   0.790 122.951  0.00  0.00    +0.000 A 
ATOM     15  C   UNL     1      -8.978   1.915 122.966  0.00  0.00    +0.000 A 
ATOM     16  C   UNL     1      -7.588   1.752 123.071  0.00  0.00    +0.000 A 
ATOM     17  C   UNL     1      -7.108   0.461 123.206  0.00  0.00    +0.000 A 
ATOM     18  N   UNL     1      -7.900  -0.644 123.197  0.00  0.00    +0.000 NA
BRANCH  13  20
ATOM     19  C   UNL     1      -9.217  -2.775 123.427  0.00  0.00    +0.000 C 
ATOM     20  O   UNL     1      -9.978  -1.616 123.088  0.00  0.00    +0.000 OA
ENDBRANCH  13  20
ENDBRANCH   1  16
BRANCH  10  21
ATOM     21  O   UNL     1      -8.096   2.525 128.904  0.00  0.00    +0.000 OA
BRANCH  21  22
ATOM     22  C   UNL     1      -8.489   2.651 130.226  0.00  0.00    +0.000 A 
ATOM     23  C   UNL     1      -8.475   1.479 131.010  0.00  0.00    +0.000 A 
ATOM     24  C   UNL     1      -8.951   1.490 132.334  0.00  0.00    +0.000 A 
ATOM     25  C   UNL     1      -9.414   2.672 132.895  0.00  0.00    +0.000 A 
ATOM     26  C   UNL     1      -9.462   3.810 132.117  0.00  0.00    +0.000 A 
ATOM     27  F   UNL     1      -9.943   4.935 132.670  0.00  0.00    +0.000 F 
ATOM     28  C   UNL     1      -9.078   3.817 130.771  0.00  0.00    +0.000 A 
ATOM     29  C   UNL     1      -9.451   5.078 130.052  0.00  0.00    +0.000 C 
ENDBRANCH  21  22
ENDBRANCH  10  21
TORSDOF 4
ENDMDL
MODEL 8
REMARK VINA RESULT:      -7.9      6.026      7.391
REMARK  Name = CHEMBL602545
REMARK  7 active torsions:
REMARK  status: ('A' for Active; 'I' for Inactive)
REMARK    1  A    between atoms: C_1  and  O_2
REMARK    2  A    between atoms: O_2  and  C_3
REMARK    3  A    between atoms: C_6  and  N_7
REMARK    4  A    between atoms: C_8  and  C_9
REMARK    5  A    between atoms: C_16  and  O_17
REMARK    6  A    between atoms: O_17  and  C_18
REMARK    7  A    between atoms: C_24  and  C_25
REMARK                            x       y       z     vdW  Elec       q    Type
REMARK                         _______ _______ _______ _____ _____    ______ ____
ROOT
ATOM      1  N   UNL     1      -6.655  -2.832 130.534  0.00  0.00    +0.000 N 
ATOM      2  C   UNL     1      -5.917  -3.812 131.215  0.00  0.00    +0.000 A 
ATOM      3  C   UNL     1      -5.554  -5.194 130.789  0.00  0.00    +0.000 C 
ATOM      4  N   UNL     1      -5.439  -3.294 132.326  0.00  0.00    +0.000 NA
ATOM      5  N   UNL     1      -5.834  -1.989 132.403  0.00  0.00    +0.000 NA
ATOM      6  C   UNL     1      -6.610  -1.723 131.388  0.00  0.00    +0.000 A 
ATOM      7  N   UNL     1      -7.221  -0.524 131.141  0.00  0.00    +0.000 N 
ATOM      8  C   UNL     1      -6.432   0.675 131.252  0.00  0.00    +0.000 C 
ATOM      9  C   UNL     1      -6.989   1.579 132.362  0.00  0.00    +0.000 C 
ATOM     10  C   UNL     1      -8.398   2.012 131.978  0.00  0.00    +0.000 C 
ATOM     11  C   UNL     1      -9.216   0.699 131.887  0.00  0.00    +0.000 C 
ATOM     12  C   UNL     1      -8.633  -0.305 130.866  0.00  0.00    +0.000 C 
ENDROOT
BRANCH   1  16
ATOM     13  C   UNL     1      -8.316  -3.167 126.722  0.00  0.00    +0.000 A 
ATOM     14  C   UNL     1      -9.000  -3.748 127.779  0.00  0.00    +0.000 A 
ATOM     15  C   UNL     1      -8.482  -3.604 129.072  0.00  0.00    +0.000 A 
ATOM     16  C   UNL     1      -7.295  -2.883 129.271  0.00  0.00    +0.000 A 
ATOM     17  C   UNL     1      -6.659  -2.382 128.149  0.00  0.00    +0.000 A 
ATOM     18  N   UNL     1      -7.144  -2.514 126.885  0.00  0.00    +0.000 NA
BRANCH  13  20
ATOM     19  C   UNL     1      -7.645  -3.410 124.493  0.00  0.00    +0.000 C 
ATOM     20  O   UNL     1      -8.725  -3.305 125.420  0.00  0.00    +0.000 OA
ENDBRANCH  13  20
ENDBRANCH   1  16
BRANCH  10  21
ATOM     21  O   UNL     1      -8.430   2.732 130.710  0.00  0.00    +0.000 OA
BRANCH  21  22
ATOM     22  C   UNL     1      -9.078   3.955 130.705  0.00  0.00    +0.000 A 
ATOM     23  C   UNL     1     -10.479   3.935 130.544  0.00  0.00    +0.000 A 
ATOM     24  C   UNL     1     -11.211   5.131 130.428  0.00  0.00    +0.000 A 
ATOM     25  C   UNL     1     -10.559   6.352 130.499  0.00  0.00    +0.000 A 
ATOM     26  C   UNL     1      -9.184   6.374 130.619  0.00  0.00    +0.000 A 
ATOM     27  F   UNL     1      -8.571   7.567 130.655  0.00  0.00    +0.000 F 
ATOM     28  C   UNL     1      -8.415   5.204 130.652  0.00  0.00    +0.000 A 
ATOM     29  C   UNL     1      -6.943   5.457 130.524  0.00  0.00    +0.000 C 
ENDBRANCH  21  22
ENDBRANCH  10  21
TORSDOF 4
ENDMDL
MODEL 9
REMARK VINA RESULT:      -7.8      4.852      7.646
REMARK  Name = CHEMBL602545
REMARK  7 active torsions:
REMARK  status: ('A' for Active; 'I' for Inactive)
REMARK    1  A    between atoms: C_1  and  O_2
REMARK    2  A    between atoms: O_2  and  C_3
REMARK    3  A    between atoms: C_6  and  N_7
REMARK    4  A    between atoms: C_8  and  C_9
REMARK    5  A    between atoms: C_16  and  O_17
REMARK    6  A    between atoms: O_17  and  C_18
REMARK    7  A    between atoms: C_24  and  C_25
REMARK                            x       y       z     vdW  Elec       q    Type
REMARK                         _______ _______ _______ _____ _____    ______ ____
ROOT
ATOM      1  N   UNL     1      -8.381   2.961 131.950  0.00  0.00    +0.000 N 
ATOM      2  C   UNL     1      -8.116   3.085 133.322  0.00  0.00    +0.000 A 
ATOM      3  C   UNL     1      -8.557   4.138 134.283  0.00  0.00    +0.000 C 
ATOM      4  N   UNL     1      -7.472   2.015 133.734  0.00  0.00    +0.000 NA
ATOM      5  N   UNL     1      -7.304   1.173 132.672  0.00  0.00    +0.000 NA
ATOM      6  C   UNL     1      -7.773   1.749 131.599  0.00  0.00    +0.000 A 
ATOM      7  N   UNL     1      -7.755   1.225 130.335  0.00  0.00    +0.000 N 
ATOM      8  C   UNL     1      -8.176  -0.142 130.163  0.00  0.00    +0.000 C 
ATOM      9  C   UNL     1      -7.016  -0.992 129.623  0.00  0.00    +0.000 C 
ATOM     10  C   UNL     1      -6.631  -0.472 128.244  0.00  0.00    +0.000 C 
ATOM     11  C   UNL     1      -6.169   0.989 128.476  0.00  0.00    +0.000 C 
ATOM     12  C   UNL     1      -7.259   1.869 129.130  0.00  0.00    +0.000 C 
ENDROOT
BRANCH   1  16
ATOM     13  C   UNL     1     -10.699   5.527 129.618  0.00  0.00    +0.000 A 
ATOM     14  C   UNL     1      -9.403   5.919 129.916  0.00  0.00    +0.000 A 
ATOM     15  C   UNL     1      -8.594   5.048 130.658  0.00  0.00    +0.000 A 
ATOM     16  C   UNL     1      -9.105   3.811 131.078  0.00  0.00    +0.000 A 
ATOM     17  C   UNL     1     -10.426   3.531 130.773  0.00  0.00    +0.000 A 
ATOM     18  N   UNL     1     -11.228   4.364 130.058  0.00  0.00    +0.000 NA
BRANCH  13  20
ATOM     19  C   UNL     1     -12.734   6.681 129.701  0.00  0.00    +0.000 C 
ATOM     20  O   UNL     1     -11.573   6.342 128.943  0.00  0.00    +0.000 OA
ENDBRANCH  13  20
ENDBRANCH   1  16
BRANCH  10  21
ATOM     21  O   UNL     1      -7.743  -0.522 127.302  0.00  0.00    +0.000 OA
BRANCH  21  22
ATOM     22  C   UNL     1      -7.587  -1.339 126.196  0.00  0.00    +0.000 A 
ATOM     23  C   UNL     1      -7.134  -0.726 125.009  0.00  0.00    +0.000 A 
ATOM     24  C   UNL     1      -7.040  -1.456 123.809  0.00  0.00    +0.000 A 
ATOM     25  C   UNL     1      -7.367  -2.803 123.790  0.00  0.00    +0.000 A 
ATOM     26  C   UNL     1      -7.845  -3.395 124.941  0.00  0.00    +0.000 A 
ATOM     27  F   UNL     1      -8.184  -4.692 124.892  0.00  0.00    +0.000 F 
ATOM     28  C   UNL     1      -8.033  -2.680 126.130  0.00  0.00    +0.000 A 
ATOM     29  C   UNL     1      -8.797  -3.444 127.169  0.00  0.00    +0.000 C 
ENDBRANCH  21  22
ENDBRANCH  10  21
TORSDOF 4
ENDMDL
