MODEL 1
REMARK VINA RESULT:      -9.4      0.000      0.000
REMARK  Name = CHEMBL458634
REMARK  10 active torsions:
REMARK  status: ('A' for Active; 'I' for Inactive)
REMARK    1  A    between atoms: C_1  and  O_2
REMARK    2  A    between atoms: O_2  and  C_3
REMARK    3  A    between atoms: C_6  and  S_7
REMARK    4  A    between atoms: S_7  and  N_10
REMARK    5  A    between atoms: N_10  and  C_11
REMARK    6  A    between atoms: N_10  and  C_25
REMARK    7  A    between atoms: C_11  and  C_12
REMARK    8  A    between atoms: C_15  and  C_16
REMARK    9  A    between atoms: C_28  and  O_29
REMARK   10  A    between atoms: O_29  and  C_30
REMARK                            x       y       z     vdW  Elec       q    Type
REMARK                         _______ _______ _______ _____ _____    ______ ____
ROOT
ATOM      1  N   UNL     1      -9.286   6.081 130.365  0.00  0.00    +0.000 N 
ENDROOT
BRANCH   1   2
ATOM      2  C   UNL     1     -10.411   6.996 129.974  0.00  0.00    +0.000 A 
ATOM      3  C   UNL     1     -11.523   7.193 130.796  0.00  0.00    +0.000 A 
ATOM      4  C   UNL     1     -12.538   8.090 130.462  0.00  0.00    +0.000 A 
ATOM      5  C   UNL     1     -12.435   8.826 129.299  0.00  0.00    +0.000 A 
ATOM      6  N   UNL     1     -11.387   8.671 128.461  0.00  0.00    +0.000 NA
ATOM      7  C   UNL     1     -10.419   7.764 128.809  0.00  0.00    +0.000 A 
BRANCH   5   8
ATOM      8  O   UNL     1     -13.352   9.768 128.907  0.00  0.00    +0.000 OA
ATOM      9  C   UNL     1     -13.504  10.889 129.778  0.00  0.00    +0.000 C 
ENDBRANCH   5   8
ENDBRANCH   1   2
BRANCH   1  10
ATOM     10  S   UNL     1      -9.782   4.385 130.179  0.00  0.00    +0.000 S 
ATOM     11  O   UNL     1      -8.965   3.849 129.125  0.00  0.00    +0.000 OA
ATOM     12  O   UNL     1     -11.249   4.337 130.121  0.00  0.00    +0.000 OA
BRANCH  10  16
ATOM     13  C   UNL     1      -8.089   1.006 132.454  0.00  0.00    +0.000 A 
ATOM     14  C   UNL     1      -7.890   2.195 133.087  0.00  0.00    +0.000 A 
ATOM     15  C   UNL     1      -8.557   3.397 132.581  0.00  0.00    +0.000 A 
ATOM     16  C   UNL     1      -9.421   3.353 131.492  0.00  0.00    +0.000 A 
ATOM     17  C   UNL     1     -10.175   2.291 131.498  0.00  0.00    +0.000 A 
ATOM     18  C   UNL     1      -9.287   1.291 131.798  0.00  0.00    +0.000 A 
BRANCH  13  20
ATOM     19  C   UNL     1      -7.608  -1.743 133.063  0.00  0.00    +0.000 C 
ATOM     20  O   UNL     1      -7.378  -0.204 132.712  0.00  0.00    +0.000 OA
ENDBRANCH  13  20
ENDBRANCH  10  16
ENDBRANCH   1  10
BRANCH   1  21
ATOM     21  C   UNL     1      -8.063   6.841 131.064  0.00  0.00    +0.000 C 
BRANCH  21  22
ATOM     22  C   UNL     1      -6.451   6.512 131.091  0.00  0.00    +0.000 A 
ATOM     23  C   UNL     1      -5.919   5.955 132.345  0.00  0.00    +0.000 A 
ATOM     24  C   UNL     1      -4.573   6.221 132.857  0.00  0.00    +0.000 A 
ATOM     25  C   UNL     1      -3.660   7.000 132.109  0.00  0.00    +0.000 A 
ATOM     26  C   UNL     1      -4.224   7.284 130.584  0.00  0.00    +0.000 A 
ATOM     27  N   UNL     1      -5.588   7.059 130.150  0.00  0.00    +0.000 NA
BRANCH  25  28
ATOM     28  C   UNL     1      -2.527   7.885 133.175  0.00  0.00    +0.000 A 
ATOM     29  C   UNL     1      -2.453   9.278 133.808  0.00  0.00    +0.000 A 
ATOM     30  C   UNL     1      -1.307  10.123 133.709  0.00  0.00    +0.000 A 
ATOM     31  C   UNL     1      -0.132   9.507 133.368  0.00  0.00    +0.000 A 
ATOM     32  C   UNL     1      -0.136   8.118 133.136  0.00  0.00    +0.000 A 
ATOM     33  C   UNL     1      -1.282   7.304 133.107  0.00  0.00    +0.000 A 
ATOM     34 CL   UNL     1      -1.112   5.696 132.494  0.00  0.00    +0.000 Cl
ENDBRANCH  25  28
ENDBRANCH  21  22
ENDBRANCH   1  21
TORSDOF 8
ENDMDL
MODEL 2
REMARK VINA RESULT:      -9.4      7.334     10.235
REMARK  Name = CHEMBL458634
REMARK  10 active torsions:
REMARK  status: ('A' for Active; 'I' for Inactive)
REMARK    1  A    between atoms: C_1  and  O_2
REMARK    2  A    between atoms: O_2  and  C_3
REMARK    3  A    between atoms: C_6  and  S_7
REMARK    4  A    between atoms: S_7  and  N_10
REMARK    5  A    between atoms: N_10  and  C_11
REMARK    6  A    between atoms: N_10  and  C_25
REMARK    7  A    between atoms: C_11  and  C_12
REMARK    8  A    between atoms: C_15  and  C_16
REMARK    9  A    between atoms: C_28  and  O_29
REMARK   10  A    between atoms: O_29  and  C_30
REMARK                            x       y       z     vdW  Elec       q    Type
REMARK                         _______ _______ _______ _____ _____    ______ ____
ROOT
ATOM      1  N   UNL     1      -7.476   2.210 123.619  0.00  0.00    +0.000 N 
ENDROOT
BRANCH   1   2
ATOM      2  C   UNL     1      -7.323   2.948 122.320  0.00  0.00    +0.000 A 
ATOM      3  C   UNL     1      -6.070   3.194 121.753  0.00  0.00    +0.000 A 
ATOM      4  C   UNL     1      -5.931   3.825 120.516  0.00  0.00    +0.000 A 
ATOM      5  C   UNL     1      -7.061   4.198 119.816  0.00  0.00    +0.000 A 
ATOM      6  N   UNL     1      -8.298   3.993 120.319  0.00  0.00    +0.000 NA
ATOM      7  C   UNL     1      -8.397   3.392 121.548  0.00  0.00    +0.000 A 
BRANCH   5   8
ATOM      8  O   UNL     1      -7.033   4.776 118.572  0.00  0.00    +0.000 OA
ATOM      9  C   UNL     1      -6.013   5.753 118.363  0.00  0.00    +0.000 C 
ENDBRANCH   5   8
ENDBRANCH   1   2
BRANCH   1  10
ATOM     10  S   UNL     1      -7.357   3.341 124.985  0.00  0.00    +0.000 S 
ATOM     11  O   UNL     1      -8.687   3.463 125.513  0.00  0.00    +0.000 OA
ATOM     12  O   UNL     1      -6.587   4.514 124.548  0.00  0.00    +0.000 OA
BRANCH  10  16
ATOM     13  C   UNL     1      -4.412   3.284 128.270  0.00  0.00    +0.000 A 
ATOM     14  C   UNL     1      -5.652   2.911 128.692  0.00  0.00    +0.000 A 
ATOM     15  C   UNL     1      -6.707   2.678 127.702  0.00  0.00    +0.000 A 
ATOM     16  C   UNL     1      -6.468   2.789 126.337  0.00  0.00    +0.000 A 
ATOM     17  C   UNL     1      -5.306   2.314 125.995  0.00  0.00    +0.000 A 
ATOM     18  C   UNL     1      -4.472   2.833 126.951  0.00  0.00    +0.000 A 
BRANCH  13  20
ATOM     19  C   UNL     1      -2.942   4.877 130.129  0.00  0.00    +0.000 C 
ATOM     20  O   UNL     1      -3.342   3.719 129.108  0.00  0.00    +0.000 OA
ENDBRANCH  13  20
ENDBRANCH  10  16
ENDBRANCH   1  10
BRANCH   1  21
ATOM     21  C   UNL     1      -7.453   0.619 123.452  0.00  0.00    +0.000 C 
BRANCH  21  22
ATOM     22  C   UNL     1      -7.801  -0.591 124.512  0.00  0.00    +0.000 A 
ATOM     23  C   UNL     1      -8.287  -0.178 125.838  0.00  0.00    +0.000 A 
ATOM     24  C   UNL     1      -8.008  -0.904 127.079  0.00  0.00    +0.000 A 
ATOM     25  C   UNL     1      -7.289  -2.122 127.053  0.00  0.00    +0.000 A 
ATOM     26  C   UNL     1      -7.092  -2.668 125.509  0.00  0.00    +0.000 A 
ATOM     27  N   UNL     1      -7.325  -1.882 124.315  0.00  0.00    +0.000 NA
BRANCH  25  28
ATOM     28  C   UNL     1      -6.356  -2.363 128.561  0.00  0.00    +0.000 A 
ATOM     29  C   UNL     1      -4.904  -2.176 129.013  0.00  0.00    +0.000 A 
ATOM     30  C   UNL     1      -4.151  -3.194 129.672  0.00  0.00    +0.000 A 
ATOM     31  C   UNL     1      -4.877  -4.208 130.239  0.00  0.00    +0.000 A 
ATOM     32  C   UNL     1      -6.281  -4.181 130.130  0.00  0.00    +0.000 A 
ATOM     33  C   UNL     1      -7.018  -3.251 129.376  0.00  0.00    +0.000 A 
ATOM     34 CL   UNL     1      -8.696  -3.578 129.113  0.00  0.00    +0.000 Cl
ENDBRANCH  25  28
ENDBRANCH  21  22
ENDBRANCH   1  21
TORSDOF 8
ENDMDL
MODEL 3
REMARK VINA RESULT:      -9.3      6.192     10.114
REMARK  Name = CHEMBL458634
REMARK  10 active torsions:
REMARK  status: ('A' for Active; 'I' for Inactive)
REMARK    1  A    between atoms: C_1  and  O_2
REMARK    2  A    between atoms: O_2  and  C_3
REMARK    3  A    between atoms: C_6  and  S_7
REMARK    4  A    between atoms: S_7  and  N_10
REMARK    5  A    between atoms: N_10  and  C_11
REMARK    6  A    between atoms: N_10  and  C_25
REMARK    7  A    between atoms: C_11  and  C_12
REMARK    8  A    between atoms: C_15  and  C_16
REMARK    9  A    between atoms: C_28  and  O_29
REMARK   10  A    between atoms: O_29  and  C_30
REMARK                            x       y       z     vdW  Elec       q    Type
REMARK                         _______ _______ _______ _____ _____    ______ ____
ROOT
ATOM      1  N   UNL     1      -8.112   1.924 126.757  0.00  0.00    +0.000 N 
ENDROOT
BRANCH   1   2
ATOM      2  C   UNL     1      -7.857   0.515 126.304  0.00  0.00    +0.000 A 
ATOM      3  C   UNL     1      -8.899  -0.369 126.014  0.00  0.00    +0.000 A 
ATOM      4  C   UNL     1      -8.663  -1.657 125.534  0.00  0.00    +0.000 A 
ATOM      5  C   UNL     1      -7.364  -2.069 125.314  0.00  0.00    +0.000 A 
ATOM      6  N   UNL     1      -6.315  -1.261 125.585  0.00  0.00    +0.000 NA
ATOM      7  C   UNL     1      -6.584  -0.009 126.078  0.00  0.00    +0.000 A 
BRANCH   5   8
ATOM      8  O   UNL     1      -7.028  -3.295 124.798  0.00  0.00    +0.000 OA
ATOM      9  C   UNL     1      -8.110  -4.205 124.601  0.00  0.00    +0.000 C 
ENDBRANCH   5   8
ENDBRANCH   1   2
BRANCH   1  10
ATOM     10  S   UNL     1      -8.237   3.006 125.353  0.00  0.00    +0.000 S 
ATOM     11  O   UNL     1      -8.398   4.330 125.889  0.00  0.00    +0.000 OA
ATOM     12  O   UNL     1      -9.206   2.430 124.410  0.00  0.00    +0.000 OA
BRANCH  10  16
ATOM     13  C   UNL     1      -5.538   4.331 122.125  0.00  0.00    +0.000 A 
ATOM     14  C   UNL     1      -4.949   4.423 123.349  0.00  0.00    +0.000 A 
ATOM     15  C   UNL     1      -5.621   3.840 124.514  0.00  0.00    +0.000 A 
ATOM     16  C   UNL     1      -6.827   3.159 124.399  0.00  0.00    +0.000 A 
ATOM     17  C   UNL     1      -6.881   2.418 123.330  0.00  0.00    +0.000 A 
ATOM     18  C   UNL     1      -6.389   3.250 122.359  0.00  0.00    +0.000 A 
BRANCH  13  20
ATOM     19  C   UNL     1      -5.574   5.350 119.457  0.00  0.00    +0.000 C 
ATOM     20  O   UNL     1      -5.104   4.997 120.940  0.00  0.00    +0.000 OA
ENDBRANCH  13  20
ENDBRANCH  10  16
ENDBRANCH   1  10
BRANCH   1  21
ATOM     21  C   UNL     1      -7.958   2.122 128.337  0.00  0.00    +0.000 C 
BRANCH  21  22
ATOM     22  C   UNL     1      -8.564   3.265 129.354  0.00  0.00    +0.000 A 
ATOM     23  C   UNL     1      -9.890   2.991 129.929  0.00  0.00    +0.000 A 
ATOM     24  C   UNL     1     -10.881   4.023 130.240  0.00  0.00    +0.000 A 
ATOM     25  C   UNL     1     -10.574   5.393 130.060  0.00  0.00    +0.000 A 
ATOM     26  C   UNL     1      -8.968   5.609 129.745  0.00  0.00    +0.000 A 
ATOM     27  N   UNL     1      -8.045   4.554 129.381  0.00  0.00    +0.000 NA
BRANCH  25  28
ATOM     28  C   UNL     1     -12.036   6.344 129.659  0.00  0.00    +0.000 A 
ATOM     29  C   UNL     1     -12.776   6.761 128.384  0.00  0.00    +0.000 A 
ATOM     30  C   UNL     1     -13.148   8.110 128.101  0.00  0.00    +0.000 A 
ATOM     31  C   UNL     1     -13.174   8.965 129.170  0.00  0.00    +0.000 A 
ATOM     32  C   UNL     1     -12.833   8.469 130.444  0.00  0.00    +0.000 A 
ATOM     33  C   UNL     1     -12.345   7.178 130.708  0.00  0.00    +0.000 A 
ATOM     34 CL   UNL     1     -11.687   6.871 132.277  0.00  0.00    +0.000 Cl
ENDBRANCH  25  28
ENDBRANCH  21  22
ENDBRANCH   1  21
TORSDOF 8
ENDMDL
MODEL 4
REMARK VINA RESULT:      -9.1      6.483     10.342
REMARK  Name = CHEMBL458634
REMARK  10 active torsions:
REMARK  status: ('A' for Active; 'I' for Inactive)
REMARK    1  A    between atoms: C_1  and  O_2
REMARK    2  A    between atoms: O_2  and  C_3
REMARK    3  A    between atoms: C_6  and  S_7
REMARK    4  A    between atoms: S_7  and  N_10
REMARK    5  A    between atoms: N_10  and  C_11
REMARK    6  A    between atoms: N_10  and  C_25
REMARK    7  A    between atoms: C_11  and  C_12
REMARK    8  A    between atoms: C_15  and  C_16
REMARK    9  A    between atoms: C_28  and  O_29
REMARK   10  A    between atoms: O_29  and  C_30
REMARK                            x       y       z     vdW  Elec       q    Type
REMARK                         _______ _______ _______ _____ _____    ______ ____
ROOT
ATOM      1  N   UNL     1      -5.255   3.370 127.668  0.00  0.00    +0.000 N 
ENDROOT
BRANCH   1   2
ATOM      2  C   UNL     1      -6.225   3.296 126.524  0.00  0.00    +0.000 A 
ATOM      3  C   UNL     1      -5.898   2.672 125.317  0.00  0.00    +0.000 A 
ATOM      4  C   UNL     1      -6.820   2.547 124.277  0.00  0.00    +0.000 A 
ATOM      5  C   UNL     1      -8.101   3.031 124.448  0.00  0.00    +0.000 A 
ATOM      6  N   UNL     1      -8.471   3.652 125.589  0.00  0.00    +0.000 NA
ATOM      7  C   UNL     1      -7.533   3.777 126.582  0.00  0.00    +0.000 A 
BRANCH   5   8
ATOM      8  O   UNL     1      -9.094   2.913 123.508  0.00  0.00    +0.000 OA
ATOM      9  C   UNL     1      -8.669   2.946 122.146  0.00  0.00    +0.000 C 
ENDBRANCH   5   8
ENDBRANCH   1   2
BRANCH   1  10
ATOM     10  S   UNL     1      -4.030   4.620 127.354  0.00  0.00    +0.000 S 
ATOM     11  O   UNL     1      -4.760   5.807 127.003  0.00  0.00    +0.000 OA
ATOM     12  O   UNL     1      -3.007   4.050 126.466  0.00  0.00    +0.000 OA
BRANCH  10  16
ATOM     13  C   UNL     1      -2.794   6.970 130.876  0.00  0.00    +0.000 A 
ATOM     14  C   UNL     1      -2.774   5.632 131.125  0.00  0.00    +0.000 A 
ATOM     15  C   UNL     1      -2.959   4.693 130.016  0.00  0.00    +0.000 A 
ATOM     16  C   UNL     1      -3.117   5.128 128.705  0.00  0.00    +0.000 A 
ATOM     17  C   UNL     1      -2.348   6.140 128.421  0.00  0.00    +0.000 A 
ATOM     18  C   UNL     1      -2.504   6.955 129.511  0.00  0.00    +0.000 A 
BRANCH  13  20
ATOM     19  C   UNL     1      -2.483   8.268 133.401  0.00  0.00    +0.000 C 
ATOM     20  O   UNL     1      -2.810   8.001 131.863  0.00  0.00    +0.000 OA
ENDBRANCH  13  20
ENDBRANCH  10  16
ENDBRANCH   1  10
BRANCH   1  21
ATOM     21  C   UNL     1      -5.418   2.175 128.719  0.00  0.00    +0.000 C 
BRANCH  21  22
ATOM     22  C   UNL     1      -6.102   0.686 128.574  0.00  0.00    +0.000 A 
ATOM     23  C   UNL     1      -5.237  -0.382 128.046  0.00  0.00    +0.000 A 
ATOM     24  C   UNL     1      -5.712  -1.490 127.215  0.00  0.00    +0.000 A 
ATOM     25  C   UNL     1      -7.089  -1.632 126.924  0.00  0.00    +0.000 A 
ATOM     26  C   UNL     1      -8.002  -0.600 127.832  0.00  0.00    +0.000 A 
ATOM     27  N   UNL     1      -7.482   0.521 128.588  0.00  0.00    +0.000 NA
BRANCH  25  28
ATOM     28  C   UNL     1      -7.345  -2.409 125.333  0.00  0.00    +0.000 A 
ATOM     29  C   UNL     1      -6.991  -2.101 123.874  0.00  0.00    +0.000 A 
ATOM     30  C   UNL     1      -7.949  -2.115 122.816  0.00  0.00    +0.000 A 
ATOM     31  C   UNL     1      -9.114  -2.790 123.067  0.00  0.00    +0.000 A 
ATOM     32  C   UNL     1      -9.287  -3.402 124.324  0.00  0.00    +0.000 A 
ATOM     33  C   UNL     1      -8.404  -3.284 125.412  0.00  0.00    +0.000 A 
ATOM     34 CL   UNL     1      -8.948  -3.841 126.955  0.00  0.00    +0.000 Cl
ENDBRANCH  25  28
ENDBRANCH  21  22
ENDBRANCH   1  21
TORSDOF 8
ENDMDL
MODEL 5
REMARK VINA RESULT:      -9.1      3.550      5.758
REMARK  Name = CHEMBL458634
REMARK  10 active torsions:
REMARK  status: ('A' for Active; 'I' for Inactive)
REMARK    1  A    between atoms: C_1  and  O_2
REMARK    2  A    between atoms: O_2  and  C_3
REMARK    3  A    between atoms: C_6  and  S_7
REMARK    4  A    between atoms: S_7  and  N_10
REMARK    5  A    between atoms: N_10  and  C_11
REMARK    6  A    between atoms: N_10  and  C_25
REMARK    7  A    between atoms: C_11  and  C_12
REMARK    8  A    between atoms: C_15  and  C_16
REMARK    9  A    between atoms: C_28  and  O_29
REMARK   10  A    between atoms: O_29  and  C_30
REMARK                            x       y       z     vdW  Elec       q    Type
REMARK                         _______ _______ _______ _____ _____    ______ ____
ROOT
ATOM      1  N   UNL     1      -9.832   4.594 131.734  0.00  0.00    +0.000 N 
ENDROOT
BRANCH   1   2
ATOM      2  C   UNL     1     -10.538   5.802 131.189  0.00  0.00    +0.000 A 
ATOM      3  C   UNL     1     -10.001   6.566 130.149  0.00  0.00    +0.000 A 
ATOM      4  C   UNL     1     -10.686   7.652 129.601  0.00  0.00    +0.000 A 
ATOM      5  C   UNL     1     -11.941   7.971 130.077  0.00  0.00    +0.000 A 
ATOM      6  N   UNL     1     -12.507   7.273 131.086  0.00  0.00    +0.000 NA
ATOM      7  C   UNL     1     -11.796   6.227 131.618  0.00  0.00    +0.000 A 
BRANCH   5   8
ATOM      8  O   UNL     1     -12.715   8.984 129.572  0.00  0.00    +0.000 OA
ATOM      9  C   UNL     1     -13.311   8.737 128.299  0.00  0.00    +0.000 C 
ENDBRANCH   5   8
ENDBRANCH   1   2
BRANCH   1  10
ATOM     10  S   UNL     1      -8.778   5.059 133.087  0.00  0.00    +0.000 S 
ATOM     11  O   UNL     1      -8.791   3.946 133.996  0.00  0.00    +0.000 OA
ATOM     12  O   UNL     1      -9.150   6.414 133.518  0.00  0.00    +0.000 OA
BRANCH  10  16
ATOM     13  C   UNL     1      -5.040   6.726 131.442  0.00  0.00    +0.000 A 
ATOM     14  C   UNL     1      -4.912   6.389 132.755  0.00  0.00    +0.000 A 
ATOM     15  C   UNL     1      -5.985   5.638 133.411  0.00  0.00    +0.000 A 
ATOM     16  C   UNL     1      -7.117   5.222 132.720  0.00  0.00    +0.000 A 
ATOM     17  C   UNL     1      -6.843   4.812 131.515  0.00  0.00    +0.000 A 
ATOM     18  C   UNL     1      -5.989   5.779 131.053  0.00  0.00    +0.000 A 
BRANCH  13  20
ATOM     19  C   UNL     1      -3.714   7.961 129.234  0.00  0.00    +0.000 C 
ATOM     20  O   UNL     1      -4.176   7.601 130.718  0.00  0.00    +0.000 OA
ENDBRANCH  13  20
ENDBRANCH  10  16
ENDBRANCH   1  10
BRANCH   1  21
ATOM     21  C   UNL     1     -10.010   3.290 130.824  0.00  0.00    +0.000 C 
BRANCH  21  22
ATOM     22  C   UNL     1      -9.009   2.586 129.725  0.00  0.00    +0.000 A 
ATOM     23  C   UNL     1      -7.968   1.697 130.264  0.00  0.00    +0.000 A 
ATOM     24  C   UNL     1      -6.638   1.534 129.674  0.00  0.00    +0.000 A 
ATOM     25  C   UNL     1      -6.299   2.197 128.471  0.00  0.00    +0.000 A 
ATOM     26  C   UNL     1      -7.627   2.884 127.772  0.00  0.00    +0.000 A 
ATOM     27  N   UNL     1      -8.904   3.075 128.428  0.00  0.00    +0.000 NA
BRANCH  25  28
ATOM     28  C   UNL     1      -4.551   2.572 128.401  0.00  0.00    +0.000 A 
ATOM     29  C   UNL     1      -3.586   3.519 129.122  0.00  0.00    +0.000 A 
ATOM     30  C   UNL     1      -2.692   4.397 128.438  0.00  0.00    +0.000 A 
ATOM     31  C   UNL     1      -2.439   4.096 127.127  0.00  0.00    +0.000 A 
ATOM     32  C   UNL     1      -3.067   2.973 126.554  0.00  0.00    +0.000 A 
ATOM     33  C   UNL     1      -4.044   2.181 127.183  0.00  0.00    +0.000 A 
ATOM     34 CL   UNL     1      -4.918   1.054 126.207  0.00  0.00    +0.000 Cl
ENDBRANCH  25  28
ENDBRANCH  21  22
ENDBRANCH   1  21
TORSDOF 8
ENDMDL
MODEL 6
REMARK VINA RESULT:      -9.1      2.093      5.990
REMARK  Name = CHEMBL458634
REMARK  10 active torsions:
REMARK  status: ('A' for Active; 'I' for Inactive)
REMARK    1  A    between atoms: C_1  and  O_2
REMARK    2  A    between atoms: O_2  and  C_3
REMARK    3  A    between atoms: C_6  and  S_7
REMARK    4  A    between atoms: S_7  and  N_10
REMARK    5  A    between atoms: N_10  and  C_11
REMARK    6  A    between atoms: N_10  and  C_25
REMARK    7  A    between atoms: C_11  and  C_12
REMARK    8  A    between atoms: C_15  and  C_16
REMARK    9  A    between atoms: C_28  and  O_29
REMARK   10  A    between atoms: O_29  and  C_30
REMARK                            x       y       z     vdW  Elec       q    Type
REMARK                         _______ _______ _______ _____ _____    ______ ____
ROOT
ATOM      1  N   UNL     1      -8.755   5.719 130.675  0.00  0.00    +0.000 N 
ENDROOT
BRANCH   1   2
ATOM      2  C   UNL     1      -8.223   4.596 129.831  0.00  0.00    +0.000 A 
ATOM      3  C   UNL     1      -7.678   3.440 130.396  0.00  0.00    +0.000 A 
ATOM      4  C   UNL     1      -7.241   2.371 129.613  0.00  0.00    +0.000 A 
ATOM      5  C   UNL     1      -7.370   2.440 128.240  0.00  0.00    +0.000 A 
ATOM      6  N   UNL     1      -7.882   3.536 127.638  0.00  0.00    +0.000 NA
ATOM      7  C   UNL     1      -8.280   4.578 128.436  0.00  0.00    +0.000 A 
BRANCH   5   8
ATOM      8  O   UNL     1      -7.019   1.425 127.388  0.00  0.00    +0.000 OA
ATOM      9  C   UNL     1      -8.098   0.656 126.857  0.00  0.00    +0.000 C 
ENDBRANCH   5   8
ENDBRANCH   1   2
BRANCH   1  10
ATOM     10  S   UNL     1     -10.531   5.673 130.707  0.00  0.00    +0.000 S 
ATOM     11  O   UNL     1     -10.919   6.307 131.937  0.00  0.00    +0.000 OA
ATOM     12  O   UNL     1     -10.965   4.311 130.369  0.00  0.00    +0.000 OA
BRANCH  10  16
ATOM     13  C   UNL     1     -12.805   8.997 128.907  0.00  0.00    +0.000 A 
ATOM     14  C   UNL     1     -11.690   8.696 128.187  0.00  0.00    +0.000 A 
ATOM     15  C   UNL     1     -10.924   7.493 128.521  0.00  0.00    +0.000 A 
ATOM     16  C   UNL     1     -11.325   6.625 129.530  0.00  0.00    +0.000 A 
ATOM     17  C   UNL     1     -12.616   6.456 129.558  0.00  0.00    +0.000 A 
ATOM     18  C   UNL     1     -13.091   7.735 129.428  0.00  0.00    +0.000 A 
BRANCH  13  20
ATOM     19  C   UNL     1     -13.887  11.533 129.653  0.00  0.00    +0.000 C 
ATOM     20  O   UNL     1     -13.547  10.213 128.824  0.00  0.00    +0.000 OA
ENDBRANCH  13  20
ENDBRANCH  10  16
ENDBRANCH   1  10
BRANCH   1  21
ATOM     21  C   UNL     1      -7.635   6.778 131.102  0.00  0.00    +0.000 C 
BRANCH  21  22
ATOM     22  C   UNL     1      -5.992   6.686 131.095  0.00  0.00    +0.000 A 
ATOM     23  C   UNL     1      -5.367   6.066 132.275  0.00  0.00    +0.000 A 
ATOM     24  C   UNL     1      -4.067   6.461 132.820  0.00  0.00    +0.000 A 
ATOM     25  C   UNL     1      -3.286   7.449 132.174  0.00  0.00    +0.000 A 
ATOM     26  C   UNL     1      -3.907   7.828 130.693  0.00  0.00    +0.000 A 
ATOM     27  N   UNL     1      -5.230   7.461 130.229  0.00  0.00    +0.000 NA
BRANCH  25  28
ATOM     28  C   UNL     1      -2.278   8.354 133.343  0.00  0.00    +0.000 A 
ATOM     29  C   UNL     1      -2.445   9.591 134.231  0.00  0.00    +0.000 A 
ATOM     30  C   UNL     1      -1.513  10.672 134.251  0.00  0.00    +0.000 A 
ATOM     31  C   UNL     1      -0.268  10.403 133.747  0.00  0.00    +0.000 A 
ATOM     32  C   UNL     1      -0.001   9.113 133.250  0.00  0.00    +0.000 A 
ATOM     33  C   UNL     1      -0.949   8.085 133.111  0.00  0.00    +0.000 A 
ATOM     34 CL   UNL     1      -0.499   6.692 132.191  0.00  0.00    +0.000 Cl
ENDBRANCH  25  28
ENDBRANCH  21  22
ENDBRANCH   1  21
TORSDOF 8
ENDMDL
MODEL 7
REMARK VINA RESULT:      -9.0      7.319      8.694
REMARK  Name = CHEMBL458634
REMARK  10 active torsions:
REMARK  status: ('A' for Active; 'I' for Inactive)
REMARK    1  A    between atoms: C_1  and  O_2
REMARK    2  A    between atoms: O_2  and  C_3
REMARK    3  A    between atoms: C_6  and  S_7
REMARK    4  A    between atoms: S_7  and  N_10
REMARK    5  A    between atoms: N_10  and  C_11
REMARK    6  A    between atoms: N_10  and  C_25
REMARK    7  A    between atoms: C_11  and  C_12
REMARK    8  A    between atoms: C_15  and  C_16
REMARK    9  A    between atoms: C_28  and  O_29
REMARK   10  A    between atoms: O_29  and  C_30
REMARK                            x       y       z     vdW  Elec       q    Type
REMARK                         _______ _______ _______ _____ _____    ______ ____
ROOT
ATOM      1  N   UNL     1      -8.078   0.589 125.539  0.00  0.00    +0.000 N 
ENDROOT
BRANCH   1   2
ATOM      2  C   UNL     1      -7.975   1.515 124.361  0.00  0.00    +0.000 A 
ATOM      3  C   UNL     1      -6.761   2.089 123.976  0.00  0.00    +0.000 A 
ATOM      4  C   UNL     1      -6.653   2.899 122.845  0.00  0.00    +0.000 A 
ATOM      5  C   UNL     1      -7.770   3.125 122.065  0.00  0.00    +0.000 A 
ATOM      6  N   UNL     1      -8.972   2.603 122.393  0.00  0.00    +0.000 NA
ATOM      7  C   UNL     1      -9.046   1.830 123.524  0.00  0.00    +0.000 A 
BRANCH   5   8
ATOM      8  O   UNL     1      -7.758   3.863 120.909  0.00  0.00    +0.000 OA
ATOM      9  C   UNL     1      -8.994   3.925 120.198  0.00  0.00    +0.000 C 
ENDBRANCH   5   8
ENDBRANCH   1   2
BRANCH   1  10
ATOM     10  S   UNL     1      -8.252  -1.091 124.985  0.00  0.00    +0.000 S 
ATOM     11  O   UNL     1      -7.171  -1.316 124.066  0.00  0.00    +0.000 OA
ATOM     12  O   UNL     1      -9.653  -1.308 124.600  0.00  0.00    +0.000 OA
BRANCH  10  16
ATOM     13  C   UNL     1      -8.026  -3.048 128.932  0.00  0.00    +0.000 A 
ATOM     14  C   UNL     1      -8.696  -3.810 128.025  0.00  0.00    +0.000 A 
ATOM     15  C   UNL     1      -8.695  -3.413 126.614  0.00  0.00    +0.000 A 
ATOM     16  C   UNL     1      -7.995  -2.298 126.167  0.00  0.00    +0.000 A 
ATOM     17  C   UNL     1      -6.842  -2.165 126.756  0.00  0.00    +0.000 A 
ATOM     18  C   UNL     1      -7.147  -2.387 128.074  0.00  0.00    +0.000 A 
BRANCH  13  20
ATOM     19  C   UNL     1      -7.320  -2.776 131.687  0.00  0.00    +0.000 C 
ATOM     20  O   UNL     1      -8.082  -3.199 130.350  0.00  0.00    +0.000 OA
ENDBRANCH  13  20
ENDBRANCH  10  16
ENDBRANCH   1  10
BRANCH   1  21
ATOM     21  C   UNL     1      -8.255   1.353 126.934  0.00  0.00    +0.000 C 
BRANCH  21  22
ATOM     22  C   UNL     1      -7.299   1.408 128.272  0.00  0.00    +0.000 A 
ATOM     23  C   UNL     1      -5.847   1.450 128.036  0.00  0.00    +0.000 A 
ATOM     24  C   UNL     1      -4.852   0.835 128.917  0.00  0.00    +0.000 A 
ATOM     25  C   UNL     1      -5.249   0.204 130.120  0.00  0.00    +0.000 A 
ATOM     26  C   UNL     1      -6.835   0.508 130.460  0.00  0.00    +0.000 A 
ATOM     27  N   UNL     1      -7.792   1.064 129.525  0.00  0.00    +0.000 NA
BRANCH  25  28
ATOM     28  C   UNL     1      -4.143  -1.134 130.554  0.00  0.00    +0.000 A 
ATOM     29  C   UNL     1      -3.860  -2.552 130.047  0.00  0.00    +0.000 A 
ATOM     30  C   UNL     1      -3.824  -3.695 130.901  0.00  0.00    +0.000 A 
ATOM     31  C   UNL     1      -3.663  -3.445 132.237  0.00  0.00    +0.000 A 
ATOM     32  C   UNL     1      -3.554  -2.108 132.669  0.00  0.00    +0.000 A 
ATOM     33  C   UNL     1      -3.716  -0.976 131.852  0.00  0.00    +0.000 A 
ATOM     34 CL   UNL     1      -3.861   0.562 132.627  0.00  0.00    +0.000 Cl
ENDBRANCH  25  28
ENDBRANCH  21  22
ENDBRANCH   1  21
TORSDOF 8
ENDMDL
MODEL 8
REMARK VINA RESULT:      -8.9      7.405      8.416
REMARK  Name = CHEMBL458634
REMARK  10 active torsions:
REMARK  status: ('A' for Active; 'I' for Inactive)
REMARK    1  A    between atoms: C_1  and  O_2
REMARK    2  A    between atoms: O_2  and  C_3
REMARK    3  A    between atoms: C_6  and  S_7
REMARK    4  A    between atoms: S_7  and  N_10
REMARK    5  A    between atoms: N_10  and  C_11
REMARK    6  A    between atoms: N_10  and  C_25
REMARK    7  A    between atoms: C_11  and  C_12
REMARK    8  A    between atoms: C_15  and  C_16
REMARK    9  A    between atoms: C_28  and  O_29
REMARK   10  A    between atoms: O_29  and  C_30
REMARK                            x       y       z     vdW  Elec       q    Type
REMARK                         _______ _______ _______ _____ _____    ______ ____
ROOT
ATOM      1  N   UNL     1      -8.371   2.177 123.986  0.00  0.00    +0.000 N 
ENDROOT
BRANCH   1   2
ATOM      2  C   UNL     1      -7.956   2.761 122.666  0.00  0.00    +0.000 A 
ATOM      3  C   UNL     1      -8.890   3.231 121.738  0.00  0.00    +0.000 A 
ATOM      4  C   UNL     1      -8.502   3.830 120.539  0.00  0.00    +0.000 A 
ATOM      5  C   UNL     1      -7.158   3.989 120.266  0.00  0.00    +0.000 A 
ATOM      6  N   UNL     1      -6.211   3.547 121.121  0.00  0.00    +0.000 NA
ATOM      7  C   UNL     1      -6.627   2.942 122.280  0.00  0.00    +0.000 A 
BRANCH   5   8
ATOM      8  O   UNL     1      -6.676   4.610 119.142  0.00  0.00    +0.000 OA
ATOM      9  C   UNL     1      -5.526   5.434 119.331  0.00  0.00    +0.000 C 
ENDBRANCH   5   8
ENDBRANCH   1   2
BRANCH   1  10
ATOM     10  S   UNL     1      -9.362   0.725 123.729  0.00  0.00    +0.000 S 
ATOM     11  O   UNL     1      -9.624   0.671 122.317  0.00  0.00    +0.000 OA
ATOM     12  O   UNL     1     -10.450   0.727 124.718  0.00  0.00    +0.000 OA
BRANCH  10  16
ATOM     13  C   UNL     1      -6.205  -2.353 123.868  0.00  0.00    +0.000 A 
ATOM     14  C   UNL     1      -6.857  -2.239 125.058  0.00  0.00    +0.000 A 
ATOM     15  C   UNL     1      -8.064  -1.413 125.139  0.00  0.00    +0.000 A 
ATOM     16  C   UNL     1      -8.588  -0.770 124.023  0.00  0.00    +0.000 A 
ATOM     17  C   UNL     1      -8.517  -1.501 122.948  0.00  0.00    +0.000 A 
ATOM     18  C   UNL     1      -7.241  -1.998 123.003  0.00  0.00    +0.000 A 
BRANCH  13  20
ATOM     19  C   UNL     1      -4.237  -4.394 123.526  0.00  0.00    +0.000 C 
ATOM     20  O   UNL     1      -4.931  -2.965 123.671  0.00  0.00    +0.000 OA
ENDBRANCH  13  20
ENDBRANCH  10  16
ENDBRANCH   1  10
BRANCH   1  21
ATOM     21  C   UNL     1      -8.040   3.125 125.232  0.00  0.00    +0.000 C 
BRANCH  21  22
ATOM     22  C   UNL     1      -7.335   2.804 126.684  0.00  0.00    +0.000 A 
ATOM     23  C   UNL     1      -7.283   3.917 127.645  0.00  0.00    +0.000 A 
ATOM     24  C   UNL     1      -6.200   4.123 128.608  0.00  0.00    +0.000 A 
ATOM     25  C   UNL     1      -5.142   3.189 128.712  0.00  0.00    +0.000 A 
ATOM     26  C   UNL     1      -5.466   1.821 127.847  0.00  0.00    +0.000 A 
ATOM     27  N   UNL     1      -6.518   1.693 126.859  0.00  0.00    +0.000 NA
BRANCH  25  28
ATOM     28  C   UNL     1      -3.620   3.978 129.223  0.00  0.00    +0.000 A 
ATOM     29  C   UNL     1      -3.038   4.532 130.527  0.00  0.00    +0.000 A 
ATOM     30  C   UNL     1      -2.480   5.841 130.642  0.00  0.00    +0.000 A 
ATOM     31  C   UNL     1      -2.123   6.448 129.467  0.00  0.00    +0.000 A 
ATOM     32  C   UNL     1      -2.332   5.760 128.256  0.00  0.00    +0.000 A 
ATOM     33  C   UNL     1      -2.995   4.527 128.128  0.00  0.00    +0.000 A 
ATOM     34 CL   UNL     1      -3.429   4.008 126.537  0.00  0.00    +0.000 Cl
ENDBRANCH  25  28
ENDBRANCH  21  22
ENDBRANCH   1  21
TORSDOF 8
ENDMDL
MODEL 9
REMARK VINA RESULT:      -8.8      4.148      6.621
REMARK  Name = CHEMBL458634
REMARK  10 active torsions:
REMARK  status: ('A' for Active; 'I' for Inactive)
REMARK    1  A    between atoms: C_1  and  O_2
REMARK    2  A    between atoms: O_2  and  C_3
REMARK    3  A    between atoms: C_6  and  S_7
REMARK    4  A    between atoms: S_7  and  N_10
REMARK    5  A    between atoms: N_10  and  C_11
REMARK    6  A    between atoms: N_10  and  C_25
REMARK    7  A    between atoms: C_11  and  C_12
REMARK    8  A    between atoms: C_15  and  C_16
REMARK    9  A    between atoms: C_28  and  O_29
REMARK   10  A    between atoms: O_29  and  C_30
REMARK                            x       y       z     vdW  Elec       q    Type
REMARK                         _______ _______ _______ _____ _____    ______ ____
ROOT
ATOM      1  N   UNL     1      -9.800   5.222 130.983  0.00  0.00    +0.000 N 
ENDROOT
BRANCH   1   2
ATOM      2  C   UNL     1     -10.683   6.305 130.431  0.00  0.00    +0.000 A 
ATOM      3  C   UNL     1     -12.014   6.448 130.830  0.00  0.00    +0.000 A 
ATOM      4  C   UNL     1     -12.816   7.491 130.365  0.00  0.00    +0.000 A 
ATOM      5  C   UNL     1     -12.278   8.427 129.505  0.00  0.00    +0.000 A 
ATOM      6  N   UNL     1     -10.999   8.334 129.079  0.00  0.00    +0.000 NA
ATOM      7  C   UNL     1     -10.246   7.284 129.537  0.00  0.00    +0.000 A 
BRANCH   5   8
ATOM      8  O   UNL     1     -12.966   9.515 129.032  0.00  0.00    +0.000 OA
ATOM      9  C   UNL     1     -13.286  10.517 129.997  0.00  0.00    +0.000 C 
ENDBRANCH   5   8
ENDBRANCH   1   2
BRANCH   1  10
ATOM     10  S   UNL     1      -8.840   5.847 132.341  0.00  0.00    +0.000 S 
ATOM     11  O   UNL     1      -9.758   6.582 133.167  0.00  0.00    +0.000 OA
ATOM     12  O   UNL     1      -7.621   6.464 131.800  0.00  0.00    +0.000 OA
BRANCH  10  16
ATOM     13  C   UNL     1      -6.926   2.147 133.794  0.00  0.00    +0.000 A 
ATOM     14  C   UNL     1      -6.422   3.254 134.406  0.00  0.00    +0.000 A 
ATOM     15  C   UNL     1      -7.075   4.549 134.197  0.00  0.00    +0.000 A 
ATOM     16  C   UNL     1      -8.222   4.675 133.421  0.00  0.00    +0.000 A 
ATOM     17  C   UNL     1      -9.050   3.685 133.592  0.00  0.00    +0.000 A 
ATOM     18  C   UNL     1      -8.227   2.590 133.550  0.00  0.00    +0.000 A 
BRANCH  13  20
ATOM     19  C   UNL     1      -6.471  -0.589 133.112  0.00  0.00    +0.000 C 
ATOM     20  O   UNL     1      -6.306   0.862 133.753  0.00  0.00    +0.000 OA
ENDBRANCH  13  20
ENDBRANCH  10  16
ENDBRANCH   1  10
BRANCH   1  21
ATOM     21  C   UNL     1      -9.767   3.905 130.075  0.00  0.00    +0.000 C 
BRANCH  21  22
ATOM     22  C   UNL     1      -8.510   3.009 129.505  0.00  0.00    +0.000 A 
ATOM     23  C   UNL     1      -8.806   2.115 128.373  0.00  0.00    +0.000 A 
ATOM     24  C   UNL     1      -8.160   0.819 128.159  0.00  0.00    +0.000 A 
ATOM     25  C   UNL     1      -7.132   0.375 129.025  0.00  0.00    +0.000 A 
ATOM     26  C   UNL     1      -6.643   1.581 130.040  0.00  0.00    +0.000 A 
ATOM     27  N   UNL     1      -7.358   2.822 130.258  0.00  0.00    +0.000 NA
BRANCH  25  28
ATOM     28  C   UNL     1      -7.105  -1.409 129.148  0.00  0.00    +0.000 A 
ATOM     29  C   UNL     1      -7.701  -2.470 130.080  0.00  0.00    +0.000 A 
ATOM     30  C   UNL     1      -6.926  -3.503 130.687  0.00  0.00    +0.000 A 
ATOM     31  C   UNL     1      -5.710  -3.761 130.113  0.00  0.00    +0.000 A 
ATOM     32  C   UNL     1      -5.313  -3.002 128.994  0.00  0.00    +0.000 A 
ATOM     33  C   UNL     1      -6.013  -1.902 128.470  0.00  0.00    +0.000 A 
ATOM     34 CL   UNL     1      -5.206  -0.915 127.303  0.00  0.00    +0.000 Cl
ENDBRANCH  25  28
ENDBRANCH  21  22
ENDBRANCH   1  21
TORSDOF 8
ENDMDL
