MODEL 1
REMARK VINA RESULT:      -9.4      0.000      0.000
REMARK  Name = CHEMBL3142790
REMARK  43 active torsions:
REMARK  status: ('A' for Active; 'I' for Inactive)
REMARK    1  A    between atoms: C_1  and  C_2
REMARK    2  A    between atoms: C_2  and  C_3
REMARK    3  A    between atoms: C_3  and  C_4
REMARK    4  A    between atoms: C_3  and  C_5
REMARK    5  A    between atoms: C_5  and  N_6
REMARK    6  A    between atoms: C_5  and  C_35
REMARK    7  A    between atoms: C_7  and  C_9
REMARK    8  A    between atoms: C_9  and  C_10
REMARK    9  A    between atoms: C_9  and  N_19
REMARK   10  A    between atoms: C_10  and  C_11
REMARK   11  A    between atoms: C_14  and  O_15
REMARK   12  A    between atoms: O_15  and  C_16
REMARK   13  A    between atoms: C_20  and  C_22
REMARK   14  A    between atoms: C_22  and  C_23
REMARK   15  A    between atoms: C_23  and  S_24
REMARK   16  A    between atoms: S_24  and  C_25
REMARK   17  A    between atoms: C_25  and  C_26
REMARK   18  A    between atoms: C_26  and  C_27
REMARK   19  A    between atoms: N_37  and  C_38
REMARK   20  A    between atoms: C_38  and  C_39
REMARK   21  A    between atoms: C_38  and  C_86
REMARK   22  A    between atoms: N_41  and  C_42
REMARK   23  A    between atoms: C_42  and  C_43
REMARK   24  A    between atoms: C_42  and  C_47
REMARK   25  A    between atoms: C_43  and  C_44
REMARK   26  A    between atoms: N_49  and  C_50
REMARK   27  A    between atoms: C_50  and  C_51
REMARK   28  A    between atoms: C_50  and  C_53
REMARK   29  A    between atoms: C_51  and  S_52
REMARK   30  A    between atoms: C_59  and  C_60
REMARK   31  A    between atoms: N_62  and  C_63
REMARK   32  A    between atoms: C_63  and  C_64
REMARK   33  A    between atoms: C_63  and  C_68
REMARK   34  A    between atoms: C_64  and  C_65
REMARK   35  A    between atoms: C_65  and  C_66
REMARK   36  A    between atoms: C_66  and  N_67
REMARK   37  A    between atoms: N_70  and  C_71
REMARK   38  A    between atoms: C_71  and  C_72
REMARK   39  A    between atoms: C_71  and  C_83
REMARK   40  A    between atoms: C_72  and  C_73
REMARK   41  A    between atoms: C_76  and  N_77
REMARK   42  A    between atoms: C_86  and  C_87
REMARK   43  A    between atoms: C_86  and  O_88
REMARK                            x       y       z     vdW  Elec       q    Type
REMARK                         _______ _______ _______ _____ _____    ______ ____
ROOT
ATOM      1  C   UNL     1      -6.047   4.797 125.043  0.00  0.00    +0.000 C 
ENDROOT
BRANCH   1   4
ATOM      2  C   UNL     1      -5.070   4.779 127.872  0.00  0.00    +0.000 C 
ATOM      3  O   UNL     1      -5.015   3.586 128.309  0.00  0.00    +0.000 OA
ATOM      4  N   UNL     1      -5.402   5.448 126.561  0.00  0.00    +0.000 N 
ATOM      5  H   UNL     1      -4.777   6.215 126.315  0.00  0.00    +0.000 HD
BRANCH   2   6
ATOM      6  C   UNL     1      -4.602   5.348 129.081  0.00  0.00    +0.000 C 
BRANCH   6   9
ATOM      7  C   UNL     1      -4.278   3.652 131.123  0.00  0.00    +0.000 C 
ATOM      8  O   UNL     1      -3.716   2.601 131.454  0.00  0.00    +0.000 OA
ATOM      9  N   UNL     1      -4.225   4.009 129.700  0.00  0.00    +0.000 N 
ATOM     10  H   UNL     1      -3.282   3.757 129.397  0.00  0.00    +0.000 HD
BRANCH   7  11
ATOM     11  C   UNL     1      -5.139   4.548 132.338  0.00  0.00    +0.000 C 
BRANCH  11  12
ATOM     12  N   UNL     1      -4.388   5.683 132.816  0.00  0.00    +0.000 N 
ATOM     13  C   UNL     1      -3.777   5.694 134.056  0.00  0.00    +0.000 C 
ATOM     14  O   UNL     1      -3.489   4.747 134.779  0.00  0.00    +0.000 OA
ATOM     15  H   UNL     1      -3.886   6.158 132.071  0.00  0.00    +0.000 HD
BRANCH  13  16
ATOM     16  C   UNL     1      -3.293   7.017 134.482  0.00  0.00    +0.000 C 
BRANCH  16  17
ATOM     17  N   UNL     1      -3.050   7.056 135.950  0.00  0.00    +0.000 N 
ATOM     18  C   UNL     1      -4.127   7.256 136.776  0.00  0.00    +0.000 C 
ATOM     19  O   UNL     1      -5.213   7.534 136.276  0.00  0.00    +0.000 OA
ATOM     20  H   UNL     1      -2.212   6.635 136.330  0.00  0.00    +0.000 HD
BRANCH  18  21
ATOM     21  C   UNL     1      -3.901   7.188 138.289  0.00  0.00    +0.000 C 
BRANCH  21  22
ATOM     22  C   UNL     1      -4.212   8.553 139.019  0.00  0.00    +0.000 C 
ATOM     23  C   UNL     1      -3.257   8.723 140.231  0.00  0.00    +0.000 C 
ATOM     24  C   UNL     1      -3.284  10.104 140.873  0.00  0.00    +0.000 C 
ATOM     25  C   UNL     1      -3.143  11.235 139.863  0.00  0.00    +0.000 C 
ATOM     26  C   UNL     1      -3.969  11.092 138.598  0.00  0.00    +0.000 C 
ATOM     27  C   UNL     1      -3.914   9.699 138.020  0.00  0.00    +0.000 C 
BRANCH  22  28
ATOM     28  S   UNL     1      -6.006   8.402 139.639  0.00  0.00    +0.000 S 
BRANCH  28  29
ATOM     29  C   UNL     1      -7.028   9.410 138.531  0.00  0.00    +0.000 C 
BRANCH  29  30
ATOM     30  C   UNL     1      -8.509   9.206 138.660  0.00  0.00    +0.000 C 
BRANCH  30  31
ATOM     31  C   UNL     1      -9.043   8.315 137.537  0.00  0.00    +0.000 C 
ATOM     32  N   UNL     1      -8.824   6.963 137.566  0.00  0.00    +0.000 N 
ATOM     33  O   UNL     1      -9.670   8.791 136.593  0.00  0.00    +0.000 OA
ATOM     34  H   UNL     1      -8.342   6.442 138.285  0.00  0.00    +0.000 HD
ATOM     35  H   UNL     1      -9.200   6.419 136.799  0.00  0.00    +0.000 HD
ENDBRANCH  30  31
ENDBRANCH  29  30
ENDBRANCH  28  29
ENDBRANCH  22  28
ENDBRANCH  21  22
ENDBRANCH  18  21
ENDBRANCH  16  17
BRANCH  16  36
ATOM     36  C   UNL     1      -2.025   7.010 133.667  0.00  0.00    +0.000 C 
BRANCH  36  37
ATOM     37  C   UNL     1      -1.433   8.311 133.410  0.00  0.00    +0.000 A 
ATOM     38  C   UNL     1      -0.059   8.430 133.512  0.00  0.00    +0.000 A 
ATOM     39  C   UNL     1       0.498   9.664 133.440  0.00  0.00    +0.000 A 
ATOM     40  C   UNL     1      -0.300  10.745 133.097  0.00  0.00    +0.000 A 
ATOM     41  C   UNL     1      -1.686  10.608 132.928  0.00  0.00    +0.000 A 
ATOM     42  C   UNL     1      -2.270   9.375 133.093  0.00  0.00    +0.000 A 
BRANCH  40  43
ATOM     43  O   UNL     1       0.414  11.889 132.920  0.00  0.00    +0.000 OA
ATOM     44  C   UNL     1      -0.239  12.876 132.149  0.00  0.00    +0.000 C 
ENDBRANCH  40  43
ENDBRANCH  36  37
ENDBRANCH  16  36
ENDBRANCH  13  16
ENDBRANCH  11  12
BRANCH  11  45
ATOM     45  C   UNL     1      -6.766   5.062 131.994  0.00  0.00    +0.000 C 
ATOM     46  C   UNL     1      -7.025   6.474 131.312  0.00  0.00    +0.000 C 
BRANCH  45  48
ATOM     47  C   UNL     1      -8.261   4.587 134.852  0.00  0.00    +0.000 C 
ATOM     48  C   UNL     1      -8.013   5.001 133.192  0.00  0.00    +0.000 C 
ENDBRANCH  45  48
ENDBRANCH  11  45
ENDBRANCH   7  11
ENDBRANCH   6   9
BRANCH   6  49
ATOM     49  C   UNL     1      -3.846   6.587 128.736  0.00  0.00    +0.000 C 
ATOM     50  C   UNL     1      -3.428   7.572 129.888  0.00  0.00    +0.000 C 
BRANCH  49  51
ATOM     51  O   UNL     1      -2.623   6.110 128.190  0.00  0.00    +0.000 OA
ATOM     52  H   UNL     1      -2.228   5.524 128.870  0.00  0.00    +0.000 HD
ENDBRANCH  49  51
ENDBRANCH   6  49
ENDBRANCH   2   6
ENDBRANCH   1   4
BRANCH   1  53
ATOM     53  C   UNL     1      -7.300   3.863 125.129  0.00  0.00    +0.000 C 
ATOM     54  O   UNL     1      -8.372   4.400 125.415  0.00  0.00    +0.000 OA
ATOM     55  N   UNL     1      -7.216   2.501 124.774  0.00  0.00    +0.000 N 
ATOM     56  H   UNL     1      -6.400   2.142 124.268  0.00  0.00    +0.000 HD
BRANCH  55  57
ATOM     57  C   UNL     1      -8.447   1.675 124.598  0.00  0.00    +0.000 C 
BRANCH  57  58
ATOM     58  C   UNL     1      -8.573   0.430 125.607  0.00  0.00    +0.000 C 
ATOM     59  O   UNL     1      -9.300   0.519 126.600  0.00  0.00    +0.000 OA
ATOM     60  N   UNL     1      -7.990  -0.793 125.245  0.00  0.00    +0.000 N 
ATOM     61  C   UNL     1      -6.622  -1.080 124.835  0.00  0.00    +0.000 C 
ATOM     62  C   UNL     1      -6.819  -2.223 123.876  0.00  0.00    +0.000 C 
ATOM     63  C   UNL     1      -7.804  -3.098 124.630  0.00  0.00    +0.000 C 
ATOM     64  C   UNL     1      -8.642  -2.115 125.489  0.00  0.00    +0.000 C 
BRANCH  64  65
ATOM     65  C   UNL     1      -8.483  -2.643 126.931  0.00  0.00    +0.000 C 
ATOM     66  O   UNL     1      -8.964  -3.731 127.252  0.00  0.00    +0.000 OA
ATOM     67  N   UNL     1      -7.890  -1.795 127.864  0.00  0.00    +0.000 N 
ATOM     68  H   UNL     1      -7.688  -0.826 127.634  0.00  0.00    +0.000 HD
BRANCH  67  69
ATOM     69  C   UNL     1      -7.467  -2.243 129.216  0.00  0.00    +0.000 C 
BRANCH  69  70
ATOM     70  C   UNL     1      -7.058  -1.064 130.126  0.00  0.00    +0.000 C 
ATOM     71  O   UNL     1      -5.872  -0.762 130.252  0.00  0.00    +0.000 OA
ATOM     72  N   UNL     1      -8.070  -0.445 130.845  0.00  0.00    +0.000 N 
ATOM     73  H   UNL     1      -8.924  -0.956 130.995  0.00  0.00    +0.000 HD
BRANCH  72  74
ATOM     74  C   UNL     1      -7.850   0.816 131.593  0.00  0.00    +0.000 C 
BRANCH  74  75
ATOM     75  C   UNL     1      -7.186   0.625 132.987  0.00  0.00    +0.000 C 
ATOM     76  N   UNL     1      -6.707  -0.612 133.323  0.00  0.00    +0.000 N 
ATOM     77  O   UNL     1      -7.092   1.533 133.811  0.00  0.00    +0.000 OA
ATOM     78  H   UNL     1      -6.690  -1.427 132.737  0.00  0.00    +0.000 HD
ATOM     79  H   UNL     1      -6.283  -0.707 134.239  0.00  0.00    +0.000 HD
ENDBRANCH  74  75
BRANCH  74  80
ATOM     80  C   UNL     1      -9.187   1.596 131.806  0.00  0.00    +0.000 C 
BRANCH  80  81
ATOM     81  C   UNL     1      -9.459   2.636 130.732  0.00  0.00    +0.000 A 
ATOM     82  C   UNL     1      -8.657   2.731 129.591  0.00  0.00    +0.000 A 
ATOM     83  C   UNL     1      -8.612   3.940 128.876  0.00  0.00    +0.000 A 
ATOM     84  C   UNL     1      -9.453   5.040 129.176  0.00  0.00    +0.000 A 
ATOM     85  C   UNL     1     -10.332   4.878 130.269  0.00  0.00    +0.000 A 
ATOM     86  I   UNL     1     -11.617   6.334 131.106  0.00  0.00    +0.000 I 
ATOM     87  C   UNL     1     -10.331   3.688 131.022  0.00  0.00    +0.000 A 
BRANCH  84  88
ATOM     88  N   UNL     1      -9.216   6.171 128.369  0.00  0.00    +0.000 NA
ATOM     89  N   UNL     1     -10.038   6.418 127.422  0.00  0.00    +0.000 NA
ATOM     90  N   UNL     1     -10.721   6.687 126.592  0.00  0.00    +0.000 NA
ENDBRANCH  84  88
ENDBRANCH  80  81
ENDBRANCH  74  80
ENDBRANCH  72  74
ENDBRANCH  69  70
BRANCH  69  91
ATOM     91  C   UNL     1      -6.164  -3.036 129.165  0.00  0.00    +0.000 C 
BRANCH  91  92
ATOM     92  C   UNL     1      -6.156  -4.180 130.138  0.00  0.00    +0.000 C 
BRANCH  92  93
ATOM     93  C   UNL     1      -4.950  -4.185 131.023  0.00  0.00    +0.000 C 
BRANCH  93  94
ATOM     94  N   UNL     1      -5.232  -3.241 132.079  0.00  0.00    +0.000 NA
ATOM     95  H   UNL     1      -4.416  -3.100 132.669  0.00  0.00    +0.000 HD
ATOM     96  H   UNL     1      -6.020  -3.549 132.632  0.00  0.00    +0.000 HD
ENDBRANCH  93  94
ENDBRANCH  92  93
ENDBRANCH  91  92
ENDBRANCH  69  91
ENDBRANCH  67  69
ENDBRANCH  64  65
ENDBRANCH  57  58
BRANCH  57  97
ATOM     97  C   UNL     1      -8.621   1.153 123.179  0.00  0.00    +0.000 C 
BRANCH  97  98
ATOM     98  S   UNL     1     -10.131   0.401 122.477  0.00  0.00    +0.000 S 
ATOM     99  H   UNL     1     -10.939   0.759 123.485  0.00  0.00    +0.000 HD
ENDBRANCH  97  98
ENDBRANCH  57  97
ENDBRANCH  55  57
ENDBRANCH   1  53
BRANCH   1 100
ATOM    100  C   UNL     1      -5.010   4.426 123.689  0.00  0.00    +0.000 C 
BRANCH 100 101
ATOM    101  C   UNL     1      -5.155   4.501 121.864  0.00  0.00    +0.000 C 
ATOM    102  N   UNL     1      -5.905   3.714 120.884  0.00  0.00    +0.000 N 
ATOM    103  O   UNL     1      -4.515   5.411 121.319  0.00  0.00    +0.000 OA
ATOM    104  H   UNL     1      -6.656   3.001 121.009  0.00  0.00    +0.000 HD
ATOM    105  H   UNL     1      -6.365   4.257 120.155  0.00  0.00    +0.000 HD
ENDBRANCH 100 101
ENDBRANCH   1 100
TORSDOF 39
ENDMDL
MODEL 2
REMARK VINA RESULT:      -9.4      3.207      7.980
REMARK  Name = CHEMBL3142790
REMARK  43 active torsions:
REMARK  status: ('A' for Active; 'I' for Inactive)
REMARK    1  A    between atoms: C_1  and  C_2
REMARK    2  A    between atoms: C_2  and  C_3
REMARK    3  A    between atoms: C_3  and  C_4
REMARK    4  A    between atoms: C_3  and  C_5
REMARK    5  A    between atoms: C_5  and  N_6
REMARK    6  A    between atoms: C_5  and  C_35
REMARK    7  A    between atoms: C_7  and  C_9
REMARK    8  A    between atoms: C_9  and  C_10
REMARK    9  A    between atoms: C_9  and  N_19
REMARK   10  A    between atoms: C_10  and  C_11
REMARK   11  A    between atoms: C_14  and  O_15
REMARK   12  A    between atoms: O_15  and  C_16
REMARK   13  A    between atoms: C_20  and  C_22
REMARK   14  A    between atoms: C_22  and  C_23
REMARK   15  A    between atoms: C_23  and  S_24
REMARK   16  A    between atoms: S_24  and  C_25
REMARK   17  A    between atoms: C_25  and  C_26
REMARK   18  A    between atoms: C_26  and  C_27
REMARK   19  A    between atoms: N_37  and  C_38
REMARK   20  A    between atoms: C_38  and  C_39
REMARK   21  A    between atoms: C_38  and  C_86
REMARK   22  A    between atoms: N_41  and  C_42
REMARK   23  A    between atoms: C_42  and  C_43
REMARK   24  A    between atoms: C_42  and  C_47
REMARK   25  A    between atoms: C_43  and  C_44
REMARK   26  A    between atoms: N_49  and  C_50
REMARK   27  A    between atoms: C_50  and  C_51
REMARK   28  A    between atoms: C_50  and  C_53
REMARK   29  A    between atoms: C_51  and  S_52
REMARK   30  A    between atoms: C_59  and  C_60
REMARK   31  A    between atoms: N_62  and  C_63
REMARK   32  A    between atoms: C_63  and  C_64
REMARK   33  A    between atoms: C_63  and  C_68
REMARK   34  A    between atoms: C_64  and  C_65
REMARK   35  A    between atoms: C_65  and  C_66
REMARK   36  A    between atoms: C_66  and  N_67
REMARK   37  A    between atoms: N_70  and  C_71
REMARK   38  A    between atoms: C_71  and  C_72
REMARK   39  A    between atoms: C_71  and  C_83
REMARK   40  A    between atoms: C_72  and  C_73
REMARK   41  A    between atoms: C_76  and  N_77
REMARK   42  A    between atoms: C_86  and  C_87
REMARK   43  A    between atoms: C_86  and  O_88
REMARK                            x       y       z     vdW  Elec       q    Type
REMARK                         _______ _______ _______ _____ _____    ______ ____
ROOT
ATOM      1  C   UNL     1      -8.131  -2.409 126.349  0.00  0.00    +0.000 C 
ENDROOT
BRANCH   1   4
ATOM      2  C   UNL     1      -8.813   0.170 124.993  0.00  0.00    +0.000 C 
ATOM      3  O   UNL     1      -9.248  -0.053 123.819  0.00  0.00    +0.000 OA
ATOM      4  N   UNL     1      -8.377  -0.662 126.173  0.00  0.00    +0.000 N 
ATOM      5  H   UNL     1      -8.708  -0.315 127.072  0.00  0.00    +0.000 HD
BRANCH   2   6
ATOM      6  C   UNL     1      -8.947   1.576 124.881  0.00  0.00    +0.000 C 
BRANCH   6   9
ATOM      7  C   UNL     1      -8.028   2.189 127.316  0.00  0.00    +0.000 C 
ATOM      8  O   UNL     1      -8.286   2.092 128.522  0.00  0.00    +0.000 OA
ATOM      9  N   UNL     1      -9.089   1.797 126.381  0.00  0.00    +0.000 N 
ATOM     10  H   UNL     1      -9.521   0.969 126.798  0.00  0.00    +0.000 HD
BRANCH   7  11
ATOM     11  C   UNL     1      -6.490   2.852 126.849  0.00  0.00    +0.000 C 
BRANCH  11  12
ATOM     12  N   UNL     1      -5.964   3.760 127.837  0.00  0.00    +0.000 N 
ATOM     13  C   UNL     1      -5.630   3.349 129.114  0.00  0.00    +0.000 C 
ATOM     14  O   UNL     1      -5.415   2.214 129.524  0.00  0.00    +0.000 OA
ATOM     15  H   UNL     1      -5.363   4.471 127.431  0.00  0.00    +0.000 HD
BRANCH  13  16
ATOM     16  C   UNL     1      -5.371   4.449 130.058  0.00  0.00    +0.000 C 
BRANCH  16  17
ATOM     17  N   UNL     1      -6.544   4.691 130.941  0.00  0.00    +0.000 N 
ATOM     18  C   UNL     1      -7.067   5.959 130.984  0.00  0.00    +0.000 C 
ATOM     19  O   UNL     1      -6.469   6.865 130.411  0.00  0.00    +0.000 OA
ATOM     20  H   UNL     1      -7.121   3.912 131.231  0.00  0.00    +0.000 HD
BRANCH  18  21
ATOM     21  C   UNL     1      -8.339   6.190 131.805  0.00  0.00    +0.000 C 
BRANCH  21  22
ATOM     22  C   UNL     1      -9.645   6.222 130.920  0.00  0.00    +0.000 C 
ATOM     23  C   UNL     1     -10.891   6.346 131.837  0.00  0.00    +0.000 C 
ATOM     24  C   UNL     1     -12.195   6.634 131.103  0.00  0.00    +0.000 C 
ATOM     25  C   UNL     1     -12.083   7.791 130.119  0.00  0.00    +0.000 C 
ATOM     26  C   UNL     1     -10.836   7.798 129.254  0.00  0.00    +0.000 C 
ATOM     27  C   UNL     1      -9.583   7.491 130.034  0.00  0.00    +0.000 C 
BRANCH  22  28
ATOM     28  S   UNL     1      -9.687   4.548 130.014  0.00  0.00    +0.000 S 
BRANCH  28  29
ATOM     29  C   UNL     1     -10.508   3.373 131.126  0.00  0.00    +0.000 C 
BRANCH  29  30
ATOM     30  C   UNL     1      -9.636   2.784 132.196  0.00  0.00    +0.000 C 
BRANCH  30  31
ATOM     31  C   UNL     1      -9.086   1.421 131.772  0.00  0.00    +0.000 C 
ATOM     32  N   UNL     1      -7.853   1.326 131.185  0.00  0.00    +0.000 N 
ATOM     33  O   UNL     1      -9.739   0.393 131.944  0.00  0.00    +0.000 OA
ATOM     34  H   UNL     1      -7.209   2.083 131.000  0.00  0.00    +0.000 HD
ATOM     35  H   UNL     1      -7.535   0.400 130.926  0.00  0.00    +0.000 HD
ENDBRANCH  30  31
ENDBRANCH  29  30
ENDBRANCH  28  29
ENDBRANCH  22  28
ENDBRANCH  21  22
ENDBRANCH  18  21
ENDBRANCH  16  17
BRANCH  16  36
ATOM     36  C   UNL     1      -4.212   3.798 130.768  0.00  0.00    +0.000 C 
BRANCH  36  37
ATOM     37  C   UNL     1      -3.109   4.679 131.115  0.00  0.00    +0.000 A 
ATOM     38  C   UNL     1      -2.233   4.265 132.101  0.00  0.00    +0.000 A 
ATOM     39  C   UNL     1      -1.299   5.137 132.555  0.00  0.00    +0.000 A 
ATOM     40  C   UNL     1      -1.137   6.350 131.904  0.00  0.00    +0.000 A 
ATOM     41  C   UNL     1      -1.986   6.739 130.857  0.00  0.00    +0.000 A 
ATOM     42  C   UNL     1      -2.996   5.898 130.455  0.00  0.00    +0.000 A 
BRANCH  40  43
ATOM     43  O   UNL     1      -0.074   7.058 132.371  0.00  0.00    +0.000 OA
ATOM     44  C   UNL     1      -0.125   7.353 133.751  0.00  0.00    +0.000 C 
ENDBRANCH  40  43
ENDBRANCH  36  37
ENDBRANCH  16  36
ENDBRANCH  13  16
ENDBRANCH  11  12
BRANCH  11  45
ATOM     45  C   UNL     1      -5.226   1.757 126.368  0.00  0.00    +0.000 C 
ATOM     46  C   UNL     1      -5.187   0.281 126.957  0.00  0.00    +0.000 C 
BRANCH  45  48
ATOM     47  C   UNL     1      -2.471   3.236 127.292  0.00  0.00    +0.000 C 
ATOM     48  C   UNL     1      -3.558   2.215 126.418  0.00  0.00    +0.000 C 
ENDBRANCH  45  48
ENDBRANCH  11  45
ENDBRANCH   7  11
ENDBRANCH   6   9
BRANCH   6  49
ATOM     49  C   UNL     1      -7.981   2.043 123.844  0.00  0.00    +0.000 C 
ATOM     50  C   UNL     1      -7.404   3.502 123.943  0.00  0.00    +0.000 C 
BRANCH  49  51
ATOM     51  O   UNL     1      -6.859   1.185 124.001  0.00  0.00    +0.000 OA
ATOM     52  H   UNL     1      -6.296   1.319 123.209  0.00  0.00    +0.000 HD
ENDBRANCH  49  51
ENDBRANCH   6  49
ENDBRANCH   2   6
ENDBRANCH   1   4
BRANCH   1  53
ATOM     53  C   UNL     1      -7.958  -2.976 127.797  0.00  0.00    +0.000 C 
ATOM     54  O   UNL     1      -8.652  -3.949 128.097  0.00  0.00    +0.000 OA
ATOM     55  N   UNL     1      -6.967  -2.466 128.661  0.00  0.00    +0.000 N 
ATOM     56  H   UNL     1      -6.218  -1.866 128.302  0.00  0.00    +0.000 HD
BRANCH  55  57
ATOM     57  C   UNL     1      -6.620  -3.171 129.931  0.00  0.00    +0.000 C 
BRANCH  57  58
ATOM     58  C   UNL     1      -6.447  -2.209 131.208  0.00  0.00    +0.000 C 
ATOM     59  O   UNL     1      -6.176  -1.017 131.043  0.00  0.00    +0.000 OA
ATOM     60  N   UNL     1      -6.781  -2.706 132.477  0.00  0.00    +0.000 N 
ATOM     61  C   UNL     1      -6.321  -3.915 133.146  0.00  0.00    +0.000 C 
ATOM     62  C   UNL     1      -7.524  -4.291 133.968  0.00  0.00    +0.000 C 
ATOM     63  C   UNL     1      -7.928  -2.953 134.562  0.00  0.00    +0.000 C 
ATOM     64  C   UNL     1      -7.494  -1.898 133.511  0.00  0.00    +0.000 C 
BRANCH  64  65
ATOM     65  C   UNL     1      -6.584  -0.931 134.299  0.00  0.00    +0.000 C 
ATOM     66  O   UNL     1      -6.373  -1.114 135.499  0.00  0.00    +0.000 OA
ATOM     67  N   UNL     1      -6.121   0.201 133.632  0.00  0.00    +0.000 N 
ATOM     68  H   UNL     1      -6.471   0.443 132.710  0.00  0.00    +0.000 HD
BRANCH  67  69
ATOM     69  C   UNL     1      -5.065   1.091 134.181  0.00  0.00    +0.000 C 
BRANCH  69  70
ATOM     70  C   UNL     1      -5.500   2.574 134.205  0.00  0.00    +0.000 C 
ATOM     71  O   UNL     1      -6.334   2.987 133.400  0.00  0.00    +0.000 OA
ATOM     72  N   UNL     1      -4.843   3.407 135.097  0.00  0.00    +0.000 N 
ATOM     73  H   UNL     1      -3.944   3.115 135.442  0.00  0.00    +0.000 HD
BRANCH  72  74
ATOM     74  C   UNL     1      -5.296   4.793 135.364  0.00  0.00    +0.000 C 
BRANCH  74  75
ATOM     75  C   UNL     1      -4.596   5.874 134.490  0.00  0.00    +0.000 C 
ATOM     76  N   UNL     1      -3.472   6.484 134.975  0.00  0.00    +0.000 N 
ATOM     77  O   UNL     1      -5.022   6.220 133.390  0.00  0.00    +0.000 OA
ATOM     78  H   UNL     1      -3.001   6.275 135.837  0.00  0.00    +0.000 HD
ATOM     79  H   UNL     1      -3.039   7.186 134.386  0.00  0.00    +0.000 HD
ENDBRANCH  74  75
BRANCH  74  80
ATOM     80  C   UNL     1      -5.088   5.185 136.863  0.00  0.00    +0.000 C 
BRANCH  80  81
ATOM     81  C   UNL     1      -6.114   6.181 137.376  0.00  0.00    +0.000 A 
ATOM     82  C   UNL     1      -7.478   6.019 137.118  0.00  0.00    +0.000 A 
ATOM     83  C   UNL     1      -8.329   7.137 137.170  0.00  0.00    +0.000 A 
ATOM     84  C   UNL     1      -7.895   8.411 137.610  0.00  0.00    +0.000 A 
ATOM     85  C   UNL     1      -6.533   8.522 137.967  0.00  0.00    +0.000 A 
ATOM     86  I   UNL     1      -5.492  10.277 138.521  0.00  0.00    +0.000 I 
ATOM     87  C   UNL     1      -5.669   7.416 137.855  0.00  0.00    +0.000 A 
BRANCH  84  88
ATOM     88  N   UNL     1      -8.893   9.404 137.543  0.00  0.00    +0.000 NA
ATOM     89  N   UNL     1      -9.346   9.879 138.638  0.00  0.00    +0.000 NA
ATOM     90  N   UNL     1      -9.770  10.333 139.556  0.00  0.00    +0.000 NA
ENDBRANCH  84  88
ENDBRANCH  80  81
ENDBRANCH  74  80
ENDBRANCH  72  74
ENDBRANCH  69  70
BRANCH  69  91
ATOM     91  C   UNL     1      -3.850   1.161 133.260  0.00  0.00    +0.000 C 
BRANCH  91  92
ATOM     92  C   UNL     1      -2.699   0.346 133.774  0.00  0.00    +0.000 C 
BRANCH  92  93
ATOM     93  C   UNL     1      -2.466  -0.901 132.982  0.00  0.00    +0.000 C 
BRANCH  93  94
ATOM     94  N   UNL     1      -3.459  -1.847 133.433  0.00  0.00    +0.000 NA
ATOM     95  H   UNL     1      -3.921  -2.294 132.646  0.00  0.00    +0.000 HD
ATOM     96  H   UNL     1      -4.138  -1.394 134.031  0.00  0.00    +0.000 HD
ENDBRANCH  93  94
ENDBRANCH  92  93
ENDBRANCH  91  92
ENDBRANCH  69  91
ENDBRANCH  67  69
ENDBRANCH  64  65
ENDBRANCH  57  58
BRANCH  57  97
ATOM     97  C   UNL     1      -5.373  -4.035 129.817  0.00  0.00    +0.000 C 
BRANCH  97  98
ATOM     98  S   UNL     1      -3.642  -3.465 129.945  0.00  0.00    +0.000 S 
ATOM     99  H   UNL     1      -3.271  -3.894 128.729  0.00  0.00    +0.000 HD
ENDBRANCH  97  98
ENDBRANCH  57  97
ENDBRANCH  55  57
ENDBRANCH   1  53
BRANCH   1 100
ATOM    100  C   UNL     1      -7.280  -3.341 125.143  0.00  0.00    +0.000 C 
BRANCH 100 101
ATOM    101  C   UNL     1      -5.661  -3.223 124.293  0.00  0.00    +0.000 C 
ATOM    102  N   UNL     1      -4.770  -4.216 123.690  0.00  0.00    +0.000 N 
ATOM    103  O   UNL     1      -5.212  -2.077 124.166  0.00  0.00    +0.000 OA
ATOM    104  H   UNL     1      -4.915  -5.227 123.476  0.00  0.00    +0.000 HD
ATOM    105  H   UNL     1      -4.373  -3.950 122.790  0.00  0.00    +0.000 HD
ENDBRANCH 100 101
ENDBRANCH   1 100
TORSDOF 39
ENDMDL
MODEL 3
REMARK VINA RESULT:      -9.0      3.130      7.355
REMARK  Name = CHEMBL3142790
REMARK  43 active torsions:
REMARK  status: ('A' for Active; 'I' for Inactive)
REMARK    1  A    between atoms: C_1  and  C_2
REMARK    2  A    between atoms: C_2  and  C_3
REMARK    3  A    between atoms: C_3  and  C_4
REMARK    4  A    between atoms: C_3  and  C_5
REMARK    5  A    between atoms: C_5  and  N_6
REMARK    6  A    between atoms: C_5  and  C_35
REMARK    7  A    between atoms: C_7  and  C_9
REMARK    8  A    between atoms: C_9  and  C_10
REMARK    9  A    between atoms: C_9  and  N_19
REMARK   10  A    between atoms: C_10  and  C_11
REMARK   11  A    between atoms: C_14  and  O_15
REMARK   12  A    between atoms: O_15  and  C_16
REMARK   13  A    between atoms: C_20  and  C_22
REMARK   14  A    between atoms: C_22  and  C_23
REMARK   15  A    between atoms: C_23  and  S_24
REMARK   16  A    between atoms: S_24  and  C_25
REMARK   17  A    between atoms: C_25  and  C_26
REMARK   18  A    between atoms: C_26  and  C_27
REMARK   19  A    between atoms: N_37  and  C_38
REMARK   20  A    between atoms: C_38  and  C_39
REMARK   21  A    between atoms: C_38  and  C_86
REMARK   22  A    between atoms: N_41  and  C_42
REMARK   23  A    between atoms: C_42  and  C_43
REMARK   24  A    between atoms: C_42  and  C_47
REMARK   25  A    between atoms: C_43  and  C_44
REMARK   26  A    between atoms: N_49  and  C_50
REMARK   27  A    between atoms: C_50  and  C_51
REMARK   28  A    between atoms: C_50  and  C_53
REMARK   29  A    between atoms: C_51  and  S_52
REMARK   30  A    between atoms: C_59  and  C_60
REMARK   31  A    between atoms: N_62  and  C_63
REMARK   32  A    between atoms: C_63  and  C_64
REMARK   33  A    between atoms: C_63  and  C_68
REMARK   34  A    between atoms: C_64  and  C_65
REMARK   35  A    between atoms: C_65  and  C_66
REMARK   36  A    between atoms: C_66  and  N_67
REMARK   37  A    between atoms: N_70  and  C_71
REMARK   38  A    between atoms: C_71  and  C_72
REMARK   39  A    between atoms: C_71  and  C_83
REMARK   40  A    between atoms: C_72  and  C_73
REMARK   41  A    between atoms: C_76  and  N_77
REMARK   42  A    between atoms: C_86  and  C_87
REMARK   43  A    between atoms: C_86  and  O_88
REMARK                            x       y       z     vdW  Elec       q    Type
REMARK                         _______ _______ _______ _____ _____    ______ ____
ROOT
ATOM      1  C   UNL     1      -6.879   2.790 133.729  0.00  0.00    +0.000 C 
ENDROOT
BRANCH   1   4
ATOM      2  C   UNL     1      -5.658   4.776 135.605  0.00  0.00    +0.000 C 
ATOM      3  O   UNL     1      -5.448   5.876 135.003  0.00  0.00    +0.000 OA
ATOM      4  N   UNL     1      -6.284   3.446 135.265  0.00  0.00    +0.000 N 
ATOM      5  H   UNL     1      -6.876   3.063 136.002  0.00  0.00    +0.000 HD
BRANCH   2   6
ATOM      6  C   UNL     1      -5.148   5.241 136.842  0.00  0.00    +0.000 C 
BRANCH   6   9
ATOM      7  C   UNL     1      -7.021   6.552 138.230  0.00  0.00    +0.000 C 
ATOM      8  O   UNL     1      -8.069   6.393 138.867  0.00  0.00    +0.000 OA
ATOM      9  N   UNL     1      -6.521   5.391 137.483  0.00  0.00    +0.000 N 
ATOM     10  H   UNL     1      -6.691   4.588 138.092  0.00  0.00    +0.000 HD
BRANCH   7  11
ATOM     11  C   UNL     1      -6.297   8.132 138.206  0.00  0.00    +0.000 C 
BRANCH  11  12
ATOM     12  N   UNL     1      -5.107   8.176 137.393  0.00  0.00    +0.000 N 
ATOM     13  C   UNL     1      -3.873   8.524 137.910  0.00  0.00    +0.000 C 
ATOM     14  O   UNL     1      -3.506   8.536 139.079  0.00  0.00    +0.000 OA
ATOM     15  H   UNL     1      -5.099   7.456 136.677  0.00  0.00    +0.000 HD
BRANCH  13  16
ATOM     16  C   UNL     1      -2.839   8.777 136.894  0.00  0.00    +0.000 C 
BRANCH  16  17
ATOM     17  N   UNL     1      -3.041   7.924 135.691  0.00  0.00    +0.000 N 
ATOM     18  C   UNL     1      -2.016   7.096 135.308  0.00  0.00    +0.000 C 
ATOM     19  O   UNL     1      -0.933   7.195 135.877  0.00  0.00    +0.000 OA
ATOM     20  H   UNL     1      -3.981   7.719 135.376  0.00  0.00    +0.000 HD
BRANCH  18  21
ATOM     21  C   UNL     1      -2.258   6.137 134.139  0.00  0.00    +0.000 C 
BRANCH  21  22
ATOM     22  C   UNL     1      -2.057   6.822 132.731  0.00  0.00    +0.000 C 
ATOM     23  C   UNL     1      -1.793   5.732 131.657  0.00  0.00    +0.000 C 
ATOM     24  C   UNL     1      -1.826   6.234 130.219  0.00  0.00    +0.000 C 
ATOM     25  C   UNL     1      -3.062   7.068 129.906  0.00  0.00    +0.000 C 
ATOM     26  C   UNL     1      -3.447   8.090 130.960  0.00  0.00    +0.000 C 
ATOM     27  C   UNL     1      -3.380   7.537 132.362  0.00  0.00    +0.000 C 
BRANCH  22  28
ATOM     28  S   UNL     1      -0.512   7.919 132.914  0.00  0.00    +0.000 S 
BRANCH  28  29
ATOM     29  C   UNL     1      -1.103   9.617 133.157  0.00  0.00    +0.000 C 
BRANCH  29  30
ATOM     30  C   UNL     1      -0.034  10.668 133.213  0.00  0.00    +0.000 C 
BRANCH  30  31
ATOM     31  C   UNL     1      -0.548  12.007 132.683  0.00  0.00    +0.000 C 
ATOM     32  N   UNL     1      -1.818  12.108 132.181  0.00  0.00    +0.000 N 
ATOM     33  O   UNL     1       0.164  13.009 132.693  0.00  0.00    +0.000 OA
ATOM     34  H   UNL     1      -2.510  11.374 132.128  0.00  0.00    +0.000 HD
ATOM     35  H   UNL     1      -2.110  13.018 131.845  0.00  0.00    +0.000 HD
ENDBRANCH  30  31
ENDBRANCH  29  30
ENDBRANCH  28  29
ENDBRANCH  22  28
ENDBRANCH  21  22
ENDBRANCH  18  21
ENDBRANCH  16  17
BRANCH  16  36
ATOM     36  C   UNL     1      -3.175  10.228 136.660  0.00  0.00    +0.000 C 
BRANCH  36  37
ATOM     37  C   UNL     1      -2.044  11.137 136.605  0.00  0.00    +0.000 A 
ATOM     38  C   UNL     1      -2.283  12.449 136.238  0.00  0.00    +0.000 A 
ATOM     39  C   UNL     1      -1.227  13.270 136.019  0.00  0.00    +0.000 A 
ATOM     40  C   UNL     1       0.048  12.827 136.335  0.00  0.00    +0.000 A 
ATOM     41  C   UNL     1       0.280  11.514 136.773  0.00  0.00    +0.000 A 
ATOM     42  C   UNL     1      -0.777  10.647 136.905  0.00  0.00    +0.000 A 
BRANCH  40  43
ATOM     43  O   UNL     1       0.989  13.800 136.204  0.00  0.00    +0.000 OA
ATOM     44  C   UNL     1       1.977  13.802 137.214  0.00  0.00    +0.000 C 
ENDBRANCH  40  43
ENDBRANCH  36  37
ENDBRANCH  16  36
ENDBRANCH  13  16
ENDBRANCH  11  12
BRANCH  11  45
ATOM     45  C   UNL     1      -7.298   9.498 137.803  0.00  0.00    +0.000 C 
ATOM     46  C   UNL     1      -7.432  10.712 138.820  0.00  0.00    +0.000 C 
BRANCH  45  48
ATOM     47  C   UNL     1     -10.513   8.961 137.845  0.00  0.00    +0.000 C 
ATOM     48  C   UNL     1      -8.926   9.302 137.251  0.00  0.00    +0.000 C 
ENDBRANCH  45  48
ENDBRANCH  11  45
ENDBRANCH   7  11
ENDBRANCH   6   9
BRANCH   6  49
ATOM     49  C   UNL     1      -3.929   4.441 137.160  0.00  0.00    +0.000 C 
ATOM     50  C   UNL     1      -4.040   3.263 138.197  0.00  0.00    +0.000 C 
BRANCH  49  51
ATOM     51  O   UNL     1      -3.585   3.823 135.927  0.00  0.00    +0.000 OA
ATOM     52  H   UNL     1      -2.779   3.293 136.100  0.00  0.00    +0.000 HD
ENDBRANCH  49  51
ENDBRANCH   6  49
ENDBRANCH   2   6
ENDBRANCH   1   4
BRANCH   1  53
ATOM     53  C   UNL     1      -5.915   1.868 132.912  0.00  0.00    +0.000 C 
ATOM     54  O   UNL     1      -4.798   2.322 132.658  0.00  0.00    +0.000 OA
ATOM     55  N   UNL     1      -6.276   0.542 132.595  0.00  0.00    +0.000 N 
ATOM     56  H   UNL     1      -7.073   0.092 133.057  0.00  0.00    +0.000 HD
BRANCH  55  57
ATOM     57  C   UNL     1      -5.269  -0.420 132.055  0.00  0.00    +0.000 C 
BRANCH  57  58
ATOM     58  C   UNL     1      -5.243  -0.538 130.452  0.00  0.00    +0.000 C 
ATOM     59  O   UNL     1      -4.272  -0.109 129.823  0.00  0.00    +0.000 OA
ATOM     60  N   UNL     1      -6.244  -1.286 129.815  0.00  0.00    +0.000 N 
ATOM     61  C   UNL     1      -7.692  -1.175 129.926  0.00  0.00    +0.000 C 
ATOM     62  C   UNL     1      -8.128  -2.601 129.725  0.00  0.00    +0.000 C 
ATOM     63  C   UNL     1      -7.281  -3.023 128.538  0.00  0.00    +0.000 C 
ATOM     64  C   UNL     1      -5.979  -2.188 128.655  0.00  0.00    +0.000 C 
BRANCH  64  65
ATOM     65  C   UNL     1      -5.873  -1.461 127.297  0.00  0.00    +0.000 C 
ATOM     66  O   UNL     1      -5.369  -0.338 127.229  0.00  0.00    +0.000 OA
ATOM     67  N   UNL     1      -6.471  -2.070 126.195  0.00  0.00    +0.000 N 
ATOM     68  H   UNL     1      -7.059  -2.890 126.307  0.00  0.00    +0.000 HD
BRANCH  67  69
ATOM     69  C   UNL     1      -6.257  -1.609 124.799  0.00  0.00    +0.000 C 
BRANCH  69  70
ATOM     70  C   UNL     1      -7.059  -0.329 124.472  0.00  0.00    +0.000 C 
ATOM     71  O   UNL     1      -6.791   0.330 123.469  0.00  0.00    +0.000 OA
ATOM     72  N   UNL     1      -8.006   0.072 125.402  0.00  0.00    +0.000 N 
ATOM     73  H   UNL     1      -7.920  -0.270 126.344  0.00  0.00    +0.000 HD
BRANCH  72  74
ATOM     74  C   UNL     1      -8.977   1.157 125.122  0.00  0.00    +0.000 C 
BRANCH  74  75
ATOM     75  C   UNL     1      -9.637   1.078 123.715  0.00  0.00    +0.000 C 
ATOM     76  N   UNL     1      -9.389   2.079 122.816  0.00  0.00    +0.000 N 
ATOM     77  O   UNL     1     -10.390   0.165 123.383  0.00  0.00    +0.000 OA
ATOM     78  H   UNL     1      -8.773   2.860 122.945  0.00  0.00    +0.000 HD
ATOM     79  H   UNL     1      -9.835   2.002 121.909  0.00  0.00    +0.000 HD
ENDBRANCH  74  75
BRANCH  74  80
ATOM     80  C   UNL     1      -8.316   2.567 125.259  0.00  0.00    +0.000 C 
BRANCH  80  81
ATOM     81  C   UNL     1      -7.577   2.764 126.571  0.00  0.00    +0.000 A 
ATOM     82  C   UNL     1      -8.264   2.944 127.774  0.00  0.00    +0.000 A 
ATOM     83  C   UNL     1      -7.621   3.581 128.850  0.00  0.00    +0.000 A 
ATOM     84  C   UNL     1      -6.249   3.931 128.824  0.00  0.00    +0.000 A 
ATOM     85  C   UNL     1      -5.549   3.640 127.633  0.00  0.00    +0.000 A 
ATOM     86  I   UNL     1      -3.549   4.145 127.166  0.00  0.00    +0.000 I 
ATOM     87  C   UNL     1      -6.211   3.059 126.534  0.00  0.00    +0.000 A 
BRANCH  84  88
ATOM     88  N   UNL     1      -5.813   4.601 129.985  0.00  0.00    +0.000 NA
ATOM     89  N   UNL     1      -6.317   5.745 130.247  0.00  0.00    +0.000 NA
ATOM     90  N   UNL     1      -6.725   6.736 130.528  0.00  0.00    +0.000 NA
ENDBRANCH  84  88
ENDBRANCH  80  81
ENDBRANCH  74  80
ENDBRANCH  72  74
ENDBRANCH  69  70
BRANCH  69  91
ATOM     91  C   UNL     1      -6.848  -2.587 123.786  0.00  0.00    +0.000 C 
BRANCH  91  92
ATOM     92  C   UNL     1      -7.811  -3.548 124.419  0.00  0.00    +0.000 C 
BRANCH  92  93
ATOM     93  C   UNL     1      -9.236  -3.267 124.062  0.00  0.00    +0.000 C 
BRANCH  93  94
ATOM     94  N   UNL     1      -9.788  -2.541 125.181  0.00  0.00    +0.000 NA
ATOM     95  H   UNL     1     -10.099  -1.616 124.897  0.00  0.00    +0.000 HD
ATOM     96  H   UNL     1      -9.112  -2.473 125.930  0.00  0.00    +0.000 HD
ENDBRANCH  93  94
ENDBRANCH  92  93
ENDBRANCH  91  92
ENDBRANCH  69  91
ENDBRANCH  67  69
ENDBRANCH  64  65
ENDBRANCH  57  58
BRANCH  57  97
ATOM     97  C   UNL     1      -5.409  -1.821 132.631  0.00  0.00    +0.000 C 
BRANCH  97  98
ATOM     98  S   UNL     1      -4.293  -3.236 132.329  0.00  0.00    +0.000 S 
ATOM     99  H   UNL     1      -5.092  -4.157 132.889  0.00  0.00    +0.000 HD
ENDBRANCH  97  98
ENDBRANCH  57  97
ENDBRANCH  55  57
ENDBRANCH   1  53
BRANCH   1 100
ATOM    100  C   UNL     1      -7.992   3.681 132.721  0.00  0.00    +0.000 C 
BRANCH 100 101
ATOM    101  C   UNL     1      -9.081   5.139 132.937  0.00  0.00    +0.000 C 
ATOM    102  N   UNL     1     -10.500   5.379 132.666  0.00  0.00    +0.000 N 
ATOM    103  O   UNL     1      -8.540   6.135 133.433  0.00  0.00    +0.000 OA
ATOM    104  H   UNL     1     -11.270   4.723 132.412  0.00  0.00    +0.000 HD
ATOM    105  H   UNL     1     -10.999   5.885 133.396  0.00  0.00    +0.000 HD
ENDBRANCH 100 101
ENDBRANCH   1 100
TORSDOF 39
ENDMDL
MODEL 4
REMARK VINA RESULT:      -9.0      2.856      7.073
REMARK  Name = CHEMBL3142790
REMARK  43 active torsions:
REMARK  status: ('A' for Active; 'I' for Inactive)
REMARK    1  A    between atoms: C_1  and  C_2
REMARK    2  A    between atoms: C_2  and  C_3
REMARK    3  A    between atoms: C_3  and  C_4
REMARK    4  A    between atoms: C_3  and  C_5
REMARK    5  A    between atoms: C_5  and  N_6
REMARK    6  A    between atoms: C_5  and  C_35
REMARK    7  A    between atoms: C_7  and  C_9
REMARK    8  A    between atoms: C_9  and  C_10
REMARK    9  A    between atoms: C_9  and  N_19
REMARK   10  A    between atoms: C_10  and  C_11
REMARK   11  A    between atoms: C_14  and  O_15
REMARK   12  A    between atoms: O_15  and  C_16
REMARK   13  A    between atoms: C_20  and  C_22
REMARK   14  A    between atoms: C_22  and  C_23
REMARK   15  A    between atoms: C_23  and  S_24
REMARK   16  A    between atoms: S_24  and  C_25
REMARK   17  A    between atoms: C_25  and  C_26
REMARK   18  A    between atoms: C_26  and  C_27
REMARK   19  A    between atoms: N_37  and  C_38
REMARK   20  A    between atoms: C_38  and  C_39
REMARK   21  A    between atoms: C_38  and  C_86
REMARK   22  A    between atoms: N_41  and  C_42
REMARK   23  A    between atoms: C_42  and  C_43
REMARK   24  A    between atoms: C_42  and  C_47
REMARK   25  A    between atoms: C_43  and  C_44
REMARK   26  A    between atoms: N_49  and  C_50
REMARK   27  A    between atoms: C_50  and  C_51
REMARK   28  A    between atoms: C_50  and  C_53
REMARK   29  A    between atoms: C_51  and  S_52
REMARK   30  A    between atoms: C_59  and  C_60
REMARK   31  A    between atoms: N_62  and  C_63
REMARK   32  A    between atoms: C_63  and  C_64
REMARK   33  A    between atoms: C_63  and  C_68
REMARK   34  A    between atoms: C_64  and  C_65
REMARK   35  A    between atoms: C_65  and  C_66
REMARK   36  A    between atoms: C_66  and  N_67
REMARK   37  A    between atoms: N_70  and  C_71
REMARK   38  A    between atoms: C_71  and  C_72
REMARK   39  A    between atoms: C_71  and  C_83
REMARK   40  A    between atoms: C_72  and  C_73
REMARK   41  A    between atoms: C_76  and  N_77
REMARK   42  A    between atoms: C_86  and  C_87
REMARK   43  A    between atoms: C_86  and  O_88
REMARK                            x       y       z     vdW  Elec       q    Type
REMARK                         _______ _______ _______ _____ _____    ______ ____
ROOT
ATOM      1  C   UNL     1      -8.792   5.319 130.205  0.00  0.00    +0.000 C 
ENDROOT
BRANCH   1   4
ATOM      2  C   UNL     1      -5.905   5.311 130.992  0.00  0.00    +0.000 C 
ATOM      3  O   UNL     1      -5.247   4.531 130.233  0.00  0.00    +0.000 OA
ATOM      4  N   UNL     1      -7.330   5.798 131.085  0.00  0.00    +0.000 N 
ATOM      5  H   UNL     1      -7.417   6.793 131.290  0.00  0.00    +0.000 HD
BRANCH   2   6
ATOM      6  C   UNL     1      -4.772   5.687 131.753  0.00  0.00    +0.000 C 
BRANCH   6   9
ATOM      7  C   UNL     1      -4.615   3.408 133.144  0.00  0.00    +0.000 C 
ATOM      8  O   UNL     1      -3.960   2.364 133.257  0.00  0.00    +0.000 OA
ATOM      9  N   UNL     1      -4.308   4.255 131.984  0.00  0.00    +0.000 N 
ATOM     10  H   UNL     1      -3.291   4.217 131.887  0.00  0.00    +0.000 HD
BRANCH   7  11
ATOM     11  C   UNL     1      -5.875   3.725 134.298  0.00  0.00    +0.000 C 
BRANCH  11  12
ATOM     12  N   UNL     1      -5.637   4.933 135.048  0.00  0.00    +0.000 N 
ATOM     13  C   UNL     1      -5.111   4.916 136.327  0.00  0.00    +0.000 C 
ATOM     14  O   UNL     1      -4.497   4.019 136.893  0.00  0.00    +0.000 OA
ATOM     15  H   UNL     1      -5.340   5.705 134.459  0.00  0.00    +0.000 HD
BRANCH  13  16
ATOM     16  C   UNL     1      -5.192   6.205 137.033  0.00  0.00    +0.000 C 
BRANCH  16  17
ATOM     17  N   UNL     1      -4.846   7.338 136.133  0.00  0.00    +0.000 N 
ATOM     18  C   UNL     1      -3.796   8.147 136.489  0.00  0.00    +0.000 C 
ATOM     19  O   UNL     1      -3.280   7.995 137.592  0.00  0.00    +0.000 OA
ATOM     20  H   UNL     1      -5.143   7.317 135.166  0.00  0.00    +0.000 HD
BRANCH  18  21
ATOM     21  C   UNL     1      -3.366   9.246 135.513  0.00  0.00    +0.000 C 
BRANCH  21  22
ATOM     22  C   UNL     1      -2.020   8.909 134.762  0.00  0.00    +0.000 C 
ATOM     23  C   UNL     1      -0.822   9.496 135.557  0.00  0.00    +0.000 C 
ATOM     24  C   UNL     1       0.548   9.034 135.075  0.00  0.00    +0.000 C 
ATOM     25  C   UNL     1       0.646   7.523 134.913  0.00  0.00    +0.000 C 
ATOM     26  C   UNL     1      -0.538   6.858 134.236  0.00  0.00    +0.000 C 
ATOM     27  C   UNL     1      -1.863   7.368 134.744  0.00  0.00    +0.000 C 
BRANCH  22  28
ATOM     28  S   UNL     1      -2.147   9.777 133.073  0.00  0.00    +0.000 S 
BRANCH  28  29
ATOM     29  C   UNL     1      -1.548  11.472 133.309  0.00  0.00    +0.000 C 
BRANCH  29  30
ATOM     30  C   UNL     1      -0.242  11.791 132.643  0.00  0.00    +0.000 C 
BRANCH  30  31
ATOM     31  C   UNL     1      -0.418  12.870 131.573  0.00  0.00    +0.000 C 
ATOM     32  N   UNL     1      -1.592  13.568 131.483  0.00  0.00    +0.000 N 
ATOM     33  O   UNL     1       0.484  13.127 130.778  0.00  0.00    +0.000 OA
ATOM     34  H   UNL     1      -2.403  13.470 132.078  0.00  0.00    +0.000 HD
ATOM     35  H   UNL     1      -1.656  14.273 130.759  0.00  0.00    +0.000 HD
ENDBRANCH  30  31
ENDBRANCH  29  30
ENDBRANCH  28  29
ENDBRANCH  22  28
ENDBRANCH  21  22
ENDBRANCH  18  21
ENDBRANCH  16  17
BRANCH  16  36
ATOM     36  C   UNL     1      -6.660   6.131 137.364  0.00  0.00    +0.000 C 
BRANCH  36  37
ATOM     37  C   UNL     1      -7.274   7.376 137.794  0.00  0.00    +0.000 A 
ATOM     38  C   UNL     1      -6.702   8.047 138.858  0.00  0.00    +0.000 A 
ATOM     39  C   UNL     1      -7.349   9.118 139.382  0.00  0.00    +0.000 A 
ATOM     40  C   UNL     1      -8.470   9.611 138.732  0.00  0.00    +0.000 A 
ATOM     41  C   UNL     1      -9.010   8.965 137.610  0.00  0.00    +0.000 A 
ATOM     42  C   UNL     1      -8.412   7.823 137.132  0.00  0.00    +0.000 A 
BRANCH  40  43
ATOM     43  O   UNL     1      -8.929  10.767 139.281  0.00  0.00    +0.000 OA
ATOM     44  C   UNL     1      -9.634  10.603 140.494  0.00  0.00    +0.000 C 
ENDBRANCH  40  43
ENDBRANCH  36  37
ENDBRANCH  16  36
ENDBRANCH  13  16
ENDBRANCH  11  12
BRANCH  11  45
ATOM     45  C   UNL     1      -7.525   3.729 133.745  0.00  0.00    +0.000 C 
ATOM     46  C   UNL     1      -8.666   4.359 134.655  0.00  0.00    +0.000 C 
BRANCH  45  48
ATOM     47  C   UNL     1      -9.139   1.708 131.760  0.00  0.00    +0.000 C 
ATOM     48  C   UNL     1      -8.287   2.296 133.145  0.00  0.00    +0.000 C 
ENDBRANCH  45  48
ENDBRANCH  11  45
ENDBRANCH   7  11
ENDBRANCH   6   9
BRANCH   6  49
ATOM     49  C   UNL     1      -4.168   6.888 131.105  0.00  0.00    +0.000 C 
ATOM     50  C   UNL     1      -2.776   6.748 130.388  0.00  0.00    +0.000 C 
BRANCH  49  51
ATOM     51  O   UNL     1      -5.087   7.227 130.075  0.00  0.00    +0.000 OA
ATOM     52  H   UNL     1      -4.549   7.533 129.314  0.00  0.00    +0.000 HD
ENDBRANCH  49  51
ENDBRANCH   6  49
ENDBRANCH   2   6
ENDBRANCH   1   4
BRANCH   1  53
ATOM     53  C   UNL     1      -8.646   4.982 128.684  0.00  0.00    +0.000 C 
ATOM     54  O   UNL     1      -9.162   5.772 127.890  0.00  0.00    +0.000 OA
ATOM     55  N   UNL     1      -7.859   3.895 128.254  0.00  0.00    +0.000 N 
ATOM     56  H   UNL     1      -7.211   3.430 128.898  0.00  0.00    +0.000 HD
BRANCH  55  57
ATOM     57  C   UNL     1      -7.500   3.727 126.814  0.00  0.00    +0.000 C 
BRANCH  57  58
ATOM     58  C   UNL     1      -7.868   2.291 126.191  0.00  0.00    +0.000 C 
ATOM     59  O   UNL     1      -8.039   1.326 126.940  0.00  0.00    +0.000 OA
ATOM     60  N   UNL     1      -8.161   2.205 124.822  0.00  0.00    +0.000 N 
ATOM     61  C   UNL     1      -7.379   2.659 123.680  0.00  0.00    +0.000 C 
ATOM     62  C   UNL     1      -8.456   3.028 122.695  0.00  0.00    +0.000 C 
ATOM     63  C   UNL     1      -9.402   1.846 122.808  0.00  0.00    +0.000 C 
ATOM     64  C   UNL     1      -9.253   1.350 124.270  0.00  0.00    +0.000 C 
BRANCH  64  65
ATOM     65  C   UNL     1      -8.881  -0.142 124.127  0.00  0.00    +0.000 C 
ATOM     66  O   UNL     1      -8.869  -0.677 123.017  0.00  0.00    +0.000 OA
ATOM     67  N   UNL     1      -8.681  -0.868 125.299  0.00  0.00    +0.000 N 
ATOM     68  H   UNL     1      -8.897  -0.465 126.206  0.00  0.00    +0.000 HD
BRANCH  67  69
ATOM     69  C   UNL     1      -8.101  -2.236 125.317  0.00  0.00    +0.000 C 
BRANCH  69  70
ATOM     70  C   UNL     1      -7.950  -2.793 126.751  0.00  0.00    +0.000 C 
ATOM     71  O   UNL     1      -8.627  -3.753 127.115  0.00  0.00    +0.000 OA
ATOM     72  N   UNL     1      -7.103  -2.104 127.606  0.00  0.00    +0.000 N 
ATOM     73  H   UNL     1      -6.884  -1.147 127.386  0.00  0.00    +0.000 HD
BRANCH  72  74
ATOM     74  C   UNL     1      -6.714  -2.640 128.933  0.00  0.00    +0.000 C 
BRANCH  74  75
ATOM     75  C   UNL     1      -7.088  -1.718 130.129  0.00  0.00    +0.000 C 
ATOM     76  N   UNL     1      -6.562  -0.455 130.174  0.00  0.00    +0.000 N 
ATOM     77  O   UNL     1      -7.818  -2.082 131.048  0.00  0.00    +0.000 OA
ATOM     78  H   UNL     1      -5.983  -0.022 129.479  0.00  0.00    +0.000 HD
ATOM     79  H   UNL     1      -6.821   0.121 130.967  0.00  0.00    +0.000 HD
ENDBRANCH  74  75
BRANCH  74  80
ATOM     80  C   UNL     1      -5.178  -2.920 129.009  0.00  0.00    +0.000 C 
BRANCH  80  81
ATOM     81  C   UNL     1      -4.749  -3.587 130.304  0.00  0.00    +0.000 A 
ATOM     82  C   UNL     1      -5.349  -4.768 130.749  0.00  0.00    +0.000 A 
ATOM     83  C   UNL     1      -5.295  -5.100 132.114  0.00  0.00    +0.000 A 
ATOM     84  C   UNL     1      -4.536  -4.361 133.053  0.00  0.00    +0.000 A 
ATOM     85  C   UNL     1      -3.850  -3.231 132.556  0.00  0.00    +0.000 A 
ATOM     86  I   UNL     1      -2.749  -1.809 133.668  0.00  0.00    +0.000 I 
ATOM     87  C   UNL     1      -3.957  -2.865 131.201  0.00  0.00    +0.000 A 
BRANCH  84  88
ATOM     88  N   UNL     1      -4.654  -4.834 134.376  0.00  0.00    +0.000 NA
ATOM     89  N   UNL     1      -3.668  -5.473 134.878  0.00  0.00    +0.000 NA
ATOM     90  N   UNL     1      -2.841  -6.025 135.368  0.00  0.00    +0.000 NA
ENDBRANCH  84  88
ENDBRANCH  80  81
ENDBRANCH  74  80
ENDBRANCH  72  74
ENDBRANCH  69  70
BRANCH  69  91
ATOM     91  C   UNL     1      -6.647  -2.238 124.852  0.00  0.00    +0.000 C 
BRANCH  91  92
ATOM     92  C   UNL     1      -6.271  -3.521 124.169  0.00  0.00    +0.000 C 
BRANCH  92  93
ATOM     93  C   UNL     1      -4.848  -3.542 123.707  0.00  0.00    +0.000 C 
BRANCH  93  94
ATOM     94  N   UNL     1      -4.481  -4.935 123.620  0.00  0.00    +0.000 NA
ATOM     95  H   UNL     1      -4.929  -5.381 122.824  0.00  0.00    +0.000 HD
ATOM     96  H   UNL     1      -4.716  -5.420 124.476  0.00  0.00    +0.000 HD
ENDBRANCH  93  94
ENDBRANCH  92  93
ENDBRANCH  91  92
ENDBRANCH  69  91
ENDBRANCH  67  69
ENDBRANCH  64  65
ENDBRANCH  57  58
BRANCH  57  97
ATOM     97  C   UNL     1      -6.033   4.007 126.524  0.00  0.00    +0.000 C 
BRANCH  97  98
ATOM     98  S   UNL     1      -4.665   2.798 126.583  0.00  0.00    +0.000 S 
ATOM     99  H   UNL     1      -5.433   1.719 126.366  0.00  0.00    +0.000 HD
ENDBRANCH  97  98
ENDBRANCH  57  97
ENDBRANCH  55  57
ENDBRANCH   1  53
BRANCH   1 100
ATOM    100  C   UNL     1     -10.362   5.963 130.615  0.00  0.00    +0.000 C 
BRANCH 100 101
ATOM    101  C   UNL     1     -11.762   6.700 129.691  0.00  0.00    +0.000 C 
ATOM    102  N   UNL     1     -12.346   8.042 129.656  0.00  0.00    +0.000 N 
ATOM    103  O   UNL     1     -12.340   5.935 128.907  0.00  0.00    +0.000 OA
ATOM    104  H   UNL     1     -12.009   8.946 130.053  0.00  0.00    +0.000 HD
ATOM    105  H   UNL     1     -12.577   8.388 128.726  0.00  0.00    +0.000 HD
ENDBRANCH 100 101
ENDBRANCH   1 100
TORSDOF 39
ENDMDL
MODEL 5
REMARK VINA RESULT:      -8.9      3.762      7.829
REMARK  Name = CHEMBL3142790
REMARK  43 active torsions:
REMARK  status: ('A' for Active; 'I' for Inactive)
REMARK    1  A    between atoms: C_1  and  C_2
REMARK    2  A    between atoms: C_2  and  C_3
REMARK    3  A    between atoms: C_3  and  C_4
REMARK    4  A    between atoms: C_3  and  C_5
REMARK    5  A    between atoms: C_5  and  N_6
REMARK    6  A    between atoms: C_5  and  C_35
REMARK    7  A    between atoms: C_7  and  C_9
REMARK    8  A    between atoms: C_9  and  C_10
REMARK    9  A    between atoms: C_9  and  N_19
REMARK   10  A    between atoms: C_10  and  C_11
REMARK   11  A    between atoms: C_14  and  O_15
REMARK   12  A    between atoms: O_15  and  C_16
REMARK   13  A    between atoms: C_20  and  C_22
REMARK   14  A    between atoms: C_22  and  C_23
REMARK   15  A    between atoms: C_23  and  S_24
REMARK   16  A    between atoms: S_24  and  C_25
REMARK   17  A    between atoms: C_25  and  C_26
REMARK   18  A    between atoms: C_26  and  C_27
REMARK   19  A    between atoms: N_37  and  C_38
REMARK   20  A    between atoms: C_38  and  C_39
REMARK   21  A    between atoms: C_38  and  C_86
REMARK   22  A    between atoms: N_41  and  C_42
REMARK   23  A    between atoms: C_42  and  C_43
REMARK   24  A    between atoms: C_42  and  C_47
REMARK   25  A    between atoms: C_43  and  C_44
REMARK   26  A    between atoms: N_49  and  C_50
REMARK   27  A    between atoms: C_50  and  C_51
REMARK   28  A    between atoms: C_50  and  C_53
REMARK   29  A    between atoms: C_51  and  S_52
REMARK   30  A    between atoms: C_59  and  C_60
REMARK   31  A    between atoms: N_62  and  C_63
REMARK   32  A    between atoms: C_63  and  C_64
REMARK   33  A    between atoms: C_63  and  C_68
REMARK   34  A    between atoms: C_64  and  C_65
REMARK   35  A    between atoms: C_65  and  C_66
REMARK   36  A    between atoms: C_66  and  N_67
REMARK   37  A    between atoms: N_70  and  C_71
REMARK   38  A    between atoms: C_71  and  C_72
REMARK   39  A    between atoms: C_71  and  C_83
REMARK   40  A    between atoms: C_72  and  C_73
REMARK   41  A    between atoms: C_76  and  N_77
REMARK   42  A    between atoms: C_86  and  C_87
REMARK   43  A    between atoms: C_86  and  O_88
REMARK                            x       y       z     vdW  Elec       q    Type
REMARK                         _______ _______ _______ _____ _____    ______ ____
ROOT
ATOM      1  C   UNL     1      -8.698   1.307 125.277  0.00  0.00    +0.000 C 
ENDROOT
BRANCH   1   4
ATOM      2  C   UNL     1      -8.336   2.164 128.121  0.00  0.00    +0.000 C 
ATOM      3  O   UNL     1      -8.119   1.153 128.860  0.00  0.00    +0.000 OA
ATOM      4  N   UNL     1      -8.528   2.420 126.647  0.00  0.00    +0.000 N 
ATOM      5  H   UNL     1      -8.045   3.248 126.300  0.00  0.00    +0.000 HD
BRANCH   2   6
ATOM      6  C   UNL     1      -8.256   3.087 129.192  0.00  0.00    +0.000 C 
BRANCH   6   9
ATOM      7  C   UNL     1      -9.695   2.705 131.414  0.00  0.00    +0.000 C 
ATOM      8  O   UNL     1     -10.371   1.864 132.020  0.00  0.00    +0.000 OA
ATOM      9  N   UNL     1      -9.287   2.361 130.046  0.00  0.00    +0.000 N 
ATOM     10  H   UNL     1      -9.048   1.368 130.081  0.00  0.00    +0.000 HD
BRANCH   7  11
ATOM     11  C   UNL     1      -9.372   4.225 132.192  0.00  0.00    +0.000 C 
BRANCH  11  12
ATOM     12  N   UNL     1      -7.985   4.369 132.557  0.00  0.00    +0.000 N 
ATOM     13  C   UNL     1      -7.424   3.675 133.613  0.00  0.00    +0.000 C 
ATOM     14  O   UNL     1      -7.838   2.667 134.176  0.00  0.00    +0.000 OA
ATOM     15  H   UNL     1      -7.383   4.509 131.751  0.00  0.00    +0.000 HD
BRANCH  13  16
ATOM     16  C   UNL     1      -6.086   4.144 134.006  0.00  0.00    +0.000 C 
BRANCH  16  17
ATOM     17  N   UNL     1      -5.240   4.425 132.815  0.00  0.00    +0.000 N 
ATOM     18  C   UNL     1      -3.889   4.201 132.916  0.00  0.00    +0.000 C 
ATOM     19  O   UNL     1      -3.417   3.920 134.013  0.00  0.00    +0.000 OA
ATOM     20  H   UNL     1      -5.664   4.458 131.896  0.00  0.00    +0.000 HD
BRANCH  18  21
ATOM     21  C   UNL     1      -3.030   4.383 131.662  0.00  0.00    +0.000 C 
BRANCH  21  22
ATOM     22  C   UNL     1      -2.408   5.829 131.547  0.00  0.00    +0.000 C 
ATOM     23  C   UNL     1      -3.344   6.853 132.244  0.00  0.00    +0.000 C 
ATOM     24  C   UNL     1      -2.747   8.243 132.421  0.00  0.00    +0.000 C 
ATOM     25  C   UNL     1      -1.354   8.221 133.037  0.00  0.00    +0.000 C 
ATOM     26  C   UNL     1      -0.407   7.174 132.479  0.00  0.00    +0.000 C 
ATOM     27  C   UNL     1      -1.062   5.825 132.313  0.00  0.00    +0.000 C 
BRANCH  22  28
ATOM     28  S   UNL     1      -2.332   6.205 129.683  0.00  0.00    +0.000 S 
BRANCH  28  29
ATOM     29  C   UNL     1      -2.880   4.704 128.824  0.00  0.00    +0.000 C 
BRANCH  29  30
ATOM     30  C   UNL     1      -2.397   4.560 127.411  0.00  0.00    +0.000 C 
BRANCH  30  31
ATOM     31  C   UNL     1      -2.268   3.087 127.020  0.00  0.00    +0.000 C 
ATOM     32  N   UNL     1      -3.324   2.232 127.193  0.00  0.00    +0.000 N 
ATOM     33  O   UNL     1      -1.221   2.645 126.551  0.00  0.00    +0.000 OA
ATOM     34  H   UNL     1      -4.240   2.464 127.550  0.00  0.00    +0.000 HD
ATOM     35  H   UNL     1      -3.187   1.267 126.916  0.00  0.00    +0.000 HD
ENDBRANCH  30  31
ENDBRANCH  29  30
ENDBRANCH  28  29
ENDBRANCH  22  28
ENDBRANCH  21  22
ENDBRANCH  18  21
ENDBRANCH  16  17
BRANCH  16  36
ATOM     36  C   UNL     1      -6.542   5.390 134.722  0.00  0.00    +0.000 C 
BRANCH  36  37
ATOM     37  C   UNL     1      -6.423   5.366 136.169  0.00  0.00    +0.000 A 
ATOM     38  C   UNL     1      -7.275   6.169 136.904  0.00  0.00    +0.000 A 
ATOM     39  C   UNL     1      -7.073   6.288 138.240  0.00  0.00    +0.000 A 
ATOM     40  C   UNL     1      -6.134   5.475 138.855  0.00  0.00    +0.000 A 
ATOM     41  C   UNL     1      -5.316   4.611 138.112  0.00  0.00    +0.000 A 
ATOM     42  C   UNL     1      -5.451   4.555 136.746  0.00  0.00    +0.000 A 
BRANCH  40  43
ATOM     43  O   UNL     1      -6.140   5.598 140.209  0.00  0.00    +0.000 OA
ATOM     44  C   UNL     1      -7.271   5.039 140.844  0.00  0.00    +0.000 C 
ENDBRANCH  40  43
ENDBRANCH  36  37
ENDBRANCH  16  36
ENDBRANCH  13  16
ENDBRANCH  11  12
BRANCH  11  45
ATOM     45  C   UNL     1      -9.896   5.687 131.407  0.00  0.00    +0.000 C 
ATOM     46  C   UNL     1     -11.217   6.423 131.896  0.00  0.00    +0.000 C 
BRANCH  45  48
ATOM     47  C   UNL     1     -10.347   6.948 128.434  0.00  0.00    +0.000 C 
ATOM     48  C   UNL     1     -10.033   5.797 129.685  0.00  0.00    +0.000 C 
ENDBRANCH  45  48
ENDBRANCH  11  45
ENDBRANCH   7  11
ENDBRANCH   6   9
BRANCH   6  49
ATOM     49  C   UNL     1      -6.820   3.449 129.373  0.00  0.00    +0.000 C 
ATOM     50  C   UNL     1      -6.437   4.956 129.608  0.00  0.00    +0.000 C 
BRANCH  49  51
ATOM     51  O   UNL     1      -6.437   2.775 130.565  0.00  0.00    +0.000 OA
ATOM     52  H   UNL     1      -6.548   1.817 130.388  0.00  0.00    +0.000 HD
ENDBRANCH  49  51
ENDBRANCH   6  49
ENDBRANCH   2   6
ENDBRANCH   1   4
BRANCH   1  53
ATOM     53  C   UNL     1      -7.926  -0.053 125.347  0.00  0.00    +0.000 C 
ATOM     54  O   UNL     1      -6.699   0.001 125.244  0.00  0.00    +0.000 OA
ATOM     55  N   UNL     1      -8.602  -1.256 125.635  0.00  0.00    +0.000 N 
ATOM     56  H   UNL     1      -9.560  -1.244 126.001  0.00  0.00    +0.000 HD
BRANCH  55  57
ATOM     57  C   UNL     1      -7.846  -2.502 125.965  0.00  0.00    +0.000 C 
BRANCH  57  58
ATOM     58  C   UNL     1      -7.803  -2.868 127.530  0.00  0.00    +0.000 C 
ATOM     59  O   UNL     1      -8.704  -3.552 128.023  0.00  0.00    +0.000 OA
ATOM     60  N   UNL     1      -6.650  -2.552 128.264  0.00  0.00    +0.000 N 
ATOM     61  C   UNL     1      -5.961  -1.276 128.398  0.00  0.00    +0.000 C 
ATOM     62  C   UNL     1      -4.530  -1.713 128.562  0.00  0.00    +0.000 C 
ATOM     63  C   UNL     1      -4.662  -2.847 129.562  0.00  0.00    +0.000 C 
ATOM     64  C   UNL     1      -6.064  -3.457 129.297  0.00  0.00    +0.000 C 
BRANCH  64  65
ATOM     65  C   UNL     1      -6.769  -3.395 130.669  0.00  0.00    +0.000 C 
ATOM     66  O   UNL     1      -7.916  -2.955 130.760  0.00  0.00    +0.000 OA
ATOM     67  N   UNL     1      -6.019  -3.740 131.792  0.00  0.00    +0.000 N 
ATOM     68  H   UNL     1      -5.018  -3.900 131.722  0.00  0.00    +0.000 HD
BRANCH  67  69
ATOM     69  C   UNL     1      -6.618  -3.946 133.136  0.00  0.00    +0.000 C 
BRANCH  69  70
ATOM     70  C   UNL     1      -6.746  -2.628 133.931  0.00  0.00    +0.000 C 
ATOM     71  O   UNL     1      -7.857  -2.171 134.197  0.00  0.00    +0.000 OA
ATOM     72  N   UNL     1      -5.568  -1.961 134.235  0.00  0.00    +0.000 N 
ATOM     73  H   UNL     1      -4.752  -2.168 133.685  0.00  0.00    +0.000 HD
BRANCH  72  74
ATOM     74  C   UNL     1      -5.534  -0.802 135.159  0.00  0.00    +0.000 C 
BRANCH  74  75
ATOM     75  C   UNL     1      -4.975   0.505 134.526  0.00  0.00    +0.000 C 
ATOM     76  N   UNL     1      -4.247   1.357 135.311  0.00  0.00    +0.000 N 
ATOM     77  O   UNL     1      -5.178   0.817 133.354  0.00  0.00    +0.000 OA
ATOM     78  H   UNL     1      -3.981   1.210 136.267  0.00  0.00    +0.000 HD
ATOM     79  H   UNL     1      -3.898   2.201 134.871  0.00  0.00    +0.000 HD
ENDBRANCH  74  75
BRANCH  74  80
ATOM     80  C   UNL     1      -4.686  -1.112 136.435  0.00  0.00    +0.000 C 
BRANCH  80  81
ATOM     81  C   UNL     1      -3.635  -2.187 136.217  0.00  0.00    +0.000 A 
ATOM     82  C   UNL     1      -3.655  -3.383 136.940  0.00  0.00    +0.000 A 
ATOM     83  C   UNL     1      -2.470  -4.125 137.082  0.00  0.00    +0.000 A 
ATOM     84  C   UNL     1      -1.271  -3.792 136.406  0.00  0.00    +0.000 A 
ATOM     85  C   UNL     1      -1.308  -2.637 135.595  0.00  0.00    +0.000 A 
ATOM     86  I   UNL     1       0.307  -1.745 134.561  0.00  0.00    +0.000 I 
ATOM     87  C   UNL     1      -2.478  -1.860 135.504  0.00  0.00    +0.000 A 
BRANCH  84  88
ATOM     88  N   UNL     1      -0.189  -4.639 136.721  0.00  0.00    +0.000 NA
ATOM     89  N   UNL     1       0.637  -4.254 137.617  0.00  0.00    +0.000 NA
ATOM     90  N   UNL     1       1.379  -3.976 138.391  0.00  0.00    +0.000 NA
ENDBRANCH  84  88
ENDBRANCH  80  81
ENDBRANCH  74  80
ENDBRANCH  72  74
ENDBRANCH  69  70
BRANCH  69  91
ATOM     91  C   UNL     1      -5.692  -4.746 134.049  0.00  0.00    +0.000 C 
BRANCH  91  92
ATOM     92  C   UNL     1      -4.661  -5.517 133.278  0.00  0.00    +0.000 C 
BRANCH  92  93
ATOM     93  C   UNL     1      -3.266  -5.034 133.522  0.00  0.00    +0.000 C 
BRANCH  93  94
ATOM     94  N   UNL     1      -3.115  -3.843 132.721  0.00  0.00    +0.000 NA
ATOM     95  H   UNL     1      -3.200  -3.006 133.291  0.00  0.00    +0.000 HD
ATOM     96  H   UNL     1      -3.792  -3.831 131.969  0.00  0.00    +0.000 HD
ENDBRANCH  93  94
ENDBRANCH  92  93
ENDBRANCH  91  92
ENDBRANCH  69  91
ENDBRANCH  67  69
ENDBRANCH  64  65
ENDBRANCH  57  58
BRANCH  57  97
ATOM     97  C   UNL     1      -6.418  -2.494 125.441  0.00  0.00    +0.000 C 
BRANCH  97  98
ATOM     98  S   UNL     1      -5.809  -3.335 123.938  0.00  0.00    +0.000 S 
ATOM     99  H   UNL     1      -6.942  -4.009 123.694  0.00  0.00    +0.000 HD
ENDBRANCH  97  98
ENDBRANCH  57  97
ENDBRANCH  55  57
ENDBRANCH   1  53
BRANCH   1 100
ATOM    100  C   UNL     1      -8.914   1.887 123.645  0.00  0.00    +0.000 C 
BRANCH 100 101
ATOM    101  C   UNL     1      -8.028   3.044 122.534  0.00  0.00    +0.000 C 
ATOM    102  N   UNL     1      -8.421   3.777 121.329  0.00  0.00    +0.000 N 
ATOM    103  O   UNL     1      -6.859   3.296 122.855  0.00  0.00    +0.000 OA
ATOM    104  H   UNL     1      -9.356   3.924 120.891  0.00  0.00    +0.000 HD
ATOM    105  H   UNL     1      -8.109   4.746 121.293  0.00  0.00    +0.000 HD
ENDBRANCH 100 101
ENDBRANCH   1 100
TORSDOF 39
ENDMDL
MODEL 6
REMARK VINA RESULT:      -8.9      3.571     10.970
REMARK  Name = CHEMBL3142790
REMARK  43 active torsions:
REMARK  status: ('A' for Active; 'I' for Inactive)
REMARK    1  A    between atoms: C_1  and  C_2
REMARK    2  A    between atoms: C_2  and  C_3
REMARK    3  A    between atoms: C_3  and  C_4
REMARK    4  A    between atoms: C_3  and  C_5
REMARK    5  A    between atoms: C_5  and  N_6
REMARK    6  A    between atoms: C_5  and  C_35
REMARK    7  A    between atoms: C_7  and  C_9
REMARK    8  A    between atoms: C_9  and  C_10
REMARK    9  A    between atoms: C_9  and  N_19
REMARK   10  A    between atoms: C_10  and  C_11
REMARK   11  A    between atoms: C_14  and  O_15
REMARK   12  A    between atoms: O_15  and  C_16
REMARK   13  A    between atoms: C_20  and  C_22
REMARK   14  A    between atoms: C_22  and  C_23
REMARK   15  A    between atoms: C_23  and  S_24
REMARK   16  A    between atoms: S_24  and  C_25
REMARK   17  A    between atoms: C_25  and  C_26
REMARK   18  A    between atoms: C_26  and  C_27
REMARK   19  A    between atoms: N_37  and  C_38
REMARK   20  A    between atoms: C_38  and  C_39
REMARK   21  A    between atoms: C_38  and  C_86
REMARK   22  A    between atoms: N_41  and  C_42
REMARK   23  A    between atoms: C_42  and  C_43
REMARK   24  A    between atoms: C_42  and  C_47
REMARK   25  A    between atoms: C_43  and  C_44
REMARK   26  A    between atoms: N_49  and  C_50
REMARK   27  A    between atoms: C_50  and  C_51
REMARK   28  A    between atoms: C_50  and  C_53
REMARK   29  A    between atoms: C_51  and  S_52
REMARK   30  A    between atoms: C_59  and  C_60
REMARK   31  A    between atoms: N_62  and  C_63
REMARK   32  A    between atoms: C_63  and  C_64
REMARK   33  A    between atoms: C_63  and  C_68
REMARK   34  A    between atoms: C_64  and  C_65
REMARK   35  A    between atoms: C_65  and  C_66
REMARK   36  A    between atoms: C_66  and  N_67
REMARK   37  A    between atoms: N_70  and  C_71
REMARK   38  A    between atoms: C_71  and  C_72
REMARK   39  A    between atoms: C_71  and  C_83
REMARK   40  A    between atoms: C_72  and  C_73
REMARK   41  A    between atoms: C_76  and  N_77
REMARK   42  A    between atoms: C_86  and  C_87
REMARK   43  A    between atoms: C_86  and  O_88
REMARK                            x       y       z     vdW  Elec       q    Type
REMARK                         _______ _______ _______ _____ _____    ______ ____
ROOT
ATOM      1  C   UNL     1      -4.855   4.653 135.718  0.00  0.00    +0.000 C 
ENDROOT
BRANCH   1   4
ATOM      2  C   UNL     1      -2.793   5.277 133.641  0.00  0.00    +0.000 C 
ATOM      3  O   UNL     1      -2.228   4.207 133.250  0.00  0.00    +0.000 OA
ATOM      4  N   UNL     1      -3.915   5.638 134.582  0.00  0.00    +0.000 N 
ATOM      5  H   UNL     1      -4.539   6.362 134.228  0.00  0.00    +0.000 HD
BRANCH   2   6
ATOM      6  C   UNL     1      -2.032   6.109 132.784  0.00  0.00    +0.000 C 
BRANCH   6   9
ATOM      7  C   UNL     1      -4.051   6.809 131.175  0.00  0.00    +0.000 C 
ATOM      8  O   UNL     1      -4.818   7.740 130.901  0.00  0.00    +0.000 OA
ATOM      9  N   UNL     1      -3.221   6.969 132.375  0.00  0.00    +0.000 N 
ATOM     10  H   UNL     1      -2.934   7.951 132.373  0.00  0.00    +0.000 HD
BRANCH   7  11
ATOM     11  C   UNL     1      -4.089   5.384 130.179  0.00  0.00    +0.000 C 
BRANCH  11  12
ATOM     12  N   UNL     1      -5.346   5.233 129.490  0.00  0.00    +0.000 N 
ATOM     13  C   UNL     1      -6.266   4.262 129.838  0.00  0.00    +0.000 C 
ATOM     14  O   UNL     1      -6.355   3.627 130.883  0.00  0.00    +0.000 OA
ATOM     15  H   UNL     1      -5.734   6.122 129.190  0.00  0.00    +0.000 HD
BRANCH  13  16
ATOM     16  C   UNL     1      -7.356   4.081 128.865  0.00  0.00    +0.000 C 
BRANCH  16  17
ATOM     17  N   UNL     1      -7.087   2.930 127.961  0.00  0.00    +0.000 N 
ATOM     18  C   UNL     1      -7.533   3.010 126.666  0.00  0.00    +0.000 C 
ATOM     19  O   UNL     1      -8.251   3.952 126.345  0.00  0.00    +0.000 OA
ATOM     20  H   UNL     1      -6.343   2.281 128.184  0.00  0.00    +0.000 HD
BRANCH  18  21
ATOM     21  C   UNL     1      -7.165   1.878 125.702  0.00  0.00    +0.000 C 
BRANCH  21  22
ATOM     22  C   UNL     1      -8.089   1.834 124.424  0.00  0.00    +0.000 C 
ATOM     23  C   UNL     1      -7.715   0.604 123.554  0.00  0.00    +0.000 C 
ATOM     24  C   UNL     1      -8.689   0.306 122.421  0.00  0.00    +0.000 C 
ATOM     25  C   UNL     1     -10.142   0.272 122.876  0.00  0.00    +0.000 C 
ATOM     26  C   UNL     1     -10.561   1.388 123.815  0.00  0.00    +0.000 C 
ATOM     27  C   UNL     1      -9.549   1.645 124.904  0.00  0.00    +0.000 C 
BRANCH  22  28
ATOM     28  S   UNL     1      -7.704   3.432 123.462  0.00  0.00    +0.000 S 
BRANCH  28  29
ATOM     29  C   UNL     1      -6.227   3.099 122.465  0.00  0.00    +0.000 C 
BRANCH  29  30
ATOM     30  C   UNL     1      -6.304   3.540 121.033  0.00  0.00    +0.000 C 
BRANCH  30  31
ATOM     31  C   UNL     1      -5.280   4.636 120.737  0.00  0.00    +0.000 C 
ATOM     32  N   UNL     1      -4.343   4.977 121.676  0.00  0.00    +0.000 N 
ATOM     33  O   UNL     1      -5.279   5.229 119.660  0.00  0.00    +0.000 OA
ATOM     34  H   UNL     1      -4.222   4.563 122.589  0.00  0.00    +0.000 HD
ATOM     35  H   UNL     1      -3.687   5.707 121.429  0.00  0.00    +0.000 HD
ENDBRANCH  30  31
ENDBRANCH  29  30
ENDBRANCH  28  29
ENDBRANCH  22  28
ENDBRANCH  21  22
ENDBRANCH  18  21
ENDBRANCH  16  17
BRANCH  16  36
ATOM     36  C   UNL     1      -8.444   3.809 129.871  0.00  0.00    +0.000 C 
BRANCH  36  37
ATOM     37  C   UNL     1      -9.461   4.840 129.995  0.00  0.00    +0.000 A 
ATOM     38  C   UNL     1      -9.128   6.129 129.623  0.00  0.00    +0.000 A 
ATOM     39  C   UNL     1     -10.001   7.132 129.884  0.00  0.00    +0.000 A 
ATOM     40  C   UNL     1     -11.266   6.819 130.355  0.00  0.00    +0.000 A 
ATOM     41  C   UNL     1     -11.625   5.499 130.668  0.00  0.00    +0.000 A 
ATOM     42  C   UNL     1     -10.710   4.489 130.496  0.00  0.00    +0.000 A 
BRANCH  40  43
ATOM     43  O   UNL     1     -12.081   7.904 130.433  0.00  0.00    +0.000 OA
ATOM     44  C   UNL     1     -13.171   7.759 131.320  0.00  0.00    +0.000 C 
ENDBRANCH  40  43
ENDBRANCH  36  37
ENDBRANCH  16  36
ENDBRANCH  13  16
ENDBRANCH  11  12
BRANCH  11  45
ATOM     45  C   UNL     1      -2.796   5.131 129.042  0.00  0.00    +0.000 C 
ATOM     46  C   UNL     1      -2.304   6.329 128.120  0.00  0.00    +0.000 C 
BRANCH  45  48
ATOM     47  C   UNL     1      -1.853   3.096 126.676  0.00  0.00    +0.000 C 
ATOM     48  C   UNL     1      -2.802   3.799 127.938  0.00  0.00    +0.000 C 
ENDBRANCH  45  48
ENDBRANCH  11  45
ENDBRANCH   7  11
ENDBRANCH   6   9
BRANCH   6  49
ATOM     49  C   UNL     1      -0.729   6.383 133.457  0.00  0.00    +0.000 C 
ATOM     50  C   UNL     1       0.019   7.732 133.151  0.00  0.00    +0.000 C 
BRANCH  49  51
ATOM     51  O   UNL     1      -1.055   6.441 134.839  0.00  0.00    +0.000 OA
ATOM     52  H   UNL     1      -0.669   7.276 135.179  0.00  0.00    +0.000 HD
ENDBRANCH  49  51
ENDBRANCH   6  49
ENDBRANCH   2   6
ENDBRANCH   1   4
BRANCH   1  53
ATOM     53  C   UNL     1      -4.174   3.372 136.304  0.00  0.00    +0.000 C 
ATOM     54  O   UNL     1      -3.468   3.528 137.303  0.00  0.00    +0.000 OA
ATOM     55  N   UNL     1      -4.459   2.095 135.780  0.00  0.00    +0.000 N 
ATOM     56  H   UNL     1      -5.256   1.953 135.152  0.00  0.00    +0.000 HD
BRANCH  55  57
ATOM     57  C   UNL     1      -4.027   0.857 136.495  0.00  0.00    +0.000 C 
BRANCH  57  58
ATOM     58  C   UNL     1      -3.585  -0.355 135.535  0.00  0.00    +0.000 C 
ATOM     59  O   UNL     1      -4.020  -0.411 134.382  0.00  0.00    +0.000 OA
ATOM     60  N   UNL     1      -2.577  -1.228 135.971  0.00  0.00    +0.000 N 
ATOM     61  C   UNL     1      -2.484  -1.987 137.211  0.00  0.00    +0.000 C 
ATOM     62  C   UNL     1      -0.997  -2.024 137.441  0.00  0.00    +0.000 C 
ATOM     63  C   UNL     1      -0.475  -2.367 136.058  0.00  0.00    +0.000 C 
ATOM     64  C   UNL     1      -1.506  -1.755 135.074  0.00  0.00    +0.000 C 
BRANCH  64  65
ATOM     65  C   UNL     1      -1.945  -2.948 134.196  0.00  0.00    +0.000 C 
ATOM     66  O   UNL     1      -1.362  -4.031 134.281  0.00  0.00    +0.000 OA
ATOM     67  N   UNL     1      -2.929  -2.712 133.239  0.00  0.00    +0.000 N 
ATOM     68  H   UNL     1      -3.250  -1.768 133.042  0.00  0.00    +0.000 HD
BRANCH  67  69
ATOM     69  C   UNL     1      -3.607  -3.799 132.487  0.00  0.00    +0.000 C 
BRANCH  69  70
ATOM     70  C   UNL     1      -4.466  -3.261 131.321  0.00  0.00    +0.000 C 
ATOM     71  O   UNL     1      -4.629  -3.940 130.308  0.00  0.00    +0.000 OA
ATOM     72  N   UNL     1      -4.948  -1.966 131.442  0.00  0.00    +0.000 N 
ATOM     73  H   UNL     1      -4.484  -1.347 132.085  0.00  0.00    +0.000 HD
BRANCH  72  74
ATOM     74  C   UNL     1      -5.943  -1.403 130.497  0.00  0.00    +0.000 C 
BRANCH  74  75
ATOM     75  C   UNL     1      -6.421   0.034 130.855  0.00  0.00    +0.000 C 
ATOM     76  N   UNL     1      -5.942   0.622 131.994  0.00  0.00    +0.000 N 
ATOM     77  O   UNL     1      -7.230   0.657 130.169  0.00  0.00    +0.000 OA
ATOM     78  H   UNL     1      -5.258   0.241 132.622  0.00  0.00    +0.000 HD
ATOM     79  H   UNL     1      -6.274   1.557 132.203  0.00  0.00    +0.000 HD
ENDBRANCH  74  75
BRANCH  74  80
ATOM     80  C   UNL     1      -7.209  -2.313 130.389  0.00  0.00    +0.000 C 
BRANCH  80  81
ATOM     81  C   UNL     1      -7.705  -2.494 128.965  0.00  0.00    +0.000 A 
ATOM     82  C   UNL     1      -8.768  -3.350 128.667  0.00  0.00    +0.000 A 
ATOM     83  C   UNL     1      -8.899  -3.862 127.365  0.00  0.00    +0.000 A 
ATOM     84  C   UNL     1      -8.079  -3.443 126.290  0.00  0.00    +0.000 A 
ATOM     85  C   UNL     1      -7.079  -2.495 126.596  0.00  0.00    +0.000 A 
ATOM     86  I   UNL     1      -5.581  -1.749 125.303  0.00  0.00    +0.000 I 
ATOM     87  C   UNL     1      -6.910  -2.029 127.914  0.00  0.00    +0.000 A 
BRANCH  84  88
ATOM     88  N   UNL     1      -8.346  -4.113 125.078  0.00  0.00    +0.000 NA
ATOM     89  N   UNL     1      -9.126  -3.551 124.237  0.00  0.00    +0.000 NA
ATOM     90  N   UNL     1      -9.788  -3.108 123.467  0.00  0.00    +0.000 NA
ENDBRANCH  84  88
ENDBRANCH  80  81
ENDBRANCH  74  80
ENDBRANCH  72  74
ENDBRANCH  69  70
BRANCH  69  91
ATOM     91  C   UNL     1      -4.671  -4.492 133.334  0.00  0.00    +0.000 C 
BRANCH  91  92
ATOM     92  C   UNL     1      -4.974  -3.737 134.596  0.00  0.00    +0.000 C 
BRANCH  92  93
ATOM     93  C   UNL     1      -6.311  -3.066 134.569  0.00  0.00    +0.000 C 
BRANCH  93  94
ATOM     94  N   UNL     1      -7.203  -3.992 133.912  0.00  0.00    +0.000 NA
ATOM     95  H   UNL     1      -6.804  -4.326 133.039  0.00  0.00    +0.000 HD
ATOM     96  H   UNL     1      -8.105  -3.565 133.750  0.00  0.00    +0.000 HD
ENDBRANCH  93  94
ENDBRANCH  92  93
ENDBRANCH  91  92
ENDBRANCH  69  91
ENDBRANCH  67  69
ENDBRANCH  64  65
ENDBRANCH  57  58
BRANCH  57  97
ATOM     97  C   UNL     1      -5.069   0.332 137.471  0.00  0.00    +0.000 C 
BRANCH  97  98
ATOM     98  S   UNL     1      -5.067   0.550 139.284  0.00  0.00    +0.000 S 
ATOM     99  H   UNL     1      -4.918  -0.751 139.574  0.00  0.00    +0.000 HD
ENDBRANCH  97  98
ENDBRANCH  57  97
ENDBRANCH  55  57
ENDBRANCH   1  53
BRANCH   1 100
ATOM    100  C   UNL     1      -6.590   4.505 135.587  0.00  0.00    +0.000 C 
BRANCH 100 101
ATOM    101  C   UNL     1      -7.830   4.727 134.256  0.00  0.00    +0.000 C 
ATOM    102  N   UNL     1      -7.823   5.466 132.992  0.00  0.00    +0.000 N 
ATOM    103  O   UNL     1      -8.896   4.120 134.419  0.00  0.00    +0.000 OA
ATOM    104  H   UNL     1      -7.047   5.935 132.476  0.00  0.00    +0.000 HD
ATOM    105  H   UNL     1      -8.220   4.966 132.198  0.00  0.00    +0.000 HD
ENDBRANCH 100 101
ENDBRANCH   1 100
TORSDOF 39
ENDMDL
MODEL 7
REMARK VINA RESULT:      -8.9      3.208      8.124
REMARK  Name = CHEMBL3142790
REMARK  43 active torsions:
REMARK  status: ('A' for Active; 'I' for Inactive)
REMARK    1  A    between atoms: C_1  and  C_2
REMARK    2  A    between atoms: C_2  and  C_3
REMARK    3  A    between atoms: C_3  and  C_4
REMARK    4  A    between atoms: C_3  and  C_5
REMARK    5  A    between atoms: C_5  and  N_6
REMARK    6  A    between atoms: C_5  and  C_35
REMARK    7  A    between atoms: C_7  and  C_9
REMARK    8  A    between atoms: C_9  and  C_10
REMARK    9  A    between atoms: C_9  and  N_19
REMARK   10  A    between atoms: C_10  and  C_11
REMARK   11  A    between atoms: C_14  and  O_15
REMARK   12  A    between atoms: O_15  and  C_16
REMARK   13  A    between atoms: C_20  and  C_22
REMARK   14  A    between atoms: C_22  and  C_23
REMARK   15  A    between atoms: C_23  and  S_24
REMARK   16  A    between atoms: S_24  and  C_25
REMARK   17  A    between atoms: C_25  and  C_26
REMARK   18  A    between atoms: C_26  and  C_27
REMARK   19  A    between atoms: N_37  and  C_38
REMARK   20  A    between atoms: C_38  and  C_39
REMARK   21  A    between atoms: C_38  and  C_86
REMARK   22  A    between atoms: N_41  and  C_42
REMARK   23  A    between atoms: C_42  and  C_43
REMARK   24  A    between atoms: C_42  and  C_47
REMARK   25  A    between atoms: C_43  and  C_44
REMARK   26  A    between atoms: N_49  and  C_50
REMARK   27  A    between atoms: C_50  and  C_51
REMARK   28  A    between atoms: C_50  and  C_53
REMARK   29  A    between atoms: C_51  and  S_52
REMARK   30  A    between atoms: C_59  and  C_60
REMARK   31  A    between atoms: N_62  and  C_63
REMARK   32  A    between atoms: C_63  and  C_64
REMARK   33  A    between atoms: C_63  and  C_68
REMARK   34  A    between atoms: C_64  and  C_65
REMARK   35  A    between atoms: C_65  and  C_66
REMARK   36  A    between atoms: C_66  and  N_67
REMARK   37  A    between atoms: N_70  and  C_71
REMARK   38  A    between atoms: C_71  and  C_72
REMARK   39  A    between atoms: C_71  and  C_83
REMARK   40  A    between atoms: C_72  and  C_73
REMARK   41  A    between atoms: C_76  and  N_77
REMARK   42  A    between atoms: C_86  and  C_87
REMARK   43  A    between atoms: C_86  and  O_88
REMARK                            x       y       z     vdW  Elec       q    Type
REMARK                         _______ _______ _______ _____ _____    ______ ____
ROOT
ATOM      1  C   UNL     1      -7.240  -2.020 126.358  0.00  0.00    +0.000 C 
ENDROOT
BRANCH   1   4
ATOM      2  C   UNL     1      -7.988   0.616 125.156  0.00  0.00    +0.000 C 
ATOM      3  O   UNL     1      -7.255   0.862 124.147  0.00  0.00    +0.000 OA
ATOM      4  N   UNL     1      -8.164  -0.525 126.127  0.00  0.00    +0.000 N 
ATOM      5  H   UNL     1      -9.136  -0.737 126.349  0.00  0.00    +0.000 HD
BRANCH   2   6
ATOM      6  C   UNL     1      -8.722   1.822 125.040  0.00  0.00    +0.000 C 
BRANCH   6   9
ATOM      7  C   UNL     1      -7.808   2.572 127.439  0.00  0.00    +0.000 C 
ATOM      8  O   UNL     1      -8.007   2.448 128.654  0.00  0.00    +0.000 OA
ATOM      9  N   UNL     1      -8.838   2.031 126.544  0.00  0.00    +0.000 N 
ATOM     10  H   UNL     1      -9.137   1.155 126.978  0.00  0.00    +0.000 HD
BRANCH   7  11
ATOM     11  C   UNL     1      -6.394   3.436 126.914  0.00  0.00    +0.000 C 
BRANCH  11  12
ATOM     12  N   UNL     1      -5.887   4.323 127.932  0.00  0.00    +0.000 N 
ATOM     13  C   UNL     1      -5.380   3.857 129.130  0.00  0.00    +0.000 C 
ATOM     14  O   UNL     1      -4.987   2.731 129.412  0.00  0.00    +0.000 OA
ATOM     15  H   UNL     1      -5.421   5.137 127.541  0.00  0.00    +0.000 HD
BRANCH  13  16
ATOM     16  C   UNL     1      -5.164   4.901 130.145  0.00  0.00    +0.000 C 
BRANCH  16  17
ATOM     17  N   UNL     1      -6.349   5.044 131.034  0.00  0.00    +0.000 N 
ATOM     18  C   UNL     1      -7.011   6.246 131.038  0.00  0.00    +0.000 C 
ATOM     19  O   UNL     1      -6.524   7.191 130.425  0.00  0.00    +0.000 OA
ATOM     20  H   UNL     1      -6.833   4.217 131.360  0.00  0.00    +0.000 HD
BRANCH  18  21
ATOM     21  C   UNL     1      -8.293   6.364 131.866  0.00  0.00    +0.000 C 
BRANCH  21  22
ATOM     22  C   UNL     1      -9.601   6.315 130.984  0.00  0.00    +0.000 C 
ATOM     23  C   UNL     1     -10.850   6.367 131.905  0.00  0.00    +0.000 C 
ATOM     24  C   UNL     1     -12.171   6.575 131.174  0.00  0.00    +0.000 C 
ATOM     25  C   UNL     1     -12.131   7.734 130.187  0.00  0.00    +0.000 C 
ATOM     26  C   UNL     1     -10.890   7.813 129.318  0.00  0.00    +0.000 C 
ATOM     27  C   UNL     1      -9.618   7.584 130.096  0.00  0.00    +0.000 C 
BRANCH  22  28
ATOM     28  S   UNL     1      -9.546   4.640 130.083  0.00  0.00    +0.000 S 
BRANCH  28  29
ATOM     29  C   UNL     1     -10.192   3.402 131.240  0.00  0.00    +0.000 C 
BRANCH  29  30
ATOM     30  C   UNL     1      -9.158   2.687 132.061  0.00  0.00    +0.000 C 
BRANCH  30  31
ATOM     31  C   UNL     1      -9.036   1.222 131.640  0.00  0.00    +0.000 C 
ATOM     32  N   UNL     1      -7.929   0.789 130.960  0.00  0.00    +0.000 N 
ATOM     33  O   UNL     1      -9.924   0.412 131.900  0.00  0.00    +0.000 OA
ATOM     34  H   UNL     1      -7.124   1.340 130.698  0.00  0.00    +0.000 HD
ATOM     35  H   UNL     1      -7.897  -0.191 130.707  0.00  0.00    +0.000 HD
ENDBRANCH  30  31
ENDBRANCH  29  30
ENDBRANCH  28  29
ENDBRANCH  22  28
ENDBRANCH  21  22
ENDBRANCH  18  21
ENDBRANCH  16  17
BRANCH  16  36
ATOM     36  C   UNL     1      -3.986   4.247 130.820  0.00  0.00    +0.000 C 
BRANCH  36  37
ATOM     37  C   UNL     1      -3.096   5.141 131.542  0.00  0.00    +0.000 A 
ATOM     38  C   UNL     1      -3.293   6.502 131.406  0.00  0.00    +0.000 A 
ATOM     39  C   UNL     1      -2.378   7.352 131.934  0.00  0.00    +0.000 A 
ATOM     40  C   UNL     1      -1.370   6.842 132.738  0.00  0.00    +0.000 A 
ATOM     41  C   UNL     1      -1.214   5.461 132.929  0.00  0.00    +0.000 A 
ATOM     42  C   UNL     1      -2.082   4.590 132.318  0.00  0.00    +0.000 A 
BRANCH  40  43
ATOM     43  O   UNL     1      -0.616   7.816 133.315  0.00  0.00    +0.000 OA
ATOM     44  C   UNL     1      -1.056   9.132 133.053  0.00  0.00    +0.000 C 
ENDBRANCH  40  43
ENDBRANCH  36  37
ENDBRANCH  16  36
ENDBRANCH  13  16
ENDBRANCH  11  12
BRANCH  11  45
ATOM     45  C   UNL     1      -5.064   2.530 126.252  0.00  0.00    +0.000 C 
ATOM     46  C   UNL     1      -4.831   1.022 126.698  0.00  0.00    +0.000 C 
BRANCH  45  48
ATOM     47  C   UNL     1      -2.228   3.745 127.303  0.00  0.00    +0.000 C 
ATOM     48  C   UNL     1      -3.453   3.159 126.233  0.00  0.00    +0.000 C 
ENDBRANCH  45  48
ENDBRANCH  11  45
ENDBRANCH   7  11
ENDBRANCH   6   9
BRANCH   6  49
ATOM     49  C   UNL     1      -8.127   2.608 123.920  0.00  0.00    +0.000 C 
ATOM     50  C   UNL     1      -8.835   2.592 122.516  0.00  0.00    +0.000 C 
BRANCH  49  51
ATOM     51  O   UNL     1      -8.203   3.957 124.361  0.00  0.00    +0.000 OA
ATOM     52  H   UNL     1      -8.923   3.990 125.026  0.00  0.00    +0.000 HD
ENDBRANCH  49  51
ENDBRANCH   6  49
ENDBRANCH   2   6
ENDBRANCH   1   4
BRANCH   1  53
ATOM     53  C   UNL     1      -7.250  -2.667 127.783  0.00  0.00    +0.000 C 
ATOM     54  O   UNL     1      -7.996  -3.635 127.946  0.00  0.00    +0.000 OA
ATOM     55  N   UNL     1      -6.356  -2.233 128.782  0.00  0.00    +0.000 N 
ATOM     56  H   UNL     1      -5.557  -1.636 128.546  0.00  0.00    +0.000 HD
BRANCH  55  57
ATOM     57  C   UNL     1      -6.175  -3.012 130.043  0.00  0.00    +0.000 C 
BRANCH  57  58
ATOM     58  C   UNL     1      -5.999  -2.118 131.368  0.00  0.00    +0.000 C 
ATOM     59  O   UNL     1      -5.473  -1.005 131.289  0.00  0.00    +0.000 OA
ATOM     60  N   UNL     1      -6.607  -2.548 132.557  0.00  0.00    +0.000 N 
ATOM     61  C   UNL     1      -6.502  -3.831 133.237  0.00  0.00    +0.000 C 
ATOM     62  C   UNL     1      -7.862  -3.961 133.867  0.00  0.00    +0.000 C 
ATOM     63  C   UNL     1      -8.070  -2.574 134.450  0.00  0.00    +0.000 C 
ATOM     64  C   UNL     1      -7.285  -1.621 133.511  0.00  0.00    +0.000 C 
BRANCH  64  65
ATOM     65  C   UNL     1      -6.323  -0.868 134.456  0.00  0.00    +0.000 C 
ATOM     66  O   UNL     1      -6.179  -1.238 135.622  0.00  0.00    +0.000 OA
ATOM     67  N   UNL     1      -5.732   0.298 133.973  0.00  0.00    +0.000 N 
ATOM     68  H   UNL     1      -6.021   0.701 133.087  0.00  0.00    +0.000 HD
BRANCH  67  69
ATOM     69  C   UNL     1      -4.623   0.995 134.674  0.00  0.00    +0.000 C 
BRANCH  69  70
ATOM     70  C   UNL     1      -5.104   2.254 135.430  0.00  0.00    +0.000 C 
ATOM     71  O   UNL     1      -5.075   2.286 136.659  0.00  0.00    +0.000 OA
ATOM     72  N   UNL     1      -5.646   3.277 134.666  0.00  0.00    +0.000 N 
ATOM     73  H   UNL     1      -5.986   3.051 133.746  0.00  0.00    +0.000 HD
BRANCH  72  74
ATOM     74  C   UNL     1      -5.957   4.609 135.237  0.00  0.00    +0.000 C 
BRANCH  74  75
ATOM     75  C   UNL     1      -7.461   5.000 135.164  0.00  0.00    +0.000 C 
ATOM     76  N   UNL     1      -8.356   4.084 134.683  0.00  0.00    +0.000 N 
ATOM     77  O   UNL     1      -7.879   6.107 135.501  0.00  0.00    +0.000 OA
ATOM     78  H   UNL     1      -8.156   3.140 134.406  0.00  0.00    +0.000 HD
ATOM     79  H   UNL     1      -9.328   4.368 134.645  0.00  0.00    +0.000 HD
ENDBRANCH  74  75
BRANCH  74  80
ATOM     80  C   UNL     1      -5.137   5.739 134.534  0.00  0.00    +0.000 C 
BRANCH  80  81
ATOM     81  C   UNL     1      -3.985   6.263 135.374  0.00  0.00    +0.000 A 
ATOM     82  C   UNL     1      -3.349   5.457 136.321  0.00  0.00    +0.000 A 
ATOM     83  C   UNL     1      -2.648   6.057 137.381  0.00  0.00    +0.000 A 
ATOM     84  C   UNL     1      -2.435   7.455 137.466  0.00  0.00    +0.000 A 
ATOM     85  C   UNL     1      -2.999   8.239 136.436  0.00  0.00    +0.000 A 
ATOM     86  I   UNL     1      -3.023  10.349 136.300  0.00  0.00    +0.000 I 
ATOM     87  C   UNL     1      -3.753   7.641 135.408  0.00  0.00    +0.000 A 
BRANCH  84  88
ATOM     88  N   UNL     1      -1.749   7.854 138.631  0.00  0.00    +0.000 NA
ATOM     89  N   UNL     1      -2.376   7.818 139.743  0.00  0.00    +0.000 NA
ATOM     90  N   UNL     1      -2.867   7.799 140.736  0.00  0.00    +0.000 NA
ENDBRANCH  84  88
ENDBRANCH  80  81
ENDBRANCH  74  80
ENDBRANCH  72  74
ENDBRANCH  69  70
BRANCH  69  91
ATOM     91  C   UNL     1      -3.632   1.611 133.690  0.00  0.00    +0.000 C 
BRANCH  91  92
ATOM     92  C   UNL     1      -3.002   0.580 132.798  0.00  0.00    +0.000 C 
BRANCH  92  93
ATOM     93  C   UNL     1      -2.598  -0.659 133.534  0.00  0.00    +0.000 C 
BRANCH  93  94
ATOM     94  N   UNL     1      -1.257  -0.417 134.008  0.00  0.00    +0.000 NA
ATOM     95  H   UNL     1      -1.268   0.027 134.922  0.00  0.00    +0.000 HD
ATOM     96  H   UNL     1      -0.741   0.146 133.346  0.00  0.00    +0.000 HD
ENDBRANCH  93  94
ENDBRANCH  92  93
ENDBRANCH  91  92
ENDBRANCH  69  91
ENDBRANCH  67  69
ENDBRANCH  64  65
ENDBRANCH  57  58
BRANCH  57  97
ATOM     97  C   UNL     1      -5.017  -3.997 129.980  0.00  0.00    +0.000 C 
BRANCH  97  98
ATOM     98  S   UNL     1      -3.317  -3.638 129.416  0.00  0.00    +0.000 S 
ATOM     99  H   UNL     1      -3.073  -4.869 128.941  0.00  0.00    +0.000 HD
ENDBRANCH  97  98
ENDBRANCH  57  97
ENDBRANCH  55  57
ENDBRANCH   1  53
BRANCH   1 100
ATOM    100  C   UNL     1      -5.768  -2.334 125.474  0.00  0.00    +0.000 C 
BRANCH 100 101
ATOM    101  C   UNL     1      -5.346  -2.979 123.811  0.00  0.00    +0.000 C 
ATOM    102  N   UNL     1      -4.519  -4.095 123.349  0.00  0.00    +0.000 N 
ATOM    103  O   UNL     1      -5.872  -2.382 122.863  0.00  0.00    +0.000 OA
ATOM    104  H   UNL     1      -4.080  -4.885 123.870  0.00  0.00    +0.000 HD
ATOM    105  H   UNL     1      -4.925  -4.648 122.595  0.00  0.00    +0.000 HD
ENDBRANCH 100 101
ENDBRANCH   1 100
TORSDOF 39
ENDMDL
MODEL 8
REMARK VINA RESULT:      -8.9      2.941      6.405
REMARK  Name = CHEMBL3142790
REMARK  43 active torsions:
REMARK  status: ('A' for Active; 'I' for Inactive)
REMARK    1  A    between atoms: C_1  and  C_2
REMARK    2  A    between atoms: C_2  and  C_3
REMARK    3  A    between atoms: C_3  and  C_4
REMARK    4  A    between atoms: C_3  and  C_5
REMARK    5  A    between atoms: C_5  and  N_6
REMARK    6  A    between atoms: C_5  and  C_35
REMARK    7  A    between atoms: C_7  and  C_9
REMARK    8  A    between atoms: C_9  and  C_10
REMARK    9  A    between atoms: C_9  and  N_19
REMARK   10  A    between atoms: C_10  and  C_11
REMARK   11  A    between atoms: C_14  and  O_15
REMARK   12  A    between atoms: O_15  and  C_16
REMARK   13  A    between atoms: C_20  and  C_22
REMARK   14  A    between atoms: C_22  and  C_23
REMARK   15  A    between atoms: C_23  and  S_24
REMARK   16  A    between atoms: S_24  and  C_25
REMARK   17  A    between atoms: C_25  and  C_26
REMARK   18  A    between atoms: C_26  and  C_27
REMARK   19  A    between atoms: N_37  and  C_38
REMARK   20  A    between atoms: C_38  and  C_39
REMARK   21  A    between atoms: C_38  and  C_86
REMARK   22  A    between atoms: N_41  and  C_42
REMARK   23  A    between atoms: C_42  and  C_43
REMARK   24  A    between atoms: C_42  and  C_47
REMARK   25  A    between atoms: C_43  and  C_44
REMARK   26  A    between atoms: N_49  and  C_50
REMARK   27  A    between atoms: C_50  and  C_51
REMARK   28  A    between atoms: C_50  and  C_53
REMARK   29  A    between atoms: C_51  and  S_52
REMARK   30  A    between atoms: C_59  and  C_60
REMARK   31  A    between atoms: N_62  and  C_63
REMARK   32  A    between atoms: C_63  and  C_64
REMARK   33  A    between atoms: C_63  and  C_68
REMARK   34  A    between atoms: C_64  and  C_65
REMARK   35  A    between atoms: C_65  and  C_66
REMARK   36  A    between atoms: C_66  and  N_67
REMARK   37  A    between atoms: N_70  and  C_71
REMARK   38  A    between atoms: C_71  and  C_72
REMARK   39  A    between atoms: C_71  and  C_83
REMARK   40  A    between atoms: C_72  and  C_73
REMARK   41  A    between atoms: C_76  and  N_77
REMARK   42  A    between atoms: C_86  and  C_87
REMARK   43  A    between atoms: C_86  and  O_88
REMARK                            x       y       z     vdW  Elec       q    Type
REMARK                         _______ _______ _______ _____ _____    ______ ____
ROOT
ATOM      1  C   UNL     1      -7.061   3.700 132.453  0.00  0.00    +0.000 C 
ENDROOT
BRANCH   1   4
ATOM      2  C   UNL     1      -4.408   4.748 133.357  0.00  0.00    +0.000 C 
ATOM      3  O   UNL     1      -3.648   3.785 133.693  0.00  0.00    +0.000 OA
ATOM      4  N   UNL     1      -5.792   4.896 132.775  0.00  0.00    +0.000 N 
ATOM      5  H   UNL     1      -5.866   5.612 132.054  0.00  0.00    +0.000 HD
BRANCH   2   6
ATOM      6  C   UNL     1      -3.441   5.742 133.646  0.00  0.00    +0.000 C 
BRANCH   6   9
ATOM      7  C   UNL     1      -3.152   7.776 131.933  0.00  0.00    +0.000 C 
ATOM      8  O   UNL     1      -3.527   8.201 130.833  0.00  0.00    +0.000 OA
ATOM      9  N   UNL     1      -3.545   6.404 132.278  0.00  0.00    +0.000 N 
ATOM     10  H   UNL     1      -4.503   6.306 131.935  0.00  0.00    +0.000 HD
BRANCH   7  11
ATOM     11  C   UNL     1      -2.139   8.793 132.913  0.00  0.00    +0.000 C 
BRANCH  11  12
ATOM     12  N   UNL     1      -2.685   9.001 134.231  0.00  0.00    +0.000 N 
ATOM     13  C   UNL     1      -2.601  10.217 134.881  0.00  0.00    +0.000 C 
ATOM     14  O   UNL     1      -2.379  11.327 134.409  0.00  0.00    +0.000 OA
ATOM     15  H   UNL     1      -3.541   8.476 134.384  0.00  0.00    +0.000 HD
BRANCH  13  16
ATOM     16  C   UNL     1      -2.964  10.170 136.307  0.00  0.00    +0.000 C 
BRANCH  16  17
ATOM     17  N   UNL     1      -4.168   9.325 136.531  0.00  0.00    +0.000 N 
ATOM     18  C   UNL     1      -5.096   9.754 137.446  0.00  0.00    +0.000 C 
ATOM     19  O   UNL     1      -4.834  10.731 138.140  0.00  0.00    +0.000 OA
ATOM     20  H   UNL     1      -4.448   8.657 135.824  0.00  0.00    +0.000 HD
BRANCH  18  21
ATOM     21  C   UNL     1      -6.387   8.945 137.600  0.00  0.00    +0.000 C 
BRANCH  21  22
ATOM     22  C   UNL     1      -6.447   8.135 138.954  0.00  0.00    +0.000 C 
ATOM     23  C   UNL     1      -7.270   6.836 138.745  0.00  0.00    +0.000 C 
ATOM     24  C   UNL     1      -7.200   5.845 139.901  0.00  0.00    +0.000 C 
ATOM     25  C   UNL     1      -5.774   5.560 140.356  0.00  0.00    +0.000 C 
ATOM     26  C   UNL     1      -4.872   6.774 140.486  0.00  0.00    +0.000 C 
ATOM     27  C   UNL     1      -5.000   7.722 139.320  0.00  0.00    +0.000 C 
BRANCH  22  28
ATOM     28  S   UNL     1      -7.352   9.269 140.186  0.00  0.00    +0.000 S 
BRANCH  28  29
ATOM     29  C   UNL     1      -8.395  10.381 139.205  0.00  0.00    +0.000 C 
BRANCH  29  30
ATOM     30  C   UNL     1      -9.842   9.991 139.113  0.00  0.00    +0.000 C 
BRANCH  30  31
ATOM     31  C   UNL     1     -10.156   9.353 137.760  0.00  0.00    +0.000 C 
ATOM     32  N   UNL     1     -11.372   8.762 137.541  0.00  0.00    +0.000 N 
ATOM     33  O   UNL     1      -9.329   9.356 136.850  0.00  0.00    +0.000 OA
ATOM     34  H   UNL     1     -12.143   8.704 138.190  0.00  0.00    +0.000 HD
ATOM     35  H   UNL     1     -11.530   8.357 136.626  0.00  0.00    +0.000 HD
ENDBRANCH  30  31
ENDBRANCH  29  30
ENDBRANCH  28  29
ENDBRANCH  22  28
ENDBRANCH  21  22
ENDBRANCH  18  21
ENDBRANCH  16  17
BRANCH  16  36
ATOM     36  C   UNL     1      -1.688   9.533 136.792  0.00  0.00    +0.000 C 
BRANCH  36  37
ATOM     37  C   UNL     1      -0.658  10.450 137.250  0.00  0.00    +0.000 A 
ATOM     38  C   UNL     1      -1.058  11.606 137.894  0.00  0.00    +0.000 A 
ATOM     39  C   UNL     1      -0.130  12.551 138.181  0.00  0.00    +0.000 A 
ATOM     40  C   UNL     1       1.211  12.261 137.979  0.00  0.00    +0.000 A 
ATOM     41  C   UNL     1       1.619  11.057 137.387  0.00  0.00    +0.000 A 
ATOM     42  C   UNL     1       0.674  10.134 137.006  0.00  0.00    +0.000 A 
BRANCH  40  43
ATOM     43  O   UNL     1       2.035  13.238 138.444  0.00  0.00    +0.000 OA
ATOM     44  C   UNL     1       3.381  13.116 138.035  0.00  0.00    +0.000 C 
ENDBRANCH  40  43
ENDBRANCH  36  37
ENDBRANCH  16  36
ENDBRANCH  13  16
ENDBRANCH  11  12
BRANCH  11  45
ATOM     45  C   UNL     1      -0.454   8.386 133.066  0.00  0.00    +0.000 C 
ATOM     46  C   UNL     1      -0.010   7.173 133.993  0.00  0.00    +0.000 C 
BRANCH  45  48
ATOM     47  C   UNL     1       0.994  11.290 133.372  0.00  0.00    +0.000 C 
ATOM     48  C   UNL     1       0.742   9.581 133.431  0.00  0.00    +0.000 C 
ENDBRANCH  45  48
ENDBRANCH  11  45
ENDBRANCH   7  11
ENDBRANCH   6   9
BRANCH   6  49
ATOM     49  C   UNL     1      -3.667   6.201 135.047  0.00  0.00    +0.000 C 
ATOM     50  C   UNL     1      -5.088   6.007 135.693  0.00  0.00    +0.000 C 
BRANCH  49  51
ATOM     51  O   UNL     1      -2.790   5.397 135.824  0.00  0.00    +0.000 OA
ATOM     52  H   UNL     1      -1.972   5.922 135.950  0.00  0.00    +0.000 HD
ENDBRANCH  49  51
ENDBRANCH   6  49
ENDBRANCH   2   6
ENDBRANCH   1   4
BRANCH   1  53
ATOM     53  C   UNL     1      -6.620   2.303 131.903  0.00  0.00    +0.000 C 
ATOM     54  O   UNL     1      -5.471   2.219 131.464  0.00  0.00    +0.000 OA
ATOM     55  N   UNL     1      -7.461   1.179 132.022  0.00  0.00    +0.000 N 
ATOM     56  H   UNL     1      -8.279   1.200 132.639  0.00  0.00    +0.000 HD
BRANCH  55  57
ATOM     57  C   UNL     1      -6.949  -0.197 131.745  0.00  0.00    +0.000 C 
BRANCH  57  58
ATOM     58  C   UNL     1      -6.798  -0.558 130.186  0.00  0.00    +0.000 C 
ATOM     59  O   UNL     1      -7.256   0.207 129.334  0.00  0.00    +0.000 OA
ATOM     60  N   UNL     1      -5.993  -1.648 129.822  0.00  0.00    +0.000 N 
ATOM     61  C   UNL     1      -6.042  -3.028 130.283  0.00  0.00    +0.000 C 
ATOM     62  C   UNL     1      -4.594  -3.432 130.210  0.00  0.00    +0.000 C 
ATOM     63  C   UNL     1      -4.185  -2.881 128.856  0.00  0.00    +0.000 C 
ATOM     64  C   UNL     1      -5.079  -1.632 128.641  0.00  0.00    +0.000 C 
BRANCH  64  65
ATOM     65  C   UNL     1      -5.781  -1.896 127.291  0.00  0.00    +0.000 C 
ATOM     66  O   UNL     1      -5.303  -2.700 126.488  0.00  0.00    +0.000 OA
ATOM     67  N   UNL     1      -6.889  -1.112 126.980  0.00  0.00    +0.000 N 
ATOM     68  H   UNL     1      -7.145  -0.317 127.558  0.00  0.00    +0.000 HD
BRANCH  67  69
ATOM     69  C   UNL     1      -7.793  -1.402 125.837  0.00  0.00    +0.000 C 
BRANCH  69  70
ATOM     70  C   UNL     1      -8.596  -0.159 125.393  0.00  0.00    +0.000 C 
ATOM     71  O   UNL     1      -9.819  -0.132 125.526  0.00  0.00    +0.000 OA
ATOM     72  N   UNL     1      -7.888   0.854 124.765  0.00  0.00    +0.000 N 
ATOM     73  H   UNL     1      -6.999   0.626 124.353  0.00  0.00    +0.000 HD
BRANCH  72  74
ATOM     74  C   UNL     1      -8.493   2.176 124.472  0.00  0.00    +0.000 C 
BRANCH  74  75
ATOM     75  C   UNL     1      -9.100   2.300 123.045  0.00  0.00    +0.000 C 
ATOM     76  N   UNL     1      -9.947   1.320 122.604  0.00  0.00    +0.000 N 
ATOM     77  O   UNL     1      -8.835   3.230 122.286  0.00  0.00    +0.000 OA
ATOM     78  H   UNL     1     -10.271   0.528 123.129  0.00  0.00    +0.000 HD
ATOM     79  H   UNL     1     -10.324   1.426 121.670  0.00  0.00    +0.000 HD
ENDBRANCH  74  75
BRANCH  74  80
ATOM     80  C   UNL     1      -7.456   3.332 124.650  0.00  0.00    +0.000 C 
BRANCH  80  81
ATOM     81  C   UNL     1      -6.878   3.417 126.052  0.00  0.00    +0.000 A 
ATOM     82  C   UNL     1      -7.656   3.829 127.137  0.00  0.00    +0.000 A 
ATOM     83  C   UNL     1      -7.027   4.349 128.282  0.00  0.00    +0.000 A 
ATOM     84  C   UNL     1      -5.621   4.349 128.450  0.00  0.00    +0.000 A 
ATOM     85  C   UNL     1      -4.860   3.827 127.381  0.00  0.00    +0.000 A 
ATOM     86  I   UNL     1      -2.753   3.797 127.202  0.00  0.00    +0.000 I 
ATOM     87  C   UNL     1      -5.490   3.364 126.210  0.00  0.00    +0.000 A 
BRANCH  84  88
ATOM     88  N   UNL     1      -5.193   4.956 129.649  0.00  0.00    +0.000 NA
ATOM     89  N   UNL     1      -5.825   5.987 130.061  0.00  0.00    +0.000 NA
ATOM     90  N   UNL     1      -6.340   6.878 130.470  0.00  0.00    +0.000 NA
ENDBRANCH  84  88
ENDBRANCH  80  81
ENDBRANCH  74  80
ENDBRANCH  72  74
ENDBRANCH  69  70
BRANCH  69  91
ATOM     91  C   UNL     1      -8.922  -2.348 126.237  0.00  0.00    +0.000 C 
BRANCH  91  92
ATOM     92  C   UNL     1      -8.929  -3.604 125.415  0.00  0.00    +0.000 C 
BRANCH  92  93
ATOM     93  C   UNL     1      -8.741  -3.347 123.953  0.00  0.00    +0.000 C 
BRANCH  93  94
ATOM     94  N   UNL     1     -10.061  -3.400 123.371  0.00  0.00    +0.000 NA
ATOM     95  H   UNL     1     -10.517  -2.493 123.418  0.00  0.00    +0.000 HD
ATOM     96  H   UNL     1     -10.624  -4.105 123.827  0.00  0.00    +0.000 HD
ENDBRANCH  93  94
ENDBRANCH  92  93
ENDBRANCH  91  92
ENDBRANCH  69  91
ENDBRANCH  67  69
ENDBRANCH  64  65
ENDBRANCH  57  58
BRANCH  57  97
ATOM     97  C   UNL     1      -7.777  -1.289 132.406  0.00  0.00    +0.000 C 
BRANCH  97  98
ATOM     98  S   UNL     1      -7.240  -2.387 133.764  0.00  0.00    +0.000 S 
ATOM     99  H   UNL     1      -5.966  -2.488 133.357  0.00  0.00    +0.000 HD
ENDBRANCH  97  98
ENDBRANCH  57  97
ENDBRANCH  55  57
ENDBRANCH   1  53
BRANCH   1 100
ATOM    100  C   UNL     1      -8.653   4.175 131.916  0.00  0.00    +0.000 C 
BRANCH 100 101
ATOM    101  C   UNL     1      -9.738   5.633 132.151  0.00  0.00    +0.000 C 
ATOM    102  N   UNL     1     -11.183   5.790 132.328  0.00  0.00    +0.000 N 
ATOM    103  O   UNL     1      -9.155   6.725 132.198  0.00  0.00    +0.000 OA
ATOM    104  H   UNL     1     -11.932   5.086 132.504  0.00  0.00    +0.000 HD
ATOM    105  H   UNL     1     -11.460   6.454 133.049  0.00  0.00    +0.000 HD
ENDBRANCH 100 101
ENDBRANCH   1 100
TORSDOF 39
ENDMDL
MODEL 9
REMARK VINA RESULT:      -8.9      3.422      8.026
REMARK  Name = CHEMBL3142790
REMARK  43 active torsions:
REMARK  status: ('A' for Active; 'I' for Inactive)
REMARK    1  A    between atoms: C_1  and  C_2
REMARK    2  A    between atoms: C_2  and  C_3
REMARK    3  A    between atoms: C_3  and  C_4
REMARK    4  A    between atoms: C_3  and  C_5
REMARK    5  A    between atoms: C_5  and  N_6
REMARK    6  A    between atoms: C_5  and  C_35
REMARK    7  A    between atoms: C_7  and  C_9
REMARK    8  A    between atoms: C_9  and  C_10
REMARK    9  A    between atoms: C_9  and  N_19
REMARK   10  A    between atoms: C_10  and  C_11
REMARK   11  A    between atoms: C_14  and  O_15
REMARK   12  A    between atoms: O_15  and  C_16
REMARK   13  A    between atoms: C_20  and  C_22
REMARK   14  A    between atoms: C_22  and  C_23
REMARK   15  A    between atoms: C_23  and  S_24
REMARK   16  A    between atoms: S_24  and  C_25
REMARK   17  A    between atoms: C_25  and  C_26
REMARK   18  A    between atoms: C_26  and  C_27
REMARK   19  A    between atoms: N_37  and  C_38
REMARK   20  A    between atoms: C_38  and  C_39
REMARK   21  A    between atoms: C_38  and  C_86
REMARK   22  A    between atoms: N_41  and  C_42
REMARK   23  A    between atoms: C_42  and  C_43
REMARK   24  A    between atoms: C_42  and  C_47
REMARK   25  A    between atoms: C_43  and  C_44
REMARK   26  A    between atoms: N_49  and  C_50
REMARK   27  A    between atoms: C_50  and  C_51
REMARK   28  A    between atoms: C_50  and  C_53
REMARK   29  A    between atoms: C_51  and  S_52
REMARK   30  A    between atoms: C_59  and  C_60
REMARK   31  A    between atoms: N_62  and  C_63
REMARK   32  A    between atoms: C_63  and  C_64
REMARK   33  A    between atoms: C_63  and  C_68
REMARK   34  A    between atoms: C_64  and  C_65
REMARK   35  A    between atoms: C_65  and  C_66
REMARK   36  A    between atoms: C_66  and  N_67
REMARK   37  A    between atoms: N_70  and  C_71
REMARK   38  A    between atoms: C_71  and  C_72
REMARK   39  A    between atoms: C_71  and  C_83
REMARK   40  A    between atoms: C_72  and  C_73
REMARK   41  A    between atoms: C_76  and  N_77
REMARK   42  A    between atoms: C_86  and  C_87
REMARK   43  A    between atoms: C_86  and  O_88
REMARK                            x       y       z     vdW  Elec       q    Type
REMARK                         _______ _______ _______ _____ _____    ______ ____
ROOT
ATOM      1  C   UNL     1      -3.499  -1.633 136.080  0.00  0.00    +0.000 C 
ENDROOT
BRANCH   1   4
ATOM      2  C   UNL     1      -4.223   1.121 137.001  0.00  0.00    +0.000 C 
ATOM      3  O   UNL     1      -4.697   1.078 138.179  0.00  0.00    +0.000 OA
ATOM      4  N   UNL     1      -3.631   0.134 136.024  0.00  0.00    +0.000 N 
ATOM      5  H   UNL     1      -2.810   0.479 135.529  0.00  0.00    +0.000 HD
BRANCH   2   6
ATOM      6  C   UNL     1      -4.354   2.527 136.893  0.00  0.00    +0.000 C 
BRANCH   6   9
ATOM      7  C   UNL     1      -2.709   4.134 138.259  0.00  0.00    +0.000 C 
ATOM      8  O   UNL     1      -1.691   4.138 138.961  0.00  0.00    +0.000 OA
ATOM      9  N   UNL     1      -3.279   2.822 137.932  0.00  0.00    +0.000 N 
ATOM     10  H   UNL     1      -2.474   2.217 137.756  0.00  0.00    +0.000 HD
BRANCH   7  11
ATOM     11  C   UNL     1      -3.409   5.660 137.806  0.00  0.00    +0.000 C 
BRANCH  11  12
ATOM     12  N   UNL     1      -3.079   6.033 136.453  0.00  0.00    +0.000 N 
ATOM     13  C   UNL     1      -2.080   6.942 136.161  0.00  0.00    +0.000 C 
ATOM     14  O   UNL     1      -1.154   7.320 136.870  0.00  0.00    +0.000 OA
ATOM     15  H   UNL     1      -3.177   5.259 135.802  0.00  0.00    +0.000 HD
BRANCH  13  16
ATOM     16  C   UNL     1      -2.066   7.401 134.763  0.00  0.00    +0.000 C 
BRANCH  16  17
ATOM     17  N   UNL     1      -3.105   6.707 133.955  0.00  0.00    +0.000 N 
ATOM     18  C   UNL     1      -2.700   6.013 132.843  0.00  0.00    +0.000 C 
ATOM     19  O   UNL     1      -1.532   6.109 132.479  0.00  0.00    +0.000 OA
ATOM     20  H   UNL     1      -3.998   6.481 134.377  0.00  0.00    +0.000 HD
BRANCH  18  21
ATOM     21  C   UNL     1      -3.749   5.207 132.071  0.00  0.00    +0.000 C 
BRANCH  21  22
ATOM     22  C   UNL     1      -4.031   5.786 130.630  0.00  0.00    +0.000 C 
ATOM     23  C   UNL     1      -3.763   7.315 130.624  0.00  0.00    +0.000 C 
ATOM     24  C   UNL     1      -3.760   7.955 129.241  0.00  0.00    +0.000 C 
ATOM     25  C   UNL     1      -2.884   7.210 128.241  0.00  0.00    +0.000 C 
ATOM     26  C   UNL     1      -3.011   5.698 128.256  0.00  0.00    +0.000 C 
ATOM     27  C   UNL     1      -3.025   5.128 129.653  0.00  0.00    +0.000 C 
BRANCH  22  28
ATOM     28  S   UNL     1      -5.878   5.463 130.303  0.00  0.00    +0.000 S 
BRANCH  28  29
ATOM     29  C   UNL     1      -6.798   6.757 131.180  0.00  0.00    +0.000 C 
BRANCH  29  30
ATOM     30  C   UNL     1      -8.293   6.651 131.098  0.00  0.00    +0.000 C 
BRANCH  30  31
ATOM     31  C   UNL     1      -8.878   6.082 132.392  0.00  0.00    +0.000 C 
ATOM     32  N   UNL     1     -10.234   5.987 132.553  0.00  0.00    +0.000 N 
ATOM     33  O   UNL     1      -8.147   5.706 133.306  0.00  0.00    +0.000 OA
ATOM     34  H   UNL     1     -10.944   6.242 131.881  0.00  0.00    +0.000 HD
ATOM     35  H   UNL     1     -10.569   5.600 133.427  0.00  0.00    +0.000 HD
ENDBRANCH  30  31
ENDBRANCH  29  30
ENDBRANCH  28  29
ENDBRANCH  22  28
ENDBRANCH  21  22
ENDBRANCH  18  21
ENDBRANCH  16  17
BRANCH  16  36
ATOM     36  C   UNL     1      -2.397   8.843 135.050  0.00  0.00    +0.000 C 
BRANCH  36  37
ATOM     37  C   UNL     1      -1.689   9.825 134.247  0.00  0.00    +0.000 A 
ATOM     38  C   UNL     1      -0.360   9.586 133.952  0.00  0.00    +0.000 A 
ATOM     39  C   UNL     1       0.363  10.562 133.348  0.00  0.00    +0.000 A 
ATOM     40  C   UNL     1      -0.288  11.697 132.891  0.00  0.00    +0.000 A 
ATOM     41  C   UNL     1      -1.654  11.906 133.133  0.00  0.00    +0.000 A 
ATOM     42  C   UNL     1      -2.371  10.963 133.829  0.00  0.00    +0.000 A 
BRANCH  40  43
ATOM     43  O   UNL     1       0.529  12.520 132.180  0.00  0.00    +0.000 OA
ATOM     44  C   UNL     1       1.485  13.212 132.956  0.00  0.00    +0.000 C 
ENDBRANCH  40  43
ENDBRANCH  36  37
ENDBRANCH  16  36
ENDBRANCH  13  16
ENDBRANCH  11  12
BRANCH  11  45
ATOM     45  C   UNL     1      -5.117   5.894 138.048  0.00  0.00    +0.000 C 
ATOM     46  C   UNL     1      -5.693   7.357 138.276  0.00  0.00    +0.000 C 
BRANCH  45  48
ATOM     47  C   UNL     1      -5.774   3.798 140.457  0.00  0.00    +0.000 C 
ATOM     48  C   UNL     1      -6.009   4.965 139.204  0.00  0.00    +0.000 C 
ENDBRANCH  45  48
ENDBRANCH  11  45
ENDBRANCH   7  11
ENDBRANCH   6   9
BRANCH   6  49
ATOM     49  C   UNL     1      -4.526   2.857 135.448  0.00  0.00    +0.000 C 
ATOM     50  C   UNL     1      -5.539   3.989 135.040  0.00  0.00    +0.000 C 
BRANCH  49  51
ATOM     51  O   UNL     1      -3.250   3.334 135.044  0.00  0.00    +0.000 OA
ATOM     52  H   UNL     1      -3.391   4.240 134.697  0.00  0.00    +0.000 HD
ENDBRANCH  49  51
ENDBRANCH   6  49
ENDBRANCH   2   6
ENDBRANCH   1   4
BRANCH   1  53
ATOM     53  C   UNL     1      -3.018  -2.366 134.784  0.00  0.00    +0.000 C 
ATOM     54  O   UNL     1      -1.928  -2.939 134.844  0.00  0.00    +0.000 OA
ATOM     55  N   UNL     1      -3.853  -2.462 133.652  0.00  0.00    +0.000 N 
ATOM     56  H   UNL     1      -4.852  -2.237 133.718  0.00  0.00    +0.000 HD
BRANCH  55  57
ATOM     57  C   UNL     1      -3.514  -3.377 132.522  0.00  0.00    +0.000 C 
BRANCH  57  58
ATOM     58  C   UNL     1      -3.836  -2.789 131.060  0.00  0.00    +0.000 C 
ATOM     59  O   UNL     1      -2.909  -2.506 130.297  0.00  0.00    +0.000 OA
ATOM     60  N   UNL     1      -5.167  -2.775 130.617  0.00  0.00    +0.000 N 
ATOM     61  C   UNL     1      -6.349  -2.215 131.259  0.00  0.00    +0.000 C 
ATOM     62  C   UNL     1      -7.429  -3.153 130.791  0.00  0.00    +0.000 C 
ATOM     63  C   UNL     1      -7.106  -3.289 129.314  0.00  0.00    +0.000 C 
ATOM     64  C   UNL     1      -5.568  -3.113 129.219  0.00  0.00    +0.000 C 
BRANCH  64  65
ATOM     65  C   UNL     1      -5.382  -1.959 128.209  0.00  0.00    +0.000 C 
ATOM     66  O   UNL     1      -4.893  -0.888 128.571  0.00  0.00    +0.000 OA
ATOM     67  N   UNL     1      -5.893  -2.142 126.926  0.00  0.00    +0.000 N 
ATOM     68  H   UNL     1      -6.474  -2.945 126.705  0.00  0.00    +0.000 HD
BRANCH  67  69
ATOM     69  C   UNL     1      -5.592  -1.226 125.795  0.00  0.00    +0.000 C 
BRANCH  69  70
ATOM     70  C   UNL     1      -6.660  -0.121 125.633  0.00  0.00    +0.000 C 
ATOM     71  O   UNL     1      -7.462  -0.168 124.702  0.00  0.00    +0.000 OA
ATOM     72  N   UNL     1      -6.599   0.945 126.518  0.00  0.00    +0.000 N 
ATOM     73  H   UNL     1      -5.728   1.118 126.992  0.00  0.00    +0.000 HD
BRANCH  72  74
ATOM     74  C   UNL     1      -7.673   1.963 126.604  0.00  0.00    +0.000 C 
BRANCH  74  75
ATOM     75  C   UNL     1      -7.813   2.853 125.335  0.00  0.00    +0.000 C 
ATOM     76  N   UNL     1      -8.872   2.639 124.495  0.00  0.00    +0.000 N 
ATOM     77  O   UNL     1      -7.000   3.728 125.042  0.00  0.00    +0.000 OA
ATOM     78  H   UNL     1      -9.621   1.985 124.631  0.00  0.00    +0.000 HD
ATOM     79  H   UNL     1      -8.935   3.232 123.676  0.00  0.00    +0.000 HD
ENDBRANCH  74  75
BRANCH  74  80
ATOM     80  C   UNL     1      -7.469   2.910 127.830  0.00  0.00    +0.000 C 
BRANCH  80  81
ATOM     81  C   UNL     1      -7.484   2.185 129.164  0.00  0.00    +0.000 A 
ATOM     82  C   UNL     1      -8.648   2.100 129.933  0.00  0.00    +0.000 A 
ATOM     83  C   UNL     1      -8.548   1.867 131.316  0.00  0.00    +0.000 A 
ATOM     84  C   UNL     1      -7.320   1.574 131.957  0.00  0.00    +0.000 A 
ATOM     85  C   UNL     1      -6.171   1.561 131.137  0.00  0.00    +0.000 A 
ATOM     86  I   UNL     1      -4.162   1.315 131.750  0.00  0.00    +0.000 I 
ATOM     87  C   UNL     1      -6.266   1.856 129.763  0.00  0.00    +0.000 A 
BRANCH  84  88
ATOM     88  N   UNL     1      -7.433   1.418 133.354  0.00  0.00    +0.000 NA
ATOM     89  N   UNL     1      -6.858   0.415 133.897  0.00  0.00    +0.000 NA
ATOM     90  N   UNL     1      -6.373  -0.430 134.424  0.00  0.00    +0.000 NA
ENDBRANCH  84  88
ENDBRANCH  80  81
ENDBRANCH  74  80
ENDBRANCH  72  74
ENDBRANCH  69  70
BRANCH  69  91
ATOM     91  C   UNL     1      -5.705  -1.937 124.449  0.00  0.00    +0.000 C 
BRANCH  91  92
ATOM     92  C   UNL     1      -5.194  -3.347 124.506  0.00  0.00    +0.000 C 
BRANCH  92  93
ATOM     93  C   UNL     1      -4.518  -3.776 123.242  0.00  0.00    +0.000 C 
BRANCH  93  94
ATOM     94  N   UNL     1      -4.136  -5.152 123.446  0.00  0.00    +0.000 NA
ATOM     95  H   UNL     1      -3.162  -5.222 123.728  0.00  0.00    +0.000 HD
ATOM     96  H   UNL     1      -4.303  -5.697 122.610  0.00  0.00    +0.000 HD
ENDBRANCH  93  94
ENDBRANCH  92  93
ENDBRANCH  91  92
ENDBRANCH  69  91
ENDBRANCH  67  69
ENDBRANCH  64  65
ENDBRANCH  57  58
BRANCH  57  97
ATOM     97  C   UNL     1      -4.173  -4.743 132.637  0.00  0.00    +0.000 C 
BRANCH  97  98
ATOM     98  S   UNL     1      -5.629  -5.164 133.656  0.00  0.00    +0.000 S 
ATOM     99  H   UNL     1      -5.412  -6.488 133.657  0.00  0.00    +0.000 HD
ENDBRANCH  97  98
ENDBRANCH  57  97
ENDBRANCH  55  57
ENDBRANCH   1  53
BRANCH   1 100
ATOM    100  C   UNL     1      -4.574  -2.603 137.055  0.00  0.00    +0.000 C 
BRANCH 100 101
ATOM    101  C   UNL     1      -6.320  -3.150 136.938  0.00  0.00    +0.000 C 
ATOM    102  N   UNL     1      -7.388  -2.893 135.971  0.00  0.00    +0.000 N 
ATOM    103  O   UNL     1      -6.696  -3.915 137.836  0.00  0.00    +0.000 OA
ATOM    104  H   UNL     1      -7.368  -2.443 135.031  0.00  0.00    +0.000 HD
ATOM    105  H   UNL     1      -7.939  -3.710 135.710  0.00  0.00    +0.000 HD
ENDBRANCH 100 101
ENDBRANCH   1 100
TORSDOF 39
ENDMDL
