MODEL 1
REMARK VINA RESULT:      -9.1      0.000      0.000
REMARK  Name = CHEMBL31665
REMARK  4 active torsions:
REMARK  status: ('A' for Active; 'I' for Inactive)
REMARK    1  A    between atoms: C_1  and  C_2
REMARK    2  A    between atoms: C_4  and  C_5
REMARK    3  A    between atoms: C_12  and  C_13
REMARK    4  A    between atoms: C_18  and  N_19
REMARK                            x       y       z     vdW  Elec       q    Type
REMARK                         _______ _______ _______ _____ _____    ______ ____
ROOT
ATOM      1  C   UNL     1      -8.946   3.179 131.640  0.00  0.00    +0.000 C 
ATOM      2  O   UNL     1      -8.967   2.987 132.856  0.00  0.00    +0.000 OA
ATOM      3  N   UNL     1      -8.301   2.280 130.800  0.00  0.00    +0.000 N 
ATOM      4  C   UNL     1      -8.661   0.865 130.835  0.00  0.00    +0.000 C 
ATOM      5  C   UNL     1      -7.429  -0.005 131.007  0.00  0.00    +0.000 C 
ATOM      6  C   UNL     1      -6.351   0.313 129.948  0.00  0.00    +0.000 C 
ATOM      7  C   UNL     1      -5.977   1.798 130.024  0.00  0.00    +0.000 C 
ATOM      8  C   UNL     1      -7.200   2.668 129.926  0.00  0.00    +0.000 C 
ENDROOT
BRANCH   6   9
ATOM      9  N   UNL     1      -6.698  -0.231 128.582  0.00  0.00    +0.000 N 
ATOM     10  C   UNL     1      -6.443   0.413 127.371  0.00  0.00    +0.000 C 
ATOM     11  O   UNL     1      -5.388   0.897 126.976  0.00  0.00    +0.000 OA
ATOM     12  O   UNL     1      -7.542   0.532 126.586  0.00  0.00    +0.000 OA
ATOM     13  C   UNL     1      -7.911  -0.736 126.087  0.00  0.00    +0.000 C 
ATOM     14  C   UNL     1      -8.013  -1.730 127.201  0.00  0.00    +0.000 A 
ATOM     15  C   UNL     1      -8.672  -2.938 126.970  0.00  0.00    +0.000 A 
ATOM     16  C   UNL     1      -8.752  -3.881 127.984  0.00  0.00    +0.000 A 
ATOM     17  C   UNL     1      -8.167  -3.624 129.221  0.00  0.00    +0.000 A 
ATOM     18  C   UNL     1      -7.505  -2.417 129.457  0.00  0.00    +0.000 A 
ATOM     19  C   UNL     1      -7.427  -1.453 128.451  0.00  0.00    +0.000 A 
ENDBRANCH   6   9
BRANCH   1  26
ATOM     20  C   UNL     1      -8.136   6.243 131.730  0.00  0.00    +0.000 C 
ATOM     21  C   UNL     1      -9.339   5.688 131.069  0.00  0.00    +0.000 A 
ATOM     22  N   UNL     1     -10.077   6.666 130.492  0.00  0.00    +0.000 NA
ATOM     23  C   UNL     1     -11.192   6.301 129.862  0.00  0.00    +0.000 A 
ATOM     24  N   UNL     1     -11.649   5.043 129.773  0.00  0.00    +0.000 NA
ATOM     25  C   UNL     1     -10.872   4.092 130.359  0.00  0.00    +0.000 A 
ATOM     26  C   UNL     1      -9.703   4.344 131.068  0.00  0.00    +0.000 A 
BRANCH  23  27
ATOM     27  C   UNL     1     -12.036   7.384 129.386  0.00  0.00    +0.000 A 
ATOM     28  C   UNL     1     -12.269   8.604 129.988  0.00  0.00    +0.000 A 
ATOM     29  C   UNL     1     -13.151   9.428 129.233  0.00  0.00    +0.000 A 
ATOM     30  C   UNL     1     -13.560   8.814 128.071  0.00  0.00    +0.000 A 
ATOM     31  S   UNL     1     -12.855   7.265 127.883  0.00  0.00    +0.000 S 
ENDBRANCH  23  27
ENDBRANCH   1  26
TORSDOF 3
ENDMDL
MODEL 2
REMARK VINA RESULT:      -8.8      2.338      3.423
REMARK  Name = CHEMBL31665
REMARK  4 active torsions:
REMARK  status: ('A' for Active; 'I' for Inactive)
REMARK    1  A    between atoms: C_1  and  C_2
REMARK    2  A    between atoms: C_4  and  C_5
REMARK    3  A    between atoms: C_12  and  C_13
REMARK    4  A    between atoms: C_18  and  N_19
REMARK                            x       y       z     vdW  Elec       q    Type
REMARK                         _______ _______ _______ _____ _____    ______ ____
ROOT
ATOM      1  C   UNL     1      -7.347   2.217 129.204  0.00  0.00    +0.000 C 
ATOM      2  O   UNL     1      -6.667   1.758 130.121  0.00  0.00    +0.000 OA
ATOM      3  N   UNL     1      -7.242   1.693 127.922  0.00  0.00    +0.000 N 
ATOM      4  C   UNL     1      -7.441   0.262 127.703  0.00  0.00    +0.000 C 
ATOM      5  C   UNL     1      -6.282  -0.335 126.925  0.00  0.00    +0.000 C 
ATOM      6  C   UNL     1      -6.011   0.441 125.617  0.00  0.00    +0.000 C 
ATOM      7  C   UNL     1      -5.742   1.915 125.938  0.00  0.00    +0.000 C 
ATOM      8  C   UNL     1      -6.852   2.497 126.770  0.00  0.00    +0.000 C 
ENDROOT
BRANCH   6   9
ATOM      9  N   UNL     1      -7.039   0.155 124.547  0.00  0.00    +0.000 N 
ATOM     10  C   UNL     1      -7.594   1.106 123.690  0.00  0.00    +0.000 C 
ATOM     11  O   UNL     1      -7.013   1.932 122.996  0.00  0.00    +0.000 OA
ATOM     12  O   UNL     1      -8.950   1.105 123.695  0.00  0.00    +0.000 OA
ATOM     13  C   UNL     1      -9.428  -0.064 123.064  0.00  0.00    +0.000 C 
ATOM     14  C   UNL     1      -8.775  -1.279 123.645  0.00  0.00    +0.000 A 
ATOM     15  C   UNL     1      -9.336  -2.533 123.397  0.00  0.00    +0.000 A 
ATOM     16  C   UNL     1      -8.729  -3.671 123.905  0.00  0.00    +0.000 A 
ATOM     17  C   UNL     1      -7.558  -3.560 124.652  0.00  0.00    +0.000 A 
ATOM     18  C   UNL     1      -6.991  -2.308 124.903  0.00  0.00    +0.000 A 
ATOM     19  C   UNL     1      -7.598  -1.153 124.408  0.00  0.00    +0.000 A 
ENDBRANCH   6   9
BRANCH   1  26
ATOM     20  C   UNL     1      -9.664   2.135 131.367  0.00  0.00    +0.000 C 
ATOM     21  C   UNL     1      -9.355   3.278 130.477  0.00  0.00    +0.000 A 
ATOM     22  N   UNL     1     -10.201   4.312 130.696  0.00  0.00    +0.000 NA
ATOM     23  C   UNL     1     -10.032   5.408 129.957  0.00  0.00    +0.000 A 
ATOM     24  N   UNL     1      -9.104   5.555 129.000  0.00  0.00    +0.000 NA
ATOM     25  C   UNL     1      -8.271   4.494 128.819  0.00  0.00    +0.000 A 
ATOM     26  C   UNL     1      -8.358   3.288 129.506  0.00  0.00    +0.000 A 
BRANCH  23  27
ATOM     27  C   UNL     1     -11.045   6.438 130.110  0.00  0.00    +0.000 A 
ATOM     28  C   UNL     1     -11.999   6.550 131.102  0.00  0.00    +0.000 A 
ATOM     29  C   UNL     1     -12.828   7.696 130.940  0.00  0.00    +0.000 A 
ATOM     30  C   UNL     1     -12.478   8.431 129.830  0.00  0.00    +0.000 A 
ATOM     31  S   UNL     1     -11.135   7.753 129.012  0.00  0.00    +0.000 S 
ENDBRANCH  23  27
ENDBRANCH   1  26
TORSDOF 3
ENDMDL
MODEL 3
REMARK VINA RESULT:      -8.5      4.469      7.971
REMARK  Name = CHEMBL31665
REMARK  4 active torsions:
REMARK  status: ('A' for Active; 'I' for Inactive)
REMARK    1  A    between atoms: C_1  and  C_2
REMARK    2  A    between atoms: C_4  and  C_5
REMARK    3  A    between atoms: C_12  and  C_13
REMARK    4  A    between atoms: C_18  and  N_19
REMARK                            x       y       z     vdW  Elec       q    Type
REMARK                         _______ _______ _______ _____ _____    ______ ____
ROOT
ATOM      1  C   UNL     1      -6.164   1.485 126.561  0.00  0.00    +0.000 C 
ATOM      2  O   UNL     1      -5.505   0.456 126.705  0.00  0.00    +0.000 OA
ATOM      3  N   UNL     1      -6.765   2.092 127.657  0.00  0.00    +0.000 N 
ATOM      4  C   UNL     1      -5.957   2.458 128.818  0.00  0.00    +0.000 C 
ATOM      5  C   UNL     1      -6.564   1.909 130.097  0.00  0.00    +0.000 C 
ATOM      6  C   UNL     1      -8.048   2.312 130.246  0.00  0.00    +0.000 C 
ATOM      7  C   UNL     1      -8.838   1.830 129.023  0.00  0.00    +0.000 C 
ATOM      8  C   UNL     1      -8.203   2.310 127.747  0.00  0.00    +0.000 C 
ENDROOT
BRANCH   6   9
ATOM      9  N   UNL     1      -8.221   3.760 130.638  0.00  0.00    +0.000 N 
ATOM     10  C   UNL     1      -8.407   4.819 129.749  0.00  0.00    +0.000 C 
ATOM     11  O   UNL     1      -9.219   4.907 128.834  0.00  0.00    +0.000 OA
ATOM     12  O   UNL     1      -7.526   5.833 129.931  0.00  0.00    +0.000 OA
ATOM     13  C   UNL     1      -7.819   6.506 131.137  0.00  0.00    +0.000 C 
ATOM     14  C   UNL     1      -7.932   5.533 132.268  0.00  0.00    +0.000 A 
ATOM     15  C   UNL     1      -7.891   6.012 133.579  0.00  0.00    +0.000 A 
ATOM     16  C   UNL     1      -8.022   5.127 134.638  0.00  0.00    +0.000 A 
ATOM     17  C   UNL     1      -8.204   3.768 134.391  0.00  0.00    +0.000 A 
ATOM     18  C   UNL     1      -8.247   3.283 133.081  0.00  0.00    +0.000 A 
ATOM     19  C   UNL     1      -8.104   4.160 132.005  0.00  0.00    +0.000 A 
ENDBRANCH   6   9
BRANCH   1  26
ATOM     20  C   UNL     1      -4.851   4.224 125.649  0.00  0.00    +0.000 C 
ATOM     21  C   UNL     1      -5.632   3.310 124.783  0.00  0.00    +0.000 A 
ATOM     22  N   UNL     1      -5.726   3.793 123.521  0.00  0.00    +0.000 NA
ATOM     23  C   UNL     1      -6.406   3.065 122.636  0.00  0.00    +0.000 A 
ATOM     24  N   UNL     1      -7.021   1.904 122.906  0.00  0.00    +0.000 NA
ATOM     25  C   UNL     1      -6.893   1.452 124.183  0.00  0.00    +0.000 A 
ATOM     26  C   UNL     1      -6.234   2.128 125.204  0.00  0.00    +0.000 A 
BRANCH  23  27
ATOM     27  C   UNL     1      -6.617   3.679 121.337  0.00  0.00    +0.000 A 
ATOM     28  C   UNL     1      -7.781   3.720 120.596  0.00  0.00    +0.000 A 
ATOM     29  C   UNL     1      -7.624   4.416 119.364  0.00  0.00    +0.000 A 
ATOM     30  C   UNL     1      -6.342   4.893 119.203  0.00  0.00    +0.000 A 
ATOM     31  S   UNL     1      -5.350   4.528 120.550  0.00  0.00    +0.000 S 
ENDBRANCH  23  27
ENDBRANCH   1  26
TORSDOF 3
ENDMDL
MODEL 4
REMARK VINA RESULT:      -8.4      1.811      2.264
REMARK  Name = CHEMBL31665
REMARK  4 active torsions:
REMARK  status: ('A' for Active; 'I' for Inactive)
REMARK    1  A    between atoms: C_1  and  C_2
REMARK    2  A    between atoms: C_4  and  C_5
REMARK    3  A    between atoms: C_12  and  C_13
REMARK    4  A    between atoms: C_18  and  N_19
REMARK                            x       y       z     vdW  Elec       q    Type
REMARK                         _______ _______ _______ _____ _____    ______ ____
ROOT
ATOM      1  C   UNL     1      -8.282   3.435 132.573  0.00  0.00    +0.000 C 
ATOM      2  O   UNL     1      -8.318   3.608 133.791  0.00  0.00    +0.000 OA
ATOM      3  N   UNL     1      -7.584   2.360 132.038  0.00  0.00    +0.000 N 
ATOM      4  C   UNL     1      -7.884   1.002 132.486  0.00  0.00    +0.000 C 
ATOM      5  C   UNL     1      -6.620   0.279 132.913  0.00  0.00    +0.000 C 
ATOM      6  C   UNL     1      -5.537   0.321 131.812  0.00  0.00    +0.000 C 
ATOM      7  C   UNL     1      -5.228   1.778 131.450  0.00  0.00    +0.000 C 
ATOM      8  C   UNL     1      -6.485   2.525 131.095  0.00  0.00    +0.000 C 
ENDROOT
BRANCH   6   9
ATOM      9  N   UNL     1      -5.835  -0.615 130.666  0.00  0.00    +0.000 N 
ATOM     10  C   UNL     1      -6.260  -0.223 129.396  0.00  0.00    +0.000 C 
ATOM     11  O   UNL     1      -5.765   0.621 128.657  0.00  0.00    +0.000 OA
ATOM     12  O   UNL     1      -7.392  -0.851 128.992  0.00  0.00    +0.000 OA
ATOM     13  C   UNL     1      -7.113  -2.207 128.720  0.00  0.00    +0.000 C 
ATOM     14  C   UNL     1      -6.396  -2.838 129.872  0.00  0.00    +0.000 A 
ATOM     15  C   UNL     1      -6.321  -4.230 129.942  0.00  0.00    +0.000 A 
ATOM     16  C   UNL     1      -5.637  -4.830 130.989  0.00  0.00    +0.000 A 
ATOM     17  C   UNL     1      -5.020  -4.042 131.959  0.00  0.00    +0.000 A 
ATOM     18  C   UNL     1      -5.091  -2.649 131.893  0.00  0.00    +0.000 A 
ATOM     19  C   UNL     1      -5.786  -2.031 130.852  0.00  0.00    +0.000 A 
ENDBRANCH   6   9
BRANCH   1  26
ATOM     20  C   UNL     1      -7.581   6.409 131.725  0.00  0.00    +0.000 C 
ATOM     21  C   UNL     1      -8.761   5.637 131.271  0.00  0.00    +0.000 A 
ATOM     22  N   UNL     1      -9.530   6.369 130.430  0.00  0.00    +0.000 NA
ATOM     23  C   UNL     1     -10.629   5.790 129.947  0.00  0.00    +0.000 A 
ATOM     24  N   UNL     1     -11.040   4.550 130.246  0.00  0.00    +0.000 NA
ATOM     25  C   UNL     1     -10.234   3.849 131.088  0.00  0.00    +0.000 A 
ATOM     26  C   UNL     1      -9.077   4.345 131.679  0.00  0.00    +0.000 A 
BRANCH  23  27
ATOM     27  C   UNL     1     -11.508   6.648 129.170  0.00  0.00    +0.000 A 
ATOM     28  C   UNL     1     -12.854   6.475 128.916  0.00  0.00    +0.000 A 
ATOM     29  C   UNL     1     -13.401   7.521 128.119  0.00  0.00    +0.000 A 
ATOM     30  C   UNL     1     -12.455   8.467 127.794  0.00  0.00    +0.000 A 
ATOM     31  S   UNL     1     -10.927   8.106 128.477  0.00  0.00    +0.000 S 
ENDBRANCH  23  27
ENDBRANCH   1  26
TORSDOF 3
ENDMDL
MODEL 5
REMARK VINA RESULT:      -8.4      7.027     10.839
REMARK  Name = CHEMBL31665
REMARK  4 active torsions:
REMARK  status: ('A' for Active; 'I' for Inactive)
REMARK    1  A    between atoms: C_1  and  C_2
REMARK    2  A    between atoms: C_4  and  C_5
REMARK    3  A    between atoms: C_12  and  C_13
REMARK    4  A    between atoms: C_18  and  N_19
REMARK                            x       y       z     vdW  Elec       q    Type
REMARK                         _______ _______ _______ _____ _____    ______ ____
ROOT
ATOM      1  C   UNL     1      -3.874   6.127 132.391  0.00  0.00    +0.000 C 
ATOM      2  O   UNL     1      -3.253   5.158 131.955  0.00  0.00    +0.000 OA
ATOM      3  N   UNL     1      -3.197   7.181 132.993  0.00  0.00    +0.000 N 
ATOM      4  C   UNL     1      -2.123   7.860 132.272  0.00  0.00    +0.000 C 
ATOM      5  C   UNL     1      -0.862   7.929 133.115  0.00  0.00    +0.000 C 
ATOM      6  C   UNL     1      -1.135   8.544 134.505  0.00  0.00    +0.000 C 
ATOM      7  C   UNL     1      -2.219   7.733 135.223  0.00  0.00    +0.000 C 
ATOM      8  C   UNL     1      -3.449   7.598 134.366  0.00  0.00    +0.000 C 
ENDROOT
BRANCH   6   9
ATOM      9  N   UNL     1      -1.329  10.040 134.452  0.00  0.00    +0.000 N 
ATOM     10  C   UNL     1      -2.403  10.733 135.013  0.00  0.00    +0.000 C 
ATOM     11  O   UNL     1      -2.841  10.656 136.155  0.00  0.00    +0.000 OA
ATOM     12  O   UNL     1      -3.035  11.547 134.131  0.00  0.00    +0.000 OA
ATOM     13  C   UNL     1      -2.206  12.645 133.818  0.00  0.00    +0.000 C 
ATOM     14  C   UNL     1      -0.845  12.176 133.409  0.00  0.00    +0.000 A 
ATOM     15  C   UNL     1       0.009  13.066 132.755  0.00  0.00    +0.000 A 
ATOM     16  C   UNL     1       1.283  12.656 132.392  0.00  0.00    +0.000 A 
ATOM     17  C   UNL     1       1.709  11.363 132.691  0.00  0.00    +0.000 A 
ATOM     18  C   UNL     1       0.859  10.469 133.346  0.00  0.00    +0.000 A 
ATOM     19  C   UNL     1      -0.430  10.864 133.706  0.00  0.00    +0.000 A 
ENDBRANCH   6   9
BRANCH   1  26
ATOM     20  C   UNL     1      -6.146   4.883 134.219  0.00  0.00    +0.000 C 
ATOM     21  C   UNL     1      -6.367   5.690 132.998  0.00  0.00    +0.000 A 
ATOM     22  N   UNL     1      -7.688   5.839 132.741  0.00  0.00    +0.000 NA
ATOM     23  C   UNL     1      -8.027   6.547 131.665  0.00  0.00    +0.000 A 
ATOM     24  N   UNL     1      -7.160   7.104 130.807  0.00  0.00    +0.000 NA
ATOM     25  C   UNL     1      -5.844   6.937 131.107  0.00  0.00    +0.000 A 
ATOM     26  C   UNL     1      -5.361   6.200 132.183  0.00  0.00    +0.000 A 
BRANCH  23  27
ATOM     27  C   UNL     1      -9.442   6.561 131.334  0.00  0.00    +0.000 A 
ATOM     28  C   UNL     1     -10.501   6.156 132.121  0.00  0.00    +0.000 A 
ATOM     29  C   UNL     1     -11.759   6.317 131.474  0.00  0.00    +0.000 A 
ATOM     30  C   UNL     1     -11.623   6.848 130.211  0.00  0.00    +0.000 A 
ATOM     31  S   UNL     1      -9.987   7.177 129.828  0.00  0.00    +0.000 S 
ENDBRANCH  23  27
ENDBRANCH   1  26
TORSDOF 3
ENDMDL
MODEL 6
REMARK VINA RESULT:      -8.3      5.052      6.994
REMARK  Name = CHEMBL31665
REMARK  4 active torsions:
REMARK  status: ('A' for Active; 'I' for Inactive)
REMARK    1  A    between atoms: C_1  and  C_2
REMARK    2  A    between atoms: C_4  and  C_5
REMARK    3  A    between atoms: C_12  and  C_13
REMARK    4  A    between atoms: C_18  and  N_19
REMARK                            x       y       z     vdW  Elec       q    Type
REMARK                         _______ _______ _______ _____ _____    ______ ____
ROOT
ATOM      1  C   UNL     1      -5.578   4.456 126.817  0.00  0.00    +0.000 C 
ATOM      2  O   UNL     1      -5.840   5.326 125.988  0.00  0.00    +0.000 OA
ATOM      3  N   UNL     1      -6.054   3.162 126.650  0.00  0.00    +0.000 N 
ATOM      4  C   UNL     1      -5.770   2.438 125.413  0.00  0.00    +0.000 C 
ATOM      5  C   UNL     1      -7.044   1.878 124.807  0.00  0.00    +0.000 C 
ATOM      6  C   UNL     1      -7.841   1.034 125.826  0.00  0.00    +0.000 C 
ATOM      7  C   UNL     1      -8.160   1.885 127.061  0.00  0.00    +0.000 C 
ATOM      8  C   UNL     1      -6.911   2.504 127.628  0.00  0.00    +0.000 C 
ENDROOT
BRANCH   6   9
ATOM      9  N   UNL     1      -7.217  -0.318 126.077  0.00  0.00    +0.000 N 
ATOM     10  C   UNL     1      -7.065  -0.915 127.329  0.00  0.00    +0.000 C 
ATOM     11  O   UNL     1      -7.912  -1.078 128.200  0.00  0.00    +0.000 OA
ATOM     12  O   UNL     1      -5.792  -1.308 127.584  0.00  0.00    +0.000 OA
ATOM     13  C   UNL     1      -5.464  -2.415 126.772  0.00  0.00    +0.000 C 
ATOM     14  C   UNL     1      -5.780  -2.127 125.338  0.00  0.00    +0.000 A 
ATOM     15  C   UNL     1      -5.236  -2.948 124.348  0.00  0.00    +0.000 A 
ATOM     16  C   UNL     1      -5.541  -2.711 123.016  0.00  0.00    +0.000 A 
ATOM     17  C   UNL     1      -6.394  -1.665 122.672  0.00  0.00    +0.000 A 
ATOM     18  C   UNL     1      -6.941  -0.841 123.659  0.00  0.00    +0.000 A 
ATOM     19  C   UNL     1      -6.634  -1.059 125.003  0.00  0.00    +0.000 A 
ENDBRANCH   6   9
BRANCH   1  26
ATOM     20  C   UNL     1      -2.465   3.896 127.030  0.00  0.00    +0.000 C 
ATOM     21  C   UNL     1      -3.290   4.579 128.053  0.00  0.00    +0.000 A 
ATOM     22  N   UNL     1      -2.543   4.945 129.121  0.00  0.00    +0.000 NA
ATOM     23  C   UNL     1      -3.166   5.571 130.118  0.00  0.00    +0.000 A 
ATOM     24  N   UNL     1      -4.478   5.846 130.153  0.00  0.00    +0.000 NA
ATOM     25  C   UNL     1      -5.189   5.468 129.056  0.00  0.00    +0.000 A 
ATOM     26  C   UNL     1      -4.664   4.786 127.964  0.00  0.00    +0.000 A 
BRANCH  23  27
ATOM     27  C   UNL     1      -2.371   5.815 131.310  0.00  0.00    +0.000 A 
ATOM     28  C   UNL     1      -1.181   6.508 131.408  0.00  0.00    +0.000 A 
ATOM     29  C   UNL     1      -0.681   6.554 132.740  0.00  0.00    +0.000 A 
ATOM     30  C   UNL     1      -1.510   5.900 133.623  0.00  0.00    +0.000 A 
ATOM     31  S   UNL     1      -2.898   5.264 132.847  0.00  0.00    +0.000 S 
ENDBRANCH  23  27
ENDBRANCH   1  26
TORSDOF 3
ENDMDL
MODEL 7
REMARK VINA RESULT:      -8.2      7.951     11.570
REMARK  Name = CHEMBL31665
REMARK  4 active torsions:
REMARK  status: ('A' for Active; 'I' for Inactive)
REMARK    1  A    between atoms: C_1  and  C_2
REMARK    2  A    between atoms: C_4  and  C_5
REMARK    3  A    between atoms: C_12  and  C_13
REMARK    4  A    between atoms: C_18  and  N_19
REMARK                            x       y       z     vdW  Elec       q    Type
REMARK                         _______ _______ _______ _____ _____    ______ ____
ROOT
ATOM      1  C   UNL     1      -3.077   6.382 132.833  0.00  0.00    +0.000 C 
ATOM      2  O   UNL     1      -2.492   5.301 132.782  0.00  0.00    +0.000 OA
ATOM      3  N   UNL     1      -2.398   7.529 133.225  0.00  0.00    +0.000 N 
ATOM      4  C   UNL     1      -1.176   7.924 132.528  0.00  0.00    +0.000 C 
ATOM      5  C   UNL     1      -0.045   8.168 133.509  0.00  0.00    +0.000 C 
ATOM      6  C   UNL     1      -0.452   9.163 134.618  0.00  0.00    +0.000 C 
ATOM      7  C   UNL     1      -1.696   8.642 135.347  0.00  0.00    +0.000 C 
ATOM      8  C   UNL     1      -2.801   8.330 134.374  0.00  0.00    +0.000 C 
ENDROOT
BRANCH   6   9
ATOM      9  N   UNL     1      -0.501  10.591 134.128  0.00  0.00    +0.000 N 
ATOM     10  C   UNL     1      -1.608  11.204 133.541  0.00  0.00    +0.000 C 
ATOM     11  O   UNL     1      -2.762  11.243 133.955  0.00  0.00    +0.000 OA
ATOM     12  O   UNL     1      -1.332  11.774 132.342  0.00  0.00    +0.000 OA
ATOM     13  C   UNL     1      -0.525  12.918 132.534  0.00  0.00    +0.000 C 
ATOM     14  C   UNL     1       0.660  12.587 133.385  0.00  0.00    +0.000 A 
ATOM     15  C   UNL     1       1.735  13.477 133.422  0.00  0.00    +0.000 A 
ATOM     16  C   UNL     1       2.830  13.200 134.226  0.00  0.00    +0.000 A 
ATOM     17  C   UNL     1       2.848  12.042 135.001  0.00  0.00    +0.000 A 
ATOM     18  C   UNL     1       1.775  11.149 134.969  0.00  0.00    +0.000 A 
ATOM     19  C   UNL     1       0.672  11.408 134.155  0.00  0.00    +0.000 A 
ENDBRANCH   6   9
BRANCH   1  26
ATOM     20  C   UNL     1      -4.195   7.771 130.210  0.00  0.00    +0.000 C 
ATOM     21  C   UNL     1      -5.005   7.039 131.211  0.00  0.00    +0.000 A 
ATOM     22  N   UNL     1      -6.315   7.033 130.871  0.00  0.00    +0.000 NA
ATOM     23  C   UNL     1      -7.158   6.407 131.691  0.00  0.00    +0.000 A 
ATOM     24  N   UNL     1      -6.810   5.801 132.836  0.00  0.00    +0.000 NA
ATOM     25  C   UNL     1      -5.482   5.825 133.135  0.00  0.00    +0.000 A 
ATOM     26  C   UNL     1      -4.508   6.465 132.378  0.00  0.00    +0.000 A 
BRANCH  23  27
ATOM     27  C   UNL     1      -8.570   6.546 131.378  0.00  0.00    +0.000 A 
ATOM     28  C   UNL     1      -9.139   7.178 130.290  0.00  0.00    +0.000 A 
ATOM     29  C   UNL     1     -10.561   7.116 130.302  0.00  0.00    +0.000 A 
ATOM     30  C   UNL     1     -11.037   6.432 131.398  0.00  0.00    +0.000 A 
ATOM     31  S   UNL     1      -9.768   5.842 132.385  0.00  0.00    +0.000 S 
ENDBRANCH  23  27
ENDBRANCH   1  26
TORSDOF 3
ENDMDL
MODEL 8
REMARK VINA RESULT:      -8.1      3.573      8.957
REMARK  Name = CHEMBL31665
REMARK  4 active torsions:
REMARK  status: ('A' for Active; 'I' for Inactive)
REMARK    1  A    between atoms: C_1  and  C_2
REMARK    2  A    between atoms: C_4  and  C_5
REMARK    3  A    between atoms: C_12  and  C_13
REMARK    4  A    between atoms: C_18  and  N_19
REMARK                            x       y       z     vdW  Elec       q    Type
REMARK                         _______ _______ _______ _____ _____    ______ ____
ROOT
ATOM      1  C   UNL     1      -6.462   3.610 132.348  0.00  0.00    +0.000 C 
ATOM      2  O   UNL     1      -5.675   4.162 133.116  0.00  0.00    +0.000 OA
ATOM      3  N   UNL     1      -7.466   4.343 131.727  0.00  0.00    +0.000 N 
ATOM      4  C   UNL     1      -7.123   5.527 130.944  0.00  0.00    +0.000 C 
ATOM      5  C   UNL     1      -7.947   6.725 131.381  0.00  0.00    +0.000 C 
ATOM      6  C   UNL     1      -9.460   6.415 131.370  0.00  0.00    +0.000 C 
ATOM      7  C   UNL     1      -9.745   5.207 132.269  0.00  0.00    +0.000 C 
ATOM      8  C   UNL     1      -8.882   4.035 131.889  0.00  0.00    +0.000 C 
ENDROOT
BRANCH   6   9
ATOM      9  N   UNL     1     -10.035   6.373 129.974  0.00  0.00    +0.000 N 
ATOM     10  C   UNL     1      -9.600   5.531 128.949  0.00  0.00    +0.000 C 
ATOM     11  O   UNL     1      -9.436   4.317 128.983  0.00  0.00    +0.000 OA
ATOM     12  O   UNL     1      -9.290   6.194 127.807  0.00  0.00    +0.000 OA
ATOM     13  C   UNL     1     -10.470   6.681 127.204  0.00  0.00    +0.000 C 
ATOM     14  C   UNL     1     -11.290   7.444 128.196  0.00  0.00    +0.000 A 
ATOM     15  C   UNL     1     -12.313   8.273 127.732  0.00  0.00    +0.000 A 
ATOM     16  C   UNL     1     -13.100   8.967 128.639  0.00  0.00    +0.000 A 
ATOM     17  C   UNL     1     -12.873   8.826 130.007  0.00  0.00    +0.000 A 
ATOM     18  C   UNL     1     -11.852   7.998 130.476  0.00  0.00    +0.000 A 
ATOM     19  C   UNL     1     -11.043   7.303 129.575  0.00  0.00    +0.000 A 
ENDBRANCH   6   9
BRANCH   1  26
ATOM     20  C   UNL     1      -4.596   2.368 130.105  0.00  0.00    +0.000 C 
ATOM     21  C   UNL     1      -5.425   1.599 131.062  0.00  0.00    +0.000 A 
ATOM     22  N   UNL     1      -5.293   0.266 130.862  0.00  0.00    +0.000 NA
ATOM     23  C   UNL     1      -5.989  -0.544 131.659  0.00  0.00    +0.000 A 
ATOM     24  N   UNL     1      -6.824  -0.139 132.627  0.00  0.00    +0.000 NA
ATOM     25  C   UNL     1      -6.920   1.207 132.798  0.00  0.00    +0.000 A 
ATOM     26  C   UNL     1      -6.268   2.156 132.018  0.00  0.00    +0.000 A 
BRANCH  23  27
ATOM     27  C   UNL     1      -5.944  -1.957 131.322  0.00  0.00    +0.000 A 
ATOM     28  C   UNL     1      -6.677  -2.624 130.362  0.00  0.00    +0.000 A 
ATOM     29  C   UNL     1      -6.369  -4.013 130.303  0.00  0.00    +0.000 A 
ATOM     30  C   UNL     1      -5.402  -4.364 131.218  0.00  0.00    +0.000 A 
ATOM     31  S   UNL     1      -4.851  -3.015 132.117  0.00  0.00    +0.000 S 
ENDBRANCH  23  27
ENDBRANCH   1  26
TORSDOF 3
ENDMDL
MODEL 9
REMARK VINA RESULT:      -8.1      2.588      3.937
REMARK  Name = CHEMBL31665
REMARK  4 active torsions:
REMARK  status: ('A' for Active; 'I' for Inactive)
REMARK    1  A    between atoms: C_1  and  C_2
REMARK    2  A    between atoms: C_4  and  C_5
REMARK    3  A    between atoms: C_12  and  C_13
REMARK    4  A    between atoms: C_18  and  N_19
REMARK                            x       y       z     vdW  Elec       q    Type
REMARK                         _______ _______ _______ _____ _____    ______ ____
ROOT
ATOM      1  C   UNL     1      -6.670   3.031 129.449  0.00  0.00    +0.000 C 
ATOM      2  O   UNL     1      -5.652   3.421 128.878  0.00  0.00    +0.000 OA
ATOM      3  N   UNL     1      -6.756   1.724 129.912  0.00  0.00    +0.000 N 
ATOM      4  C   UNL     1      -5.733   1.203 130.815  0.00  0.00    +0.000 C 
ATOM      5  C   UNL     1      -5.173  -0.111 130.303  0.00  0.00    +0.000 C 
ATOM      6  C   UNL     1      -6.292  -1.135 130.010  0.00  0.00    +0.000 C 
ATOM      7  C   UNL     1      -7.283  -0.541 129.003  0.00  0.00    +0.000 C 
ATOM      8  C   UNL     1      -7.790   0.796 129.468  0.00  0.00    +0.000 C 
ENDROOT
BRANCH   6   9
ATOM      9  N   UNL     1      -6.878  -1.732 131.268  0.00  0.00    +0.000 N 
ATOM     10  C   UNL     1      -7.858  -1.134 132.062  0.00  0.00    +0.000 C 
ATOM     11  O   UNL     1      -8.934  -0.663 131.712  0.00  0.00    +0.000 OA
ATOM     12  O   UNL     1      -7.508  -1.048 133.369  0.00  0.00    +0.000 OA
ATOM     13  C   UNL     1      -7.512  -2.336 133.949  0.00  0.00    +0.000 C 
ATOM     14  C   UNL     1      -6.705  -3.286 133.122  0.00  0.00    +0.000 A 
ATOM     15  C   UNL     1      -6.315  -4.505 133.680  0.00  0.00    +0.000 A 
ATOM     16  C   UNL     1      -5.589  -5.409 132.919  0.00  0.00    +0.000 A 
ATOM     17  C   UNL     1      -5.262  -5.102 131.600  0.00  0.00    +0.000 A 
ATOM     18  C   UNL     1      -5.651  -3.885 131.036  0.00  0.00    +0.000 A 
ATOM     19  C   UNL     1      -6.371  -2.960 131.794  0.00  0.00    +0.000 A 
ENDBRANCH   6   9
BRANCH   1  26
ATOM     20  C   UNL     1      -7.763   3.975 132.272  0.00  0.00    +0.000 C 
ATOM     21  C   UNL     1      -8.242   4.457 130.956  0.00  0.00    +0.000 A 
ATOM     22  N   UNL     1      -9.230   5.371 131.099  0.00  0.00    +0.000 NA
ATOM     23  C   UNL     1      -9.753   5.887 129.987  0.00  0.00    +0.000 A 
ATOM     24  N   UNL     1      -9.390   5.554 128.740  0.00  0.00    +0.000 NA
ATOM     25  C   UNL     1      -8.388   4.638 128.643  0.00  0.00    +0.000 A 
ATOM     26  C   UNL     1      -7.779   4.008 129.723  0.00  0.00    +0.000 A 
BRANCH  23  27
ATOM     27  C   UNL     1     -10.909   6.749 130.170  0.00  0.00    +0.000 A 
ATOM     28  C   UNL     1     -11.802   6.758 131.222  0.00  0.00    +0.000 A 
ATOM     29  C   UNL     1     -12.816   7.746 131.073  0.00  0.00    +0.000 A 
ATOM     30  C   UNL     1     -12.663   8.468 129.911  0.00  0.00    +0.000 A 
ATOM     31  S   UNL     1     -11.283   7.973 129.027  0.00  0.00    +0.000 S 
ENDBRANCH  23  27
ENDBRANCH   1  26
TORSDOF 3
ENDMDL
