MODEL 1
REMARK VINA RESULT:      -9.8      0.000      0.000
REMARK  Name = CHEMBL1790723
REMARK  31 active torsions:
REMARK  status: ('A' for Active; 'I' for Inactive)
REMARK    1  A    between atoms: C_1  and  C_2
REMARK    2  A    between atoms: C_2  and  C_3
REMARK    3  A    between atoms: C_3  and  C_4
REMARK    4  A    between atoms: C_3  and  C_5
REMARK    5  A    between atoms: C_9  and  C_10
REMARK    6  A    between atoms: C_13  and  O_14
REMARK    7  A    between atoms: C_20  and  O_21
REMARK    8  A    between atoms: C_26  and  C_27
REMARK    9  A    between atoms: C_33  and  C_34
REMARK   10  A    between atoms: N_36  and  C_37
REMARK   11  A    between atoms: C_37  and  C_38
REMARK   12  A    between atoms: C_37  and  C_73
REMARK   13  A    between atoms: C_38  and  C_39
REMARK   14  A    between atoms: C_39  and  C_40
REMARK   15  A    between atoms: C_40  and  N_41
REMARK   16  A    between atoms: C_42  and  C_44
REMARK   17  A    between atoms: C_47  and  C_48
REMARK   18  A    between atoms: C_52  and  N_53
REMARK   19  A    between atoms: N_53  and  C_54
REMARK   20  A    between atoms: N_53  and  C_55
REMARK   21  A    between atoms: N_62  and  C_63
REMARK   22  A    between atoms: N_62  and  C_64
REMARK   23  A    between atoms: C_68  and  C_69
REMARK   24  A    between atoms: C_69  and  O_71
REMARK   25  A    between atoms: N_75  and  C_76
REMARK   26  A    between atoms: C_76  and  N_77
REMARK   27  A    between atoms: C_81  and  C_82
REMARK   28  A    between atoms: C_82  and  C_83
REMARK   29  A    between atoms: C_89  and  C_90
REMARK   30  A    between atoms: C_90  and  C_91
REMARK   31  A    between atoms: C_91  and  C_92
REMARK                            x       y       z     vdW  Elec       q    Type
REMARK                         _______ _______ _______ _____ _____    ______ ____
ROOT
ATOM      1  C   UNL     1      -6.064  -4.485 138.298  0.00  0.00    +0.000 C 
ATOM      2  N   UNL     1      -3.839  -4.474 138.241  0.00  0.00    +0.000 N 
ATOM      3  C   UNL     1      -1.731  -4.388 138.486  0.00  0.00    +0.000 C 
ATOM      4  O   UNL     1      -0.439  -5.078 137.939  0.00  0.00    +0.000 OA
ATOM      5  C   UNL     1       0.037  -3.131 138.607  0.00  0.00    +0.000 C 
ATOM      6  N   UNL     1       0.731  -1.977 137.460  0.00  0.00    +0.000 N 
ATOM      7  C   UNL     1       0.229  -2.024 136.194  0.00  0.00    +0.000 C 
ATOM      8  O   UNL     1       0.425  -1.179 135.332  0.00  0.00    +0.000 OA
ATOM      9  C   UNL     1      -0.762  -3.095 135.850  0.00  0.00    +0.000 C 
ATOM     10  C   UNL     1      -2.181  -2.750 135.772  0.00  0.00    +0.000 C 
ATOM     11  S   UNL     1      -1.818  -2.013 134.304  0.00  0.00    +0.000 S 
ATOM     12  S   UNL     1      -3.722  -2.117 134.077  0.00  0.00    +0.000 S 
ATOM     13  C   UNL     1      -4.644  -0.461 132.188  0.00  0.00    +0.000 C 
ATOM     14  C   UNL     1      -5.904   0.282 132.024  0.00  0.00    +0.000 C 
ATOM     15  N   UNL     1      -6.967  -0.561 131.989  0.00  0.00    +0.000 N 
ATOM     16  C   UNL     1      -7.191  -1.258 133.081  0.00  0.00    +0.000 C 
ATOM     17  O   UNL     1      -8.344  -1.748 133.139  0.00  0.00    +0.000 OA
ATOM     18  C   UNL     1      -5.863  -1.725 134.262  0.00  0.00    +0.000 C 
ATOM     19  N   UNL     1      -6.531  -2.136 135.935  0.00  0.00    +0.000 N 
ATOM     20  C   UNL     1      -7.707  -2.962 136.039  0.00  0.00    +0.000 C 
ATOM     21  O   UNL     1      -8.640  -2.732 136.796  0.00  0.00    +0.000 OA
ATOM     22  C   UNL     1      -7.811  -4.112 135.164  0.00  0.00    +0.000 C 
ATOM     23  N   UNL     1      -7.511  -5.216 136.071  0.00  0.00    +0.000 N 
ATOM     24  C   UNL     1      -7.296  -5.445 137.413  0.00  0.00    +0.000 C 
ATOM     25  O   UNL     1      -8.005  -6.308 137.958  0.00  0.00    +0.000 OA
ATOM     26  H   UNL     1      -2.612  -5.065 138.585  0.00  0.00    +0.000 HD
ATOM     27  H   UNL     1       1.403  -1.125 137.583  0.00  0.00    +0.000 HD
ATOM     28  H   UNL     1      -7.107  -1.126 131.153  0.00  0.00    +0.000 HD
ATOM     29  H   UNL     1      -6.657  -1.268 136.592  0.00  0.00    +0.000 HD
ATOM     30  H   UNL     1      -6.614  -5.546 135.838  0.00  0.00    +0.000 HD
ENDROOT
BRANCH  14  31
ATOM     31  C   UNL     1      -6.453   1.350 133.058  0.00  0.00    +0.000 C 
ATOM     32  O   UNL     1      -6.733   0.963 134.193  0.00  0.00    +0.000 OA
ATOM     33  N   UNL     1      -7.058   2.571 132.507  0.00  0.00    +0.000 N 
ATOM     34  C   UNL     1      -8.128   2.820 131.685  0.00  0.00    +0.000 C 
ATOM     35  C   UNL     1      -7.714   4.001 130.871  0.00  0.00    +0.000 C 
ATOM     36  C   UNL     1      -7.704   4.873 131.954  0.00  0.00    +0.000 C 
ATOM     37  C   UNL     1      -7.156   3.889 132.973  0.00  0.00    +0.000 C 
BRANCH  37  38
ATOM     38  C   UNL     1      -5.793   4.268 133.179  0.00  0.00    +0.000 C 
ATOM     39  O   UNL     1      -5.228   3.404 133.842  0.00  0.00    +0.000 OA
ATOM     40  N   UNL     1      -5.272   5.453 132.681  0.00  0.00    +0.000 N 
ATOM     41  H   UNL     1      -5.859   6.187 132.249  0.00  0.00    +0.000 HD
BRANCH  40  42
ATOM     42  C   UNL     1      -3.831   5.765 132.768  0.00  0.00    +0.000 C 
BRANCH  42  43
ATOM     43  C   UNL     1      -3.436   6.355 134.166  0.00  0.00    +0.000 C 
ATOM     44  O   UNL     1      -3.256   7.570 134.272  0.00  0.00    +0.000 OA
ATOM     45  N   UNL     1      -3.304   5.489 135.260  0.00  0.00    +0.000 N 
ATOM     46  H   UNL     1      -3.440   4.489 135.175  0.00  0.00    +0.000 HD
BRANCH  45  47
ATOM     47  C   UNL     1      -2.928   6.000 136.565  0.00  0.00    +0.000 C 
BRANCH  47  48
ATOM     48  N   UNL     1      -1.541   6.429 136.553  0.00  0.00    +0.000 NA
ATOM     49  H   UNL     1      -1.165   6.445 137.498  0.00  0.00    +0.000 HD
ATOM     50  H   UNL     1      -1.497   7.408 136.230  0.00  0.00    +0.000 HD
ENDBRANCH  47  48
ENDBRANCH  45  47
ENDBRANCH  42  43
BRANCH  42  51
ATOM     51  C   UNL     1      -3.462   6.759 131.675  0.00  0.00    +0.000 C 
BRANCH  51  52
ATOM     52  C   UNL     1      -2.137   6.434 131.023  0.00  0.00    +0.000 C 
BRANCH  52  53
ATOM     53  C   UNL     1      -2.201   6.173 129.563  0.00  0.00    +0.000 C 
BRANCH  53  54
ATOM     54  N   UNL     1      -3.195   5.155 129.218  0.00  0.00    +0.000 N 
ATOM     55  C   UNL     1      -4.112   5.408 128.209  0.00  0.00    +0.000 C 
ATOM     56  O   UNL     1      -4.150   6.461 127.585  0.00  0.00    +0.000 OA
ATOM     57  H   UNL     1      -3.167   4.283 129.739  0.00  0.00    +0.000 HD
BRANCH  55  58
ATOM     58  C   UNL     1      -5.110   4.353 127.856  0.00  0.00    +0.000 A 
ATOM     59  C   UNL     1      -4.765   3.013 127.717  0.00  0.00    +0.000 A 
ATOM     60  C   UNL     1      -5.677   2.030 127.138  0.00  0.00    +0.000 A 
ATOM     61  C   UNL     1      -7.026   2.172 126.835  0.00  0.00    +0.000 A 
ATOM     62  C   UNL     1      -7.300   3.729 126.952  0.00  0.00    +0.000 A 
ATOM     63  C   UNL     1      -6.394   4.687 127.510  0.00  0.00    +0.000 A 
BRANCH  61  64
ATOM     64  C   UNL     1      -7.987   0.625 126.428  0.00  0.00    +0.000 C 
ATOM     65  C   UNL     1      -7.133  -0.151 127.247  0.00  0.00    +0.000 C 
ATOM     66  C   UNL     1      -5.727  -0.286 127.737  0.00  0.00    +0.000 C 
ATOM     67  C   UNL     1      -5.257  -1.074 128.730  0.00  0.00    +0.000 C 
ATOM     68  C   UNL     1      -5.842  -2.345 128.792  0.00  0.00    +0.000 C 
ATOM     69  C   UNL     1      -6.881  -2.479 127.975  0.00  0.00    +0.000 C 
ATOM     70  C   UNL     1      -7.521  -1.476 127.155  0.00  0.00    +0.000 C 
ATOM     71  O   UNL     1      -7.209  -1.771 125.776  0.00  0.00    +0.000 OA
ATOM     72  C   UNL     1      -7.412  -0.835 124.753  0.00  0.00    +0.000 C 
ATOM     73  C   UNL     1      -6.775   0.326 124.489  0.00  0.00    +0.000 C 
ATOM     74  C   UNL     1      -7.442   1.494 123.810  0.00  0.00    +0.000 C 
ATOM     75  N   UNL     1      -6.743   2.536 123.603  0.00  0.00    +0.000 N 
ATOM     76  C   UNL     1      -7.186   3.541 122.645  0.00  0.00    +0.000 C 
ATOM     77  C   UNL     1      -5.435   2.684 124.261  0.00  0.00    +0.000 C 
ATOM     78  C   UNL     1      -8.777   1.375 123.262  0.00  0.00    +0.000 C 
ATOM     79  C   UNL     1      -9.356   0.235 123.502  0.00  0.00    +0.000 C 
ATOM     80  C   UNL     1      -8.800  -0.414 124.868  0.00  0.00    +0.000 C 
BRANCH  68  81
ATOM     81  N   UNL     1      -5.274  -3.366 129.492  0.00  0.00    +0.000 N 
ATOM     82  C   UNL     1      -6.018  -4.239 130.385  0.00  0.00    +0.000 C 
ATOM     83  C   UNL     1      -3.852  -3.611 129.350  0.00  0.00    +0.000 C 
ENDBRANCH  68  81
ENDBRANCH  61  64
BRANCH  62  84
ATOM     84  C   UNL     1      -8.404   4.586 126.255  0.00  0.00    +0.000 C 
ATOM     85  O   UNL     1      -9.058   4.087 125.364  0.00  0.00    +0.000 OA
BRANCH  84  86
ATOM     86  O   UNL     1      -8.889   5.757 126.711  0.00  0.00    +0.000 OA
ATOM     87  H   UNL     1      -8.747   6.456 126.074  0.00  0.00    +0.000 HD
ENDBRANCH  84  86
ENDBRANCH  62  84
ENDBRANCH  55  58
ENDBRANCH  53  54
ENDBRANCH  52  53
ENDBRANCH  51  52
ENDBRANCH  42  51
ENDBRANCH  40  42
ENDBRANCH  37  38
ENDBRANCH  14  31
BRANCH   5  88
ATOM     88  C   UNL     1      -0.837  -2.397 139.431  0.00  0.00    +0.000 A 
ATOM     89  C   UNL     1      -0.661  -1.093 138.988  0.00  0.00    +0.000 A 
ATOM     90  C   UNL     1      -0.399  -0.189 139.986  0.00  0.00    +0.000 A 
ATOM     91  C   UNL     1      -0.373  -0.616 141.319  0.00  0.00    +0.000 A 
ATOM     92  C   UNL     1      -0.448  -1.956 141.665  0.00  0.00    +0.000 A 
ATOM     93  C   UNL     1      -0.766  -2.873 140.720  0.00  0.00    +0.000 A 
BRANCH  91  94
ATOM     94  O   UNL     1      -0.214   0.221 142.373  0.00  0.00    +0.000 OA
ATOM     95  H   UNL     1       0.718   0.427 142.528  0.00  0.00    +0.000 HD
ENDBRANCH  91  94
ENDBRANCH   5  88
BRANCH   1  96
ATOM     96  C   UNL     1      -8.419  -4.169 138.502  0.00  0.00    +0.000 C 
ATOM     97  C   UNL     1      -9.918  -3.489 139.699  0.00  0.00    +0.000 C 
BRANCH  96  99
ATOM     98  C   UNL     1     -10.743  -5.691 137.193  0.00  0.00    +0.000 C 
ATOM     99  C   UNL     1     -10.477  -4.341 137.868  0.00  0.00    +0.000 C 
ENDBRANCH  96  99
ENDBRANCH   1  96
BRANCH   9 100
ATOM    100  O   UNL     1      -1.219  -3.804 136.807  0.00  0.00    +0.000 OA
ATOM    101  H   UNL     1      -0.583  -4.516 136.815  0.00  0.00    +0.000 HD
ENDBRANCH   9 100
BRANCH  18 102
ATOM    102  C   UNL     1      -4.723  -0.203 134.289  0.00  0.00    +0.000 C 
BRANCH 102 103
ATOM    103  C   UNL     1      -4.306   0.398 135.794  0.00  0.00    +0.000 C 
ATOM    104  N   UNL     1      -3.329   2.035 135.397  0.00  0.00    +0.000 N 
ATOM    105  O   UNL     1      -4.738   0.071 136.846  0.00  0.00    +0.000 OA
ATOM    106  H   UNL     1      -2.965   2.014 134.312  0.00  0.00    +0.000 HD
ATOM    107  H   UNL     1      -3.026   2.736 135.927  0.00  0.00    +0.000 HD
ENDBRANCH 102 103
ENDBRANCH  18 102
BRANCH  22 108
ATOM    108  C   UNL     1      -6.756  -4.176 134.077  0.00  0.00    +0.000 C 
BRANCH 108 109
ATOM    109  C   UNL     1      -6.103  -5.488 133.897  0.00  0.00    +0.000 C 
BRANCH 109 110
ATOM    110  C   UNL     1      -4.750  -5.934 134.535  0.00  0.00    +0.000 C 
ATOM    111  N   UNL     1      -3.780  -5.758 133.644  0.00  0.00    +0.000 N 
ATOM    112  O   UNL     1      -4.476  -6.479 135.605  0.00  0.00    +0.000 OA
ATOM    113  H   UNL     1      -3.999  -5.600 132.674  0.00  0.00    +0.000 HD
ATOM    114  H   UNL     1      -2.901  -6.171 133.914  0.00  0.00    +0.000 HD
ENDBRANCH 109 110
ENDBRANCH 108 109
ENDBRANCH  22 108
TORSDOF 25
ENDMDL
MODEL 2
REMARK VINA RESULT:      -9.2      3.707      8.581
REMARK  Name = CHEMBL1790723
REMARK  31 active torsions:
REMARK  status: ('A' for Active; 'I' for Inactive)
REMARK    1  A    between atoms: C_1  and  C_2
REMARK    2  A    between atoms: C_2  and  C_3
REMARK    3  A    between atoms: C_3  and  C_4
REMARK    4  A    between atoms: C_3  and  C_5
REMARK    5  A    between atoms: C_9  and  C_10
REMARK    6  A    between atoms: C_13  and  O_14
REMARK    7  A    between atoms: C_20  and  O_21
REMARK    8  A    between atoms: C_26  and  C_27
REMARK    9  A    between atoms: C_33  and  C_34
REMARK   10  A    between atoms: N_36  and  C_37
REMARK   11  A    between atoms: C_37  and  C_38
REMARK   12  A    between atoms: C_37  and  C_73
REMARK   13  A    between atoms: C_38  and  C_39
REMARK   14  A    between atoms: C_39  and  C_40
REMARK   15  A    between atoms: C_40  and  N_41
REMARK   16  A    between atoms: C_42  and  C_44
REMARK   17  A    between atoms: C_47  and  C_48
REMARK   18  A    between atoms: C_52  and  N_53
REMARK   19  A    between atoms: N_53  and  C_54
REMARK   20  A    between atoms: N_53  and  C_55
REMARK   21  A    between atoms: N_62  and  C_63
REMARK   22  A    between atoms: N_62  and  C_64
REMARK   23  A    between atoms: C_68  and  C_69
REMARK   24  A    between atoms: C_69  and  O_71
REMARK   25  A    between atoms: N_75  and  C_76
REMARK   26  A    between atoms: C_76  and  N_77
REMARK   27  A    between atoms: C_81  and  C_82
REMARK   28  A    between atoms: C_82  and  C_83
REMARK   29  A    between atoms: C_89  and  C_90
REMARK   30  A    between atoms: C_90  and  C_91
REMARK   31  A    between atoms: C_91  and  C_92
REMARK                            x       y       z     vdW  Elec       q    Type
REMARK                         _______ _______ _______ _____ _____    ______ ____
ROOT
ATOM      1  C   UNL     1       1.882   2.812 138.681  0.00  0.00    +0.000 C 
ATOM      2  N   UNL     1       0.714   0.920 138.795  0.00  0.00    +0.000 N 
ATOM      3  C   UNL     1      -0.296  -0.940 138.618  0.00  0.00    +0.000 C 
ATOM      4  O   UNL     1      -0.742  -2.143 139.513  0.00  0.00    +0.000 OA
ATOM      5  C   UNL     1      -2.016  -2.009 137.832  0.00  0.00    +0.000 C 
ATOM      6  N   UNL     1      -3.751  -1.780 138.089  0.00  0.00    +0.000 N 
ATOM      7  C   UNL     1      -4.095  -0.953 139.116  0.00  0.00    +0.000 C 
ATOM      8  O   UNL     1      -5.218  -0.510 139.311  0.00  0.00    +0.000 OA
ATOM      9  C   UNL     1      -3.012  -0.407 139.997  0.00  0.00    +0.000 C 
ATOM     10  C   UNL     1      -2.572   0.974 139.806  0.00  0.00    +0.000 C 
ATOM     11  S   UNL     1      -4.006   1.430 140.557  0.00  0.00    +0.000 S 
ATOM     12  S   UNL     1      -3.078   3.102 140.736  0.00  0.00    +0.000 S 
ATOM     13  C   UNL     1      -4.715   5.159 141.235  0.00  0.00    +0.000 C 
ATOM     14  C   UNL     1      -4.677   6.587 140.882  0.00  0.00    +0.000 C 
ATOM     15  N   UNL     1      -3.562   7.184 141.376  0.00  0.00    +0.000 N 
ATOM     16  C   UNL     1      -2.415   6.747 140.907  0.00  0.00    +0.000 C 
ATOM     17  O   UNL     1      -1.455   7.529 141.113  0.00  0.00    +0.000 OA
ATOM     18  C   UNL     1      -2.173   5.036 140.283  0.00  0.00    +0.000 C 
ATOM     19  N   UNL     1      -0.709   4.904 139.162  0.00  0.00    +0.000 N 
ATOM     20  C   UNL     1       0.520   5.559 139.531  0.00  0.00    +0.000 C 
ATOM     21  O   UNL     1       1.211   6.204 138.755  0.00  0.00    +0.000 OA
ATOM     22  C   UNL     1       0.943   5.484 140.915  0.00  0.00    +0.000 C 
ATOM     23  N   UNL     1       2.018   4.498 140.854  0.00  0.00    +0.000 N 
ATOM     24  C   UNL     1       2.739   3.785 139.921  0.00  0.00    +0.000 C 
ATOM     25  O   UNL     1       3.977   3.880 139.974  0.00  0.00    +0.000 OA
ATOM     26  H   UNL     1       0.676  -0.479 138.913  0.00  0.00    +0.000 HD
ATOM     27  H   UNL     1      -4.629  -2.065 137.505  0.00  0.00    +0.000 HD
ATOM     28  H   UNL     1      -3.513   7.357 142.378  0.00  0.00    +0.000 HD
ATOM     29  H   UNL     1      -0.926   5.137 138.114  0.00  0.00    +0.000 HD
ATOM     30  H   UNL     1       1.677   3.674 141.268  0.00  0.00    +0.000 HD
ENDROOT
BRANCH  14  31
ATOM     31  C   UNL     1      -4.631   7.140 139.397  0.00  0.00    +0.000 C 
ATOM     32  O   UNL     1      -3.531   7.417 138.918  0.00  0.00    +0.000 OA
ATOM     33  N   UNL     1      -5.859   7.751 138.868  0.00  0.00    +0.000 N 
ATOM     34  C   UNL     1      -6.629   8.823 139.241  0.00  0.00    +0.000 C 
ATOM     35  C   UNL     1      -8.029   8.416 138.916  0.00  0.00    +0.000 C 
ATOM     36  C   UNL     1      -7.817   8.409 137.542  0.00  0.00    +0.000 C 
ATOM     37  C   UNL     1      -6.403   7.855 137.581  0.00  0.00    +0.000 C 
BRANCH  37  38
ATOM     38  C   UNL     1      -6.512   6.493 137.158  0.00  0.00    +0.000 C 
ATOM     39  O   UNL     1      -6.859   5.801 138.110  0.00  0.00    +0.000 OA
ATOM     40  N   UNL     1      -6.240   6.099 135.857  0.00  0.00    +0.000 N 
ATOM     41  H   UNL     1      -5.821   6.731 135.154  0.00  0.00    +0.000 HD
BRANCH  40  42
ATOM     42  C   UNL     1      -6.499   4.721 135.393  0.00  0.00    +0.000 C 
BRANCH  42  43
ATOM     43  C   UNL     1      -5.393   4.208 134.408  0.00  0.00    +0.000 C 
ATOM     44  O   UNL     1      -5.586   3.161 133.786  0.00  0.00    +0.000 OA
ATOM     45  N   UNL     1      -4.216   4.954 134.255  0.00  0.00    +0.000 N 
ATOM     46  H   UNL     1      -4.049   5.808 134.772  0.00  0.00    +0.000 HD
BRANCH  45  47
ATOM     47  C   UNL     1      -3.167   4.502 133.361  0.00  0.00    +0.000 C 
BRANCH  47  48
ATOM     48  N   UNL     1      -3.625   4.557 131.984  0.00  0.00    +0.000 NA
ATOM     49  H   UNL     1      -3.124   5.278 131.471  0.00  0.00    +0.000 HD
ATOM     50  H   UNL     1      -4.612   4.855 131.972  0.00  0.00    +0.000 HD
ENDBRANCH  47  48
ENDBRANCH  45  47
ENDBRANCH  42  43
BRANCH  42  51
ATOM     51  C   UNL     1      -7.857   4.667 134.703  0.00  0.00    +0.000 C 
BRANCH  51  52
ATOM     52  C   UNL     1      -8.178   5.945 133.962  0.00  0.00    +0.000 C 
BRANCH  52  53
ATOM     53  C   UNL     1      -8.340   5.797 132.494  0.00  0.00    +0.000 C 
BRANCH  53  54
ATOM     54  N   UNL     1      -7.938   4.474 132.015  0.00  0.00    +0.000 N 
ATOM     55  C   UNL     1      -7.547   4.313 130.694  0.00  0.00    +0.000 C 
ATOM     56  O   UNL     1      -7.531   5.232 129.883  0.00  0.00    +0.000 OA
ATOM     57  H   UNL     1      -7.955   3.712 132.686  0.00  0.00    +0.000 HD
BRANCH  55  58
ATOM     58  C   UNL     1      -7.122   2.961 130.224  0.00  0.00    +0.000 A 
ATOM     59  C   UNL     1      -7.925   2.163 129.415  0.00  0.00    +0.000 A 
ATOM     60  C   UNL     1      -7.620   0.758 129.159  0.00  0.00    +0.000 A 
ATOM     61  C   UNL     1      -6.461   0.052 129.464  0.00  0.00    +0.000 A 
ATOM     62  C   UNL     1      -5.655   1.010 130.437  0.00  0.00    +0.000 A 
ATOM     63  C   UNL     1      -5.969   2.383 130.692  0.00  0.00    +0.000 A 
BRANCH  61  64
ATOM     64  C   UNL     1      -6.252  -1.636 128.698  0.00  0.00    +0.000 C 
ATOM     65  C   UNL     1      -7.003  -1.243 127.564  0.00  0.00    +0.000 C 
ATOM     66  C   UNL     1      -8.137  -0.382 127.109  0.00  0.00    +0.000 C 
ATOM     67  C   UNL     1      -8.495  -0.067 125.844  0.00  0.00    +0.000 C 
ATOM     68  C   UNL     1      -8.378  -1.118 124.926  0.00  0.00    +0.000 C 
ATOM     69  C   UNL     1      -7.763  -2.182 125.431  0.00  0.00    +0.000 C 
ATOM     70  C   UNL     1      -7.127  -2.331 126.720  0.00  0.00    +0.000 C 
ATOM     71  O   UNL     1      -7.945  -3.218 127.513  0.00  0.00    +0.000 OA
ATOM     72  C   UNL     1      -7.784  -3.333 128.901  0.00  0.00    +0.000 C 
ATOM     73  C   UNL     1      -8.049  -2.452 129.889  0.00  0.00    +0.000 C 
ATOM     74  C   UNL     1      -7.289  -2.422 131.190  0.00  0.00    +0.000 C 
ATOM     75  N   UNL     1      -7.631  -1.554 132.054  0.00  0.00    +0.000 N 
ATOM     76  C   UNL     1      -7.214  -1.695 133.444  0.00  0.00    +0.000 C 
ATOM     77  C   UNL     1      -8.531  -0.453 131.673  0.00  0.00    +0.000 C 
ATOM     78  C   UNL     1      -6.320  -3.449 131.511  0.00  0.00    +0.000 C 
ATOM     79  C   UNL     1      -6.107  -4.304 130.555  0.00  0.00    +0.000 C 
ATOM     80  C   UNL     1      -6.376  -3.632 129.115  0.00  0.00    +0.000 C 
BRANCH  68  81
ATOM     81  N   UNL     1      -8.993  -1.087 123.711  0.00  0.00    +0.000 N 
ATOM     82  C   UNL     1      -9.244  -2.271 122.907  0.00  0.00    +0.000 C 
ATOM     83  C   UNL     1      -9.431   0.188 123.178  0.00  0.00    +0.000 C 
ENDBRANCH  68  81
ENDBRANCH  61  64
BRANCH  62  84
ATOM     84  C   UNL     1      -4.593   0.639 131.520  0.00  0.00    +0.000 C 
ATOM     85  O   UNL     1      -4.314  -0.529 131.692  0.00  0.00    +0.000 OA
BRANCH  84  86
ATOM     86  O   UNL     1      -3.754   1.504 132.122  0.00  0.00    +0.000 OA
ATOM     87  H   UNL     1      -3.974   1.605 133.047  0.00  0.00    +0.000 HD
ENDBRANCH  84  86
ENDBRANCH  62  84
ENDBRANCH  55  58
ENDBRANCH  53  54
ENDBRANCH  52  53
ENDBRANCH  51  52
ENDBRANCH  42  51
ENDBRANCH  40  42
ENDBRANCH  37  38
ENDBRANCH  14  31
BRANCH   5  88
ATOM     88  C   UNL     1      -1.676  -1.239 136.705  0.00  0.00    +0.000 A 
ATOM     89  C   UNL     1      -2.913  -0.877 136.189  0.00  0.00    +0.000 A 
ATOM     90  C   UNL     1      -3.064  -1.138 134.850  0.00  0.00    +0.000 A 
ATOM     91  C   UNL     1      -1.998  -1.683 134.125  0.00  0.00    +0.000 A 
ATOM     92  C   UNL     1      -0.834  -2.119 134.740  0.00  0.00    +0.000 A 
ATOM     93  C   UNL     1      -0.620  -1.826 136.045  0.00  0.00    +0.000 A 
BRANCH  91  94
ATOM     94  O   UNL     1      -2.027  -1.887 132.785  0.00  0.00    +0.000 OA
ATOM     95  H   UNL     1      -1.149  -2.099 132.438  0.00  0.00    +0.000 HD
ENDBRANCH  91  94
ENDBRANCH   5  88
BRANCH   1  96
ATOM     96  C   UNL     1       2.959   4.895 138.249  0.00  0.00    +0.000 C 
ATOM     97  C   UNL     1       3.742   6.107 136.814  0.00  0.00    +0.000 C 
BRANCH  96  99
ATOM     98  C   UNL     1       4.399   6.734 140.243  0.00  0.00    +0.000 C 
ATOM     99  C   UNL     1       3.888   6.766 138.799  0.00  0.00    +0.000 C 
ENDBRANCH  96  99
ENDBRANCH   1  96
BRANCH   9 100
ATOM    100  O   UNL     1      -1.804  -0.604 139.635  0.00  0.00    +0.000 OA
ATOM    101  H   UNL     1      -1.884  -1.462 139.223  0.00  0.00    +0.000 HD
ENDBRANCH   9 100
BRANCH  18 102
ATOM    102  C   UNL     1      -3.807   4.642 139.392  0.00  0.00    +0.000 C 
BRANCH 102 103
ATOM    103  C   UNL     1      -3.702   4.243 137.771  0.00  0.00    +0.000 C 
ATOM    104  N   UNL     1      -4.885   2.707 137.584  0.00  0.00    +0.000 N 
ATOM    105  O   UNL     1      -3.251   4.897 136.895  0.00  0.00    +0.000 OA
ATOM    106  H   UNL     1      -5.069   2.234 138.609  0.00  0.00    +0.000 HD
ATOM    107  H   UNL     1      -5.216   2.250 136.846  0.00  0.00    +0.000 HD
ENDBRANCH 102 103
ENDBRANCH  18 102
BRANCH  22 108
ATOM    108  C   UNL     1      -0.092   4.906 141.861  0.00  0.00    +0.000 C 
BRANCH 108 109
ATOM    109  C   UNL     1       0.407   3.890 142.809  0.00  0.00    +0.000 C 
BRANCH 109 110
ATOM    110  C   UNL     1      -0.228   2.489 143.069  0.00  0.00    +0.000 C 
ATOM    111  N   UNL     1       0.283   1.622 142.199  0.00  0.00    +0.000 N 
ATOM    112  O   UNL     1      -1.130   2.111 143.816  0.00  0.00    +0.000 OA
ATOM    113  H   UNL     1       0.790   1.946 141.392  0.00  0.00    +0.000 HD
ATOM    114  H   UNL     1      -0.190   0.732 142.189  0.00  0.00    +0.000 HD
ENDBRANCH 109 110
ENDBRANCH 108 109
ENDBRANCH  22 108
TORSDOF 25
ENDMDL
MODEL 3
REMARK VINA RESULT:      -8.9      4.251     10.478
REMARK  Name = CHEMBL1790723
REMARK  31 active torsions:
REMARK  status: ('A' for Active; 'I' for Inactive)
REMARK    1  A    between atoms: C_1  and  C_2
REMARK    2  A    between atoms: C_2  and  C_3
REMARK    3  A    between atoms: C_3  and  C_4
REMARK    4  A    between atoms: C_3  and  C_5
REMARK    5  A    between atoms: C_9  and  C_10
REMARK    6  A    between atoms: C_13  and  O_14
REMARK    7  A    between atoms: C_20  and  O_21
REMARK    8  A    between atoms: C_26  and  C_27
REMARK    9  A    between atoms: C_33  and  C_34
REMARK   10  A    between atoms: N_36  and  C_37
REMARK   11  A    between atoms: C_37  and  C_38
REMARK   12  A    between atoms: C_37  and  C_73
REMARK   13  A    between atoms: C_38  and  C_39
REMARK   14  A    between atoms: C_39  and  C_40
REMARK   15  A    between atoms: C_40  and  N_41
REMARK   16  A    between atoms: C_42  and  C_44
REMARK   17  A    between atoms: C_47  and  C_48
REMARK   18  A    between atoms: C_52  and  N_53
REMARK   19  A    between atoms: N_53  and  C_54
REMARK   20  A    between atoms: N_53  and  C_55
REMARK   21  A    between atoms: N_62  and  C_63
REMARK   22  A    between atoms: N_62  and  C_64
REMARK   23  A    between atoms: C_68  and  C_69
REMARK   24  A    between atoms: C_69  and  O_71
REMARK   25  A    between atoms: N_75  and  C_76
REMARK   26  A    between atoms: C_76  and  N_77
REMARK   27  A    between atoms: C_81  and  C_82
REMARK   28  A    between atoms: C_82  and  C_83
REMARK   29  A    between atoms: C_89  and  C_90
REMARK   30  A    between atoms: C_90  and  C_91
REMARK   31  A    between atoms: C_91  and  C_92
REMARK                            x       y       z     vdW  Elec       q    Type
REMARK                         _______ _______ _______ _____ _____    ______ ____
ROOT
ATOM      1  C   UNL     1      -0.377   6.837 140.341  0.00  0.00    +0.000 C 
ATOM      2  N   UNL     1      -2.347   7.753 140.826  0.00  0.00    +0.000 N 
ATOM      3  C   UNL     1      -4.278   8.373 141.456  0.00  0.00    +0.000 C 
ATOM      4  O   UNL     1      -5.053   9.687 141.805  0.00  0.00    +0.000 OA
ATOM      5  C   UNL     1      -6.426   8.212 141.168  0.00  0.00    +0.000 C 
ATOM      6  N   UNL     1      -7.443   8.540 139.759  0.00  0.00    +0.000 N 
ATOM      7  C   UNL     1      -6.846   9.221 138.741  0.00  0.00    +0.000 C 
ATOM      8  O   UNL     1      -7.313   9.352 137.619  0.00  0.00    +0.000 OA
ATOM      9  C   UNL     1      -5.448   9.726 138.933  0.00  0.00    +0.000 C 
ATOM     10  C   UNL     1      -4.340   8.999 138.316  0.00  0.00    +0.000 C 
ATOM     11  S   UNL     1      -4.842   9.672 136.858  0.00  0.00    +0.000 S 
ATOM     12  S   UNL     1      -3.085   9.131 136.302  0.00  0.00    +0.000 S 
ATOM     13  C   UNL     1      -2.823   9.004 133.642  0.00  0.00    +0.000 C 
ATOM     14  C   UNL     1      -2.026   8.149 132.746  0.00  0.00    +0.000 C 
ATOM     15  N   UNL     1      -0.699   8.275 133.003  0.00  0.00    +0.000 N 
ATOM     16  C   UNL     1      -0.299   7.886 134.193  0.00  0.00    +0.000 C 
ATOM     17  O   UNL     1       0.938   7.694 134.271  0.00  0.00    +0.000 OA
ATOM     18  C   UNL     1      -1.386   7.911 135.674  0.00  0.00    +0.000 C 
ATOM     19  N   UNL     1      -0.782   6.776 137.001  0.00  0.00    +0.000 N 
ATOM     20  C   UNL     1       0.623   6.754 137.321  0.00  0.00    +0.000 C 
ATOM     21  O   UNL     1       1.266   5.730 137.505  0.00  0.00    +0.000 OA
ATOM     22  C   UNL     1       1.326   8.018 137.388  0.00  0.00    +0.000 C 
ATOM     23  N   UNL     1       1.466   8.215 138.828  0.00  0.00    +0.000 N 
ATOM     24  C   UNL     1       1.240   7.541 140.008  0.00  0.00    +0.000 C 
ATOM     25  O   UNL     1       2.202   7.430 140.787  0.00  0.00    +0.000 OA
ATOM     26  H   UNL     1      -3.202   8.379 141.748  0.00  0.00    +0.000 HD
ATOM     27  H   UNL     1      -8.437   8.193 139.468  0.00  0.00    +0.000 HD
ATOM     28  H   UNL     1      -0.233   9.134 132.716  0.00  0.00    +0.000 HD
ATOM     29  H   UNL     1      -1.132   5.743 136.899  0.00  0.00    +0.000 HD
ATOM     30  H   UNL     1       0.845   8.935 139.082  0.00  0.00    +0.000 HD
ENDROOT
BRANCH  14  31
ATOM     31  C   UNL     1      -2.131   6.568 132.692  0.00  0.00    +0.000 C 
ATOM     32  O   UNL     1      -1.493   5.919 133.520  0.00  0.00    +0.000 OA
ATOM     33  N   UNL     1      -2.543   5.966 131.416  0.00  0.00    +0.000 N 
ATOM     34  C   UNL     1      -2.027   5.973 130.144  0.00  0.00    +0.000 C 
ATOM     35  C   UNL     1      -3.222   5.962 129.250  0.00  0.00    +0.000 C 
ATOM     36  C   UNL     1      -3.615   4.681 129.620  0.00  0.00    +0.000 C 
ATOM     37  C   UNL     1      -3.237   4.793 131.087  0.00  0.00    +0.000 C 
BRANCH  37  38
ATOM     38  C   UNL     1      -4.473   4.933 131.793  0.00  0.00    +0.000 C 
ATOM     39  O   UNL     1      -4.295   4.674 132.978  0.00  0.00    +0.000 OA
ATOM     40  N   UNL     1      -5.650   5.300 131.156  0.00  0.00    +0.000 N 
ATOM     41  H   UNL     1      -5.735   5.366 130.128  0.00  0.00    +0.000 HD
BRANCH  40  42
ATOM     42  C   UNL     1      -6.884   5.588 131.914  0.00  0.00    +0.000 C 
BRANCH  42  43
ATOM     43  C   UNL     1      -7.841   6.561 131.143  0.00  0.00    +0.000 C 
ATOM     44  O   UNL     1      -7.363   7.553 130.587  0.00  0.00    +0.000 OA
ATOM     45  N   UNL     1      -9.213   6.277 131.099  0.00  0.00    +0.000 N 
ATOM     46  H   UNL     1      -9.611   5.471 131.563  0.00  0.00    +0.000 HD
BRANCH  45  47
ATOM     47  C   UNL     1     -10.128   7.163 130.404  0.00  0.00    +0.000 C 
BRANCH  47  48
ATOM     48  N   UNL     1      -9.757   7.267 129.004  0.00  0.00    +0.000 NA
ATOM     49  H   UNL     1     -10.537   7.619 128.455  0.00  0.00    +0.000 HD
ATOM     50  H   UNL     1      -9.573   6.321 128.636  0.00  0.00    +0.000 HD
ENDBRANCH  47  48
ENDBRANCH  45  47
ENDBRANCH  42  43
BRANCH  42  51
ATOM     51  C   UNL     1      -6.519   6.198 133.262  0.00  0.00    +0.000 C 
BRANCH  51  52
ATOM     52  C   UNL     1      -7.523   5.860 134.340  0.00  0.00    +0.000 C 
BRANCH  52  53
ATOM     53  C   UNL     1      -7.290   4.570 135.036  0.00  0.00    +0.000 C 
BRANCH  53  54
ATOM     54  N   UNL     1      -6.957   3.486 134.111  0.00  0.00    +0.000 N 
ATOM     55  C   UNL     1      -5.942   2.598 134.433  0.00  0.00    +0.000 C 
ATOM     56  O   UNL     1      -5.283   2.677 135.464  0.00  0.00    +0.000 OA
ATOM     57  H   UNL     1      -7.501   3.422 133.255  0.00  0.00    +0.000 HD
BRANCH  55  58
ATOM     58  C   UNL     1      -5.625   1.485 133.488  0.00  0.00    +0.000 A 
ATOM     59  C   UNL     1      -6.522   1.047 132.519  0.00  0.00    +0.000 A 
ATOM     60  C   UNL     1      -6.313  -0.187 131.766  0.00  0.00    +0.000 A 
ATOM     61  C   UNL     1      -5.179  -0.989 131.712  0.00  0.00    +0.000 A 
ATOM     62  C   UNL     1      -4.260  -0.459 132.890  0.00  0.00    +0.000 A 
ATOM     63  C   UNL     1      -4.479   0.745 133.632  0.00  0.00    +0.000 A 
BRANCH  61  64
ATOM     64  C   UNL     1      -5.114  -2.305 130.391  0.00  0.00    +0.000 C 
ATOM     65  C   UNL     1      -5.807  -1.466 129.486  0.00  0.00    +0.000 C 
ATOM     66  C   UNL     1      -6.849  -0.399 129.387  0.00  0.00    +0.000 C 
ATOM     67  C   UNL     1      -7.156   0.378 128.324  0.00  0.00    +0.000 C 
ATOM     68  C   UNL     1      -7.121  -0.283 127.090  0.00  0.00    +0.000 C 
ATOM     69  C   UNL     1      -6.616  -1.509 127.172  0.00  0.00    +0.000 C 
ATOM     70  C   UNL     1      -6.017  -2.166 128.312  0.00  0.00    +0.000 C 
ATOM     71  O   UNL     1      -6.927  -3.198 128.751  0.00  0.00    +0.000 OA
ATOM     72  C   UNL     1      -6.800  -3.813 130.004  0.00  0.00    +0.000 C 
ATOM     73  C   UNL     1      -6.998  -3.322 131.246  0.00  0.00    +0.000 C 
ATOM     74  C   UNL     1      -6.261  -3.828 132.458  0.00  0.00    +0.000 C 
ATOM     75  N   UNL     1      -6.535  -3.296 133.581  0.00  0.00    +0.000 N 
ATOM     76  C   UNL     1      -6.155  -3.962 134.821  0.00  0.00    +0.000 C 
ATOM     77  C   UNL     1      -7.322  -2.054 133.633  0.00  0.00    +0.000 C 
ATOM     78  C   UNL     1      -5.396  -4.986 132.375  0.00  0.00    +0.000 C 
ATOM     79  C   UNL     1      -5.248  -5.460 131.174  0.00  0.00    +0.000 C 
ATOM     80  C   UNL     1      -5.429  -4.298 130.072  0.00  0.00    +0.000 C 
BRANCH  68  81
ATOM     81  N   UNL     1      -7.712   0.235 125.977  0.00  0.00    +0.000 N 
ATOM     82  C   UNL     1      -6.982   0.928 124.929  0.00  0.00    +0.000 C 
ATOM     83  C   UNL     1      -9.146   0.095 125.814  0.00  0.00    +0.000 C 
ENDBRANCH  68  81
ENDBRANCH  61  64
BRANCH  62  84
ATOM     84  C   UNL     1      -3.152  -1.219 133.687  0.00  0.00    +0.000 C 
ATOM     85  O   UNL     1      -2.840  -2.337 133.337  0.00  0.00    +0.000 OA
BRANCH  84  86
ATOM     86  O   UNL     1      -2.312  -0.664 134.583  0.00  0.00    +0.000 OA
ATOM     87  H   UNL     1      -2.536  -0.933 135.472  0.00  0.00    +0.000 HD
ENDBRANCH  84  86
ENDBRANCH  62  84
ENDBRANCH  55  58
ENDBRANCH  53  54
ENDBRANCH  52  53
ENDBRANCH  51  52
ENDBRANCH  42  51
ENDBRANCH  40  42
ENDBRANCH  37  38
ENDBRANCH  14  31
BRANCH   5  88
ATOM     88  C   UNL     1      -6.070   6.852 141.094  0.00  0.00    +0.000 A 
ATOM     89  C   UNL     1      -6.725   6.420 139.948  0.00  0.00    +0.000 A 
ATOM     90  C   UNL     1      -7.480   5.288 140.124  0.00  0.00    +0.000 A 
ATOM     91  C   UNL     1      -7.501   4.655 141.372  0.00  0.00    +0.000 A 
ATOM     92  C   UNL     1      -6.908   5.215 142.493  0.00  0.00    +0.000 A 
ATOM     93  C   UNL     1      -6.104   6.295 142.352  0.00  0.00    +0.000 A 
BRANCH  91  94
ATOM     94  O   UNL     1      -8.143   3.485 141.610  0.00  0.00    +0.000 OA
ATOM     95  H   UNL     1      -8.078   2.883 140.856  0.00  0.00    +0.000 HD
ENDBRANCH  91  94
ENDBRANCH   5  88
BRANCH   1  96
ATOM     96  C   UNL     1       1.543   5.566 139.724  0.00  0.00    +0.000 C 
ATOM     97  C   UNL     1       2.217   3.749 139.101  0.00  0.00    +0.000 C 
BRANCH  96  99
ATOM     98  C   UNL     1       4.289   6.336 138.583  0.00  0.00    +0.000 C 
ATOM     99  C   UNL     1       3.659   5.233 139.439  0.00  0.00    +0.000 C 
ENDBRANCH  96  99
ENDBRANCH   1  96
BRANCH   9 100
ATOM    100  O   UNL     1      -4.822   9.343 139.977  0.00  0.00    +0.000 OA
ATOM    101  H   UNL     1      -5.503   8.833 140.411  0.00  0.00    +0.000 HD
ENDBRANCH   9 100
BRANCH  18 102
ATOM    102  C   UNL     1      -3.088   7.397 134.997  0.00  0.00    +0.000 C 
BRANCH 102 103
ATOM    103  C   UNL     1      -3.919   6.230 135.861  0.00  0.00    +0.000 C 
ATOM    104  N   UNL     1      -2.978   4.576 135.450  0.00  0.00    +0.000 N 
ATOM    105  O   UNL     1      -4.705   6.399 136.730  0.00  0.00    +0.000 OA
ATOM    106  H   UNL     1      -2.361   4.709 134.496  0.00  0.00    +0.000 HD
ATOM    107  H   UNL     1      -3.024   3.717 135.803  0.00  0.00    +0.000 HD
ENDBRANCH 102 103
ENDBRANCH  18 102
BRANCH  22 108
ATOM    108  C   UNL     1       0.533   9.209 136.886  0.00  0.00    +0.000 C 
BRANCH 108 109
ATOM    109  C   UNL     1       1.333  10.377 136.465  0.00  0.00    +0.000 C 
BRANCH 109 110
ATOM    110  C   UNL     1       1.144  11.191 135.148  0.00  0.00    +0.000 C 
ATOM    111  N   UNL     1       2.294  11.786 134.846  0.00  0.00    +0.000 N 
ATOM    112  O   UNL     1       0.154  11.438 134.459  0.00  0.00    +0.000 OA
ATOM    113  H   UNL     1       3.030  11.853 135.529  0.00  0.00    +0.000 HD
ATOM    114  H   UNL     1       2.218  12.461 134.101  0.00  0.00    +0.000 HD
ENDBRANCH 109 110
ENDBRANCH 108 109
ENDBRANCH  22 108
TORSDOF 25
ENDMDL
MODEL 4
REMARK VINA RESULT:      -8.8      3.659      8.080
REMARK  Name = CHEMBL1790723
REMARK  31 active torsions:
REMARK  status: ('A' for Active; 'I' for Inactive)
REMARK    1  A    between atoms: C_1  and  C_2
REMARK    2  A    between atoms: C_2  and  C_3
REMARK    3  A    between atoms: C_3  and  C_4
REMARK    4  A    between atoms: C_3  and  C_5
REMARK    5  A    between atoms: C_9  and  C_10
REMARK    6  A    between atoms: C_13  and  O_14
REMARK    7  A    between atoms: C_20  and  O_21
REMARK    8  A    between atoms: C_26  and  C_27
REMARK    9  A    between atoms: C_33  and  C_34
REMARK   10  A    between atoms: N_36  and  C_37
REMARK   11  A    between atoms: C_37  and  C_38
REMARK   12  A    between atoms: C_37  and  C_73
REMARK   13  A    between atoms: C_38  and  C_39
REMARK   14  A    between atoms: C_39  and  C_40
REMARK   15  A    between atoms: C_40  and  N_41
REMARK   16  A    between atoms: C_42  and  C_44
REMARK   17  A    between atoms: C_47  and  C_48
REMARK   18  A    between atoms: C_52  and  N_53
REMARK   19  A    between atoms: N_53  and  C_54
REMARK   20  A    between atoms: N_53  and  C_55
REMARK   21  A    between atoms: N_62  and  C_63
REMARK   22  A    between atoms: N_62  and  C_64
REMARK   23  A    between atoms: C_68  and  C_69
REMARK   24  A    between atoms: C_69  and  O_71
REMARK   25  A    between atoms: N_75  and  C_76
REMARK   26  A    between atoms: C_76  and  N_77
REMARK   27  A    between atoms: C_81  and  C_82
REMARK   28  A    between atoms: C_82  and  C_83
REMARK   29  A    between atoms: C_89  and  C_90
REMARK   30  A    between atoms: C_90  and  C_91
REMARK   31  A    between atoms: C_91  and  C_92
REMARK                            x       y       z     vdW  Elec       q    Type
REMARK                         _______ _______ _______ _____ _____    ______ ____
ROOT
ATOM      1  C   UNL     1       1.967   2.523 138.571  0.00  0.00    +0.000 C 
ATOM      2  N   UNL     1       0.777   0.650 138.734  0.00  0.00    +0.000 N 
ATOM      3  C   UNL     1      -0.260  -1.199 138.602  0.00  0.00    +0.000 C 
ATOM      4  O   UNL     1      -0.708  -2.382 139.523  0.00  0.00    +0.000 OA
ATOM      5  C   UNL     1      -2.006  -2.258 137.860  0.00  0.00    +0.000 C 
ATOM      6  N   UNL     1      -3.734  -2.002 138.139  0.00  0.00    +0.000 N 
ATOM      7  C   UNL     1      -4.051  -1.154 139.158  0.00  0.00    +0.000 C 
ATOM      8  O   UNL     1      -5.165  -0.693 139.362  0.00  0.00    +0.000 OA
ATOM      9  C   UNL     1      -2.947  -0.608 140.013  0.00  0.00    +0.000 C 
ATOM     10  C   UNL     1      -2.492   0.764 139.793  0.00  0.00    +0.000 C 
ATOM     11  S   UNL     1      -3.909   1.250 140.558  0.00  0.00    +0.000 S 
ATOM     12  S   UNL     1      -2.956   2.912 140.697  0.00  0.00    +0.000 S 
ATOM     13  C   UNL     1      -4.558   4.999 141.187  0.00  0.00    +0.000 C 
ATOM     14  C   UNL     1      -4.507   6.421 140.810  0.00  0.00    +0.000 C 
ATOM     15  N   UNL     1      -3.377   7.010 141.277  0.00  0.00    +0.000 N 
ATOM     16  C   UNL     1      -2.243   6.551 140.798  0.00  0.00    +0.000 C 
ATOM     17  O   UNL     1      -1.270   7.323 140.977  0.00  0.00    +0.000 OA
ATOM     18  C   UNL     1      -2.032   4.827 140.198  0.00  0.00    +0.000 C 
ATOM     19  N   UNL     1      -0.588   4.657 139.057  0.00  0.00    +0.000 N 
ATOM     20  C   UNL     1       0.655   5.302 139.397  0.00  0.00    +0.000 C 
ATOM     21  O   UNL     1       1.342   5.925 138.601  0.00  0.00    +0.000 OA
ATOM     22  C   UNL     1       1.098   5.244 140.775  0.00  0.00    +0.000 C 
ATOM     23  N   UNL     1       2.159   4.242 140.715  0.00  0.00    +0.000 N 
ATOM     24  C   UNL     1       2.856   3.505 139.782  0.00  0.00    +0.000 C 
ATOM     25  O   UNL     1       4.096   3.585 139.814  0.00  0.00    +0.000 OA
ATOM     26  H   UNL     1       0.723  -0.747 138.875  0.00  0.00    +0.000 HD
ATOM     27  H   UNL     1      -4.623  -2.285 137.573  0.00  0.00    +0.000 HD
ATOM     28  H   UNL     1      -3.310   7.198 142.276  0.00  0.00    +0.000 HD
ATOM     29  H   UNL     1      -0.818   4.877 138.009  0.00  0.00    +0.000 HD
ATOM     30  H   UNL     1       1.813   3.429 141.147  0.00  0.00    +0.000 HD
ENDROOT
BRANCH  14  31
ATOM     31  C   UNL     1      -4.477   6.949 139.315  0.00  0.00    +0.000 C 
ATOM     32  O   UNL     1      -3.383   7.230 138.825  0.00  0.00    +0.000 OA
ATOM     33  N   UNL     1      -5.715   7.537 138.785  0.00  0.00    +0.000 N 
ATOM     34  C   UNL     1      -6.495   8.606 139.144  0.00  0.00    +0.000 C 
ATOM     35  C   UNL     1      -7.892   8.178 138.836  0.00  0.00    +0.000 C 
ATOM     36  C   UNL     1      -7.688   8.150 137.461  0.00  0.00    +0.000 C 
ATOM     37  C   UNL     1      -6.268   7.613 137.499  0.00  0.00    +0.000 C 
BRANCH  37  38
ATOM     38  C   UNL     1      -6.364   6.243 137.100  0.00  0.00    +0.000 C 
ATOM     39  O   UNL     1      -6.657   5.557 138.074  0.00  0.00    +0.000 OA
ATOM     40  N   UNL     1      -6.135   5.836 135.794  0.00  0.00    +0.000 N 
ATOM     41  H   UNL     1      -5.759   6.467 135.067  0.00  0.00    +0.000 HD
BRANCH  40  42
ATOM     42  C   UNL     1      -6.383   4.446 135.361  0.00  0.00    +0.000 C 
BRANCH  42  43
ATOM     43  C   UNL     1      -5.253   3.909 134.416  0.00  0.00    +0.000 C 
ATOM     44  O   UNL     1      -4.205   4.550 134.313  0.00  0.00    +0.000 OA
ATOM     45  N   UNL     1      -5.459   2.711 133.719  0.00  0.00    +0.000 N 
ATOM     46  H   UNL     1      -6.322   2.186 133.792  0.00  0.00    +0.000 HD
BRANCH  45  47
ATOM     47  C   UNL     1      -4.439   2.190 132.827  0.00  0.00    +0.000 C 
BRANCH  47  48
ATOM     48  N   UNL     1      -4.418   2.954 131.592  0.00  0.00    +0.000 NA
ATOM     49  H   UNL     1      -3.972   3.856 131.739  0.00  0.00    +0.000 HD
ATOM     50  H   UNL     1      -5.388   3.175 131.320  0.00  0.00    +0.000 HD
ENDBRANCH  47  48
ENDBRANCH  45  47
ENDBRANCH  42  43
BRANCH  42  51
ATOM     51  C   UNL     1      -7.723   4.373 134.640  0.00  0.00    +0.000 C 
BRANCH  51  52
ATOM     52  C   UNL     1      -8.152   5.711 134.082  0.00  0.00    +0.000 C 
BRANCH  52  53
ATOM     53  C   UNL     1      -8.170   5.798 132.600  0.00  0.00    +0.000 C 
BRANCH  53  54
ATOM     54  N   UNL     1      -7.913   4.508 131.958  0.00  0.00    +0.000 N 
ATOM     55  C   UNL     1      -8.879   3.948 131.136  0.00  0.00    +0.000 C 
ATOM     56  O   UNL     1      -9.964   4.474 130.921  0.00  0.00    +0.000 OA
ATOM     57  H   UNL     1      -7.015   4.070 132.140  0.00  0.00    +0.000 HD
BRANCH  55  58
ATOM     58  C   UNL     1      -8.596   2.639 130.474  0.00  0.00    +0.000 A 
ATOM     59  C   UNL     1      -7.790   1.665 131.054  0.00  0.00    +0.000 A 
ATOM     60  C   UNL     1      -7.318   0.500 130.310  0.00  0.00    +0.000 A 
ATOM     61  C   UNL     1      -7.714   0.054 129.054  0.00  0.00    +0.000 A 
ATOM     62  C   UNL     1      -8.560   1.253 128.454  0.00  0.00    +0.000 A 
ATOM     63  C   UNL     1      -9.008   2.397 129.188  0.00  0.00    +0.000 A 
BRANCH  61  64
ATOM     64  C   UNL     1      -7.172  -1.653 128.533  0.00  0.00    +0.000 C 
ATOM     65  C   UNL     1      -6.961  -2.025 129.882  0.00  0.00    +0.000 C 
ATOM     66  C   UNL     1      -6.539  -1.514 131.222  0.00  0.00    +0.000 C 
ATOM     67  C   UNL     1      -6.642  -2.125 132.424  0.00  0.00    +0.000 C 
ATOM     68  C   UNL     1      -6.378  -3.500 132.403  0.00  0.00    +0.000 C 
ATOM     69  C   UNL     1      -6.252  -3.986 131.172  0.00  0.00    +0.000 C 
ATOM     70  C   UNL     1      -6.462  -3.315 129.910  0.00  0.00    +0.000 C 
ATOM     71  O   UNL     1      -5.171  -3.136 129.288  0.00  0.00    +0.000 OA
ATOM     72  C   UNL     1      -4.982  -2.258 128.212  0.00  0.00    +0.000 C 
ATOM     73  C   UNL     1      -5.021  -0.909 128.163  0.00  0.00    +0.000 C 
ATOM     74  C   UNL     1      -5.424  -0.142 126.932  0.00  0.00    +0.000 C 
ATOM     75  N   UNL     1      -5.417   1.129 126.998  0.00  0.00    +0.000 N 
ATOM     76  C   UNL     1      -5.429   1.929 125.780  0.00  0.00    +0.000 C 
ATOM     77  C   UNL     1      -5.300   1.795 128.305  0.00  0.00    +0.000 C 
ATOM     78  C   UNL     1      -5.649  -0.818 125.672  0.00  0.00    +0.000 C 
ATOM     79  C   UNL     1      -5.572  -2.114 125.737  0.00  0.00    +0.000 C 
ATOM     80  C   UNL     1      -5.966  -2.638 127.210  0.00  0.00    +0.000 C 
BRANCH  68  81
ATOM     81  N   UNL     1      -6.110  -4.201 133.539  0.00  0.00    +0.000 N 
ATOM     82  C   UNL     1      -4.807  -4.765 133.847  0.00  0.00    +0.000 C 
ATOM     83  C   UNL     1      -7.171  -4.403 134.507  0.00  0.00    +0.000 C 
ENDBRANCH  68  81
ENDBRANCH  61  64
BRANCH  62  84
ATOM     84  C   UNL     1      -8.824   1.615 126.957  0.00  0.00    +0.000 C 
ATOM     85  O   UNL     1      -8.638   2.754 126.588  0.00  0.00    +0.000 OA
BRANCH  84  86
ATOM     86  O   UNL     1      -8.998   0.729 125.957  0.00  0.00    +0.000 OA
ATOM     87  H   UNL     1      -8.205   0.650 125.429  0.00  0.00    +0.000 HD
ENDBRANCH  84  86
ENDBRANCH  62  84
ENDBRANCH  55  58
ENDBRANCH  53  54
ENDBRANCH  52  53
ENDBRANCH  51  52
ENDBRANCH  42  51
ENDBRANCH  40  42
ENDBRANCH  37  38
ENDBRANCH  14  31
BRANCH   5  88
ATOM     88  C   UNL     1      -1.673  -1.511 136.715  0.00  0.00    +0.000 A 
ATOM     89  C   UNL     1      -2.908  -1.066 136.262  0.00  0.00    +0.000 A 
ATOM     90  C   UNL     1      -3.144  -1.315 134.934  0.00  0.00    +0.000 A 
ATOM     91  C   UNL     1      -2.155  -1.928 134.156  0.00  0.00    +0.000 A 
ATOM     92  C   UNL     1      -0.993  -2.442 134.712  0.00  0.00    +0.000 A 
ATOM     93  C   UNL     1      -0.693  -2.166 136.003  0.00  0.00    +0.000 A 
BRANCH  91  94
ATOM     94  O   UNL     1      -2.265  -2.128 132.820  0.00  0.00    +0.000 OA
ATOM     95  H   UNL     1      -2.653  -1.361 132.376  0.00  0.00    +0.000 HD
ENDBRANCH  91  94
ENDBRANCH   5  88
BRANCH   1  96
ATOM     96  C   UNL     1       3.065   4.585 138.090  0.00  0.00    +0.000 C 
ATOM     97  C   UNL     1       3.289   6.082 136.729  0.00  0.00    +0.000 C 
BRANCH  96  99
ATOM     98  C   UNL     1       4.248   6.793 139.867  0.00  0.00    +0.000 C 
ATOM     99  C   UNL     1       4.452   6.197 138.470  0.00  0.00    +0.000 C 
ENDBRANCH  96  99
ENDBRANCH   1  96
BRANCH   9 100
ATOM    100  O   UNL     1      -1.748  -0.827 139.636  0.00  0.00    +0.000 OA
ATOM    101  H   UNL     1      -1.611  -1.703 139.992  0.00  0.00    +0.000 HD
ENDBRANCH   9 100
BRANCH  18 102
ATOM    102  C   UNL     1      -3.685   4.440 139.339  0.00  0.00    +0.000 C 
BRANCH 102 103
ATOM    103  C   UNL     1      -3.603   3.907 137.756  0.00  0.00    +0.000 C 
ATOM    104  N   UNL     1      -2.782   5.391 136.798  0.00  0.00    +0.000 N 
ATOM    105  O   UNL     1      -3.742   2.801 137.359  0.00  0.00    +0.000 OA
ATOM    106  H   UNL     1      -2.885   6.351 137.412  0.00  0.00    +0.000 HD
ATOM    107  H   UNL     1      -2.444   5.478 135.937  0.00  0.00    +0.000 HD
ENDBRANCH 102 103
ENDBRANCH  18 102
BRANCH  22 108
ATOM    108  C   UNL     1       0.071   4.695 141.746  0.00  0.00    +0.000 C 
BRANCH 108 109
ATOM    109  C   UNL     1       0.576   3.705 142.719  0.00  0.00    +0.000 C 
BRANCH 109 110
ATOM    110  C   UNL     1      -0.046   2.303 143.007  0.00  0.00    +0.000 C 
ATOM    111  N   UNL     1       0.401   1.444 142.098  0.00  0.00    +0.000 N 
ATOM    112  O   UNL     1      -0.898   1.922 143.810  0.00  0.00    +0.000 OA
ATOM    113  H   UNL     1       0.855   1.773 141.261  0.00  0.00    +0.000 HD
ATOM    114  H   UNL     1      -0.075   0.555 142.111  0.00  0.00    +0.000 HD
ENDBRANCH 109 110
ENDBRANCH 108 109
ENDBRANCH  22 108
TORSDOF 25
ENDMDL
MODEL 5
REMARK VINA RESULT:      -8.5      4.292      9.612
REMARK  Name = CHEMBL1790723
REMARK  31 active torsions:
REMARK  status: ('A' for Active; 'I' for Inactive)
REMARK    1  A    between atoms: C_1  and  C_2
REMARK    2  A    between atoms: C_2  and  C_3
REMARK    3  A    between atoms: C_3  and  C_4
REMARK    4  A    between atoms: C_3  and  C_5
REMARK    5  A    between atoms: C_9  and  C_10
REMARK    6  A    between atoms: C_13  and  O_14
REMARK    7  A    between atoms: C_20  and  O_21
REMARK    8  A    between atoms: C_26  and  C_27
REMARK    9  A    between atoms: C_33  and  C_34
REMARK   10  A    between atoms: N_36  and  C_37
REMARK   11  A    between atoms: C_37  and  C_38
REMARK   12  A    between atoms: C_37  and  C_73
REMARK   13  A    between atoms: C_38  and  C_39
REMARK   14  A    between atoms: C_39  and  C_40
REMARK   15  A    between atoms: C_40  and  N_41
REMARK   16  A    between atoms: C_42  and  C_44
REMARK   17  A    between atoms: C_47  and  C_48
REMARK   18  A    between atoms: C_52  and  N_53
REMARK   19  A    between atoms: N_53  and  C_54
REMARK   20  A    between atoms: N_53  and  C_55
REMARK   21  A    between atoms: N_62  and  C_63
REMARK   22  A    between atoms: N_62  and  C_64
REMARK   23  A    between atoms: C_68  and  C_69
REMARK   24  A    between atoms: C_69  and  O_71
REMARK   25  A    between atoms: N_75  and  C_76
REMARK   26  A    between atoms: C_76  and  N_77
REMARK   27  A    between atoms: C_81  and  C_82
REMARK   28  A    between atoms: C_82  and  C_83
REMARK   29  A    between atoms: C_89  and  C_90
REMARK   30  A    between atoms: C_90  and  C_91
REMARK   31  A    between atoms: C_91  and  C_92
REMARK                            x       y       z     vdW  Elec       q    Type
REMARK                         _______ _______ _______ _____ _____    ______ ____
ROOT
ATOM      1  C   UNL     1       0.583   6.491 139.492  0.00  0.00    +0.000 C 
ATOM      2  N   UNL     1      -1.454   6.777 140.342  0.00  0.00    +0.000 N 
ATOM      3  C   UNL     1      -3.358   6.772 141.283  0.00  0.00    +0.000 C 
ATOM      4  O   UNL     1      -4.373   7.775 141.922  0.00  0.00    +0.000 OA
ATOM      5  C   UNL     1      -5.415   6.073 141.226  0.00  0.00    +0.000 C 
ATOM      6  N   UNL     1      -6.687   6.283 140.015  0.00  0.00    +0.000 N 
ATOM      7  C   UNL     1      -6.443   7.218 139.055  0.00  0.00    +0.000 C 
ATOM      8  O   UNL     1      -7.095   7.353 138.029  0.00  0.00    +0.000 OA
ATOM      9  C   UNL     1      -5.203   8.055 139.159  0.00  0.00    +0.000 C 
ATOM     10  C   UNL     1      -4.058   7.734 138.310  0.00  0.00    +0.000 C 
ATOM     11  S   UNL     1      -4.930   8.417 137.045  0.00  0.00    +0.000 S 
ATOM     12  S   UNL     1      -3.202   8.442 136.209  0.00  0.00    +0.000 S 
ATOM     13  C   UNL     1      -3.328   8.713 133.550  0.00  0.00    +0.000 C 
ATOM     14  C   UNL     1      -2.491   8.220 132.444  0.00  0.00    +0.000 C 
ATOM     15  N   UNL     1      -1.215   8.667 132.560  0.00  0.00    +0.000 N 
ATOM     16  C   UNL     1      -0.552   8.260 133.620  0.00  0.00    +0.000 C 
ATOM     17  O   UNL     1       0.691   8.400 133.521  0.00  0.00    +0.000 OA
ATOM     18  C   UNL     1      -1.369   7.811 135.203  0.00  0.00    +0.000 C 
ATOM     19  N   UNL     1      -0.303   6.729 136.255  0.00  0.00    +0.000 N 
ATOM     20  C   UNL     1       1.095   7.047 136.401  0.00  0.00    +0.000 C 
ATOM     21  O   UNL     1       1.994   6.221 136.346  0.00  0.00    +0.000 OA
ATOM     22  C   UNL     1       1.461   8.437 136.584  0.00  0.00    +0.000 C 
ATOM     23  N   UNL     1       1.767   8.489 138.011  0.00  0.00    +0.000 N 
ATOM     24  C   UNL     1       1.902   7.641 139.088  0.00  0.00    +0.000 C 
ATOM     25  O   UNL     1       2.969   7.700 139.722  0.00  0.00    +0.000 OA
ATOM     26  H   UNL     1      -2.285   7.033 141.445  0.00  0.00    +0.000 HD
ATOM     27  H   UNL     1      -7.594   5.719 139.791  0.00  0.00    +0.000 HD
ATOM     28  H   UNL     1      -1.028   9.648 132.360  0.00  0.00    +0.000 HD
ATOM     29  H   UNL     1      -0.394   5.659 136.033  0.00  0.00    +0.000 HD
ATOM     30  H   UNL     1       1.033   8.978 138.445  0.00  0.00    +0.000 HD
ENDROOT
BRANCH  14  31
ATOM     31  C   UNL     1      -2.204   6.688 132.154  0.00  0.00    +0.000 C 
ATOM     32  O   UNL     1      -1.390   6.108 132.872  0.00  0.00    +0.000 OA
ATOM     33  N   UNL     1      -2.509   6.191 130.805  0.00  0.00    +0.000 N 
ATOM     34  C   UNL     1      -2.067   6.510 129.546  0.00  0.00    +0.000 C 
ATOM     35  C   UNL     1      -3.260   6.327 128.667  0.00  0.00    +0.000 C 
ATOM     36  C   UNL     1      -3.307   4.949 128.844  0.00  0.00    +0.000 C 
ATOM     37  C   UNL     1      -2.905   4.941 130.309  0.00  0.00    +0.000 C 
BRANCH  37  38
ATOM     38  C   UNL     1      -4.106   4.664 131.035  0.00  0.00    +0.000 C 
ATOM     39  O   UNL     1      -3.917   3.707 131.778  0.00  0.00    +0.000 OA
ATOM     40  N   UNL     1      -5.264   5.406 130.858  0.00  0.00    +0.000 N 
ATOM     41  H   UNL     1      -5.372   6.109 130.108  0.00  0.00    +0.000 HD
BRANCH  40  42
ATOM     42  C   UNL     1      -6.449   5.209 131.718  0.00  0.00    +0.000 C 
BRANCH  42  43
ATOM     43  C   UNL     1      -7.780   5.613 130.994  0.00  0.00    +0.000 C 
ATOM     44  O   UNL     1      -8.516   4.726 130.556  0.00  0.00    +0.000 OA
ATOM     45  N   UNL     1      -8.104   6.971 130.870  0.00  0.00    +0.000 N 
ATOM     46  H   UNL     1      -7.498   7.704 131.218  0.00  0.00    +0.000 HD
BRANCH  45  47
ATOM     47  C   UNL     1      -9.322   7.381 130.196  0.00  0.00    +0.000 C 
BRANCH  47  48
ATOM     48  N   UNL     1     -10.479   6.821 130.870  0.00  0.00    +0.000 NA
ATOM     49  H   UNL     1     -10.215   6.449 131.779  0.00  0.00    +0.000 HD
ATOM     50  H   UNL     1     -10.817   6.007 130.335  0.00  0.00    +0.000 HD
ENDBRANCH  47  48
ENDBRANCH  45  47
ENDBRANCH  42  43
BRANCH  42  51
ATOM     51  C   UNL     1      -6.293   6.034 132.989  0.00  0.00    +0.000 C 
BRANCH  51  52
ATOM     52  C   UNL     1      -7.378   5.745 134.002  0.00  0.00    +0.000 C 
BRANCH  52  53
ATOM     53  C   UNL     1      -7.214   4.476 134.755  0.00  0.00    +0.000 C 
BRANCH  53  54
ATOM     54  N   UNL     1      -7.023   3.322 133.875  0.00  0.00    +0.000 N 
ATOM     55  C   UNL     1      -8.128   2.678 133.341  0.00  0.00    +0.000 C 
ATOM     56  O   UNL     1      -9.282   3.017 133.578  0.00  0.00    +0.000 OA
ATOM     57  H   UNL     1      -6.067   3.038 133.682  0.00  0.00    +0.000 HD
BRANCH  55  58
ATOM     58  C   UNL     1      -7.918   1.512 132.430  0.00  0.00    +0.000 A 
ATOM     59  C   UNL     1      -7.072   0.455 132.750  0.00  0.00    +0.000 A 
ATOM     60  C   UNL     1      -6.680  -0.553 131.768  0.00  0.00    +0.000 A 
ATOM     61  C   UNL     1      -7.191  -0.768 130.494  0.00  0.00    +0.000 A 
ATOM     62  C   UNL     1      -8.077   0.513 130.199  0.00  0.00    +0.000 A 
ATOM     63  C   UNL     1      -8.446   1.503 131.165  0.00  0.00    +0.000 A 
BRANCH  61  64
ATOM     64  C   UNL     1      -6.714  -2.349 129.627  0.00  0.00    +0.000 C 
ATOM     65  C   UNL     1      -6.356  -2.946 130.859  0.00  0.00    +0.000 C 
ATOM     66  C   UNL     1      -5.788  -2.669 132.214  0.00  0.00    +0.000 C 
ATOM     67  C   UNL     1      -5.759  -3.481 133.294  0.00  0.00    +0.000 C 
ATOM     68  C   UNL     1      -5.503  -4.827 133.005  0.00  0.00    +0.000 C 
ATOM     69  C   UNL     1      -5.514  -5.089 131.702  0.00  0.00    +0.000 C 
ATOM     70  C   UNL     1      -5.860  -4.212 130.607  0.00  0.00    +0.000 C 
ATOM     71  O   UNL     1      -4.645  -3.906 129.888  0.00  0.00    +0.000 OA
ATOM     72  C   UNL     1      -4.574  -2.851 128.968  0.00  0.00    +0.000 C 
ATOM     73  C   UNL     1      -4.615  -1.515 129.161  0.00  0.00    +0.000 C 
ATOM     74  C   UNL     1      -5.150  -0.552 128.134  0.00  0.00    +0.000 C 
ATOM     75  N   UNL     1      -5.132   0.687 128.420  0.00  0.00    +0.000 N 
ATOM     76  C   UNL     1      -5.276   1.687 127.369  0.00  0.00    +0.000 C 
ATOM     77  C   UNL     1      -4.870   1.118 129.803  0.00  0.00    +0.000 C 
ATOM     78  C   UNL     1      -5.513  -1.003 126.807  0.00  0.00    +0.000 C 
ATOM     79  C   UNL     1      -5.433  -2.290 126.636  0.00  0.00    +0.000 C 
ATOM     80  C   UNL     1      -5.664  -3.068 128.029  0.00  0.00    +0.000 C 
BRANCH  68  81
ATOM     81  N   UNL     1      -5.113  -5.710 133.965  0.00  0.00    +0.000 N 
ATOM     82  C   UNL     1      -5.936  -6.070 135.108  0.00  0.00    +0.000 C 
ATOM     83  C   UNL     1      -3.809  -6.335 133.858  0.00  0.00    +0.000 C 
ENDBRANCH  68  81
ENDBRANCH  61  64
BRANCH  62  84
ATOM     84  C   UNL     1      -8.472   1.137 128.822  0.00  0.00    +0.000 C 
ATOM     85  O   UNL     1      -8.529   0.418 127.847  0.00  0.00    +0.000 OA
BRANCH  84  86
ATOM     86  O   UNL     1      -9.009   2.359 128.642  0.00  0.00    +0.000 OA
ATOM     87  H   UNL     1      -8.572   3.009 129.190  0.00  0.00    +0.000 HD
ENDBRANCH  84  86
ENDBRANCH  62  84
ENDBRANCH  55  58
ENDBRANCH  53  54
ENDBRANCH  52  53
ENDBRANCH  51  52
ENDBRANCH  42  51
ENDBRANCH  40  42
ENDBRANCH  37  38
ENDBRANCH  14  31
BRANCH   5  88
ATOM     88  C   UNL     1      -4.746   4.880 140.898  0.00  0.00    +0.000 A 
ATOM     89  C   UNL     1      -5.636   4.248 140.040  0.00  0.00    +0.000 A 
ATOM     90  C   UNL     1      -5.915   2.947 140.375  0.00  0.00    +0.000 A 
ATOM     91  C   UNL     1      -5.280   2.363 141.477  0.00  0.00    +0.000 A 
ATOM     92  C   UNL     1      -4.489   3.097 142.346  0.00  0.00    +0.000 A 
ATOM     93  C   UNL     1      -4.139   4.365 142.022  0.00  0.00    +0.000 A 
BRANCH  91  94
ATOM     94  O   UNL     1      -5.424   1.060 141.824  0.00  0.00    +0.000 OA
ATOM     95  H   UNL     1      -6.307   0.881 142.174  0.00  0.00    +0.000 HD
ENDBRANCH  91  94
ENDBRANCH   5  88
BRANCH   1  96
ATOM     96  C   UNL     1       2.642   5.870 138.463  0.00  0.00    +0.000 C 
ATOM     97  C   UNL     1       4.458   6.531 137.822  0.00  0.00    +0.000 C 
BRANCH  96  99
ATOM     98  C   UNL     1       3.555   3.055 137.642  0.00  0.00    +0.000 C 
ATOM     99  C   UNL     1       4.008   4.511 137.486  0.00  0.00    +0.000 C 
ENDBRANCH  96  99
ENDBRANCH   1  96
BRANCH   9 100
ATOM    100  O   UNL     1      -4.348   7.731 140.049  0.00  0.00    +0.000 OA
ATOM    101  H   UNL     1      -3.614   8.286 139.796  0.00  0.00    +0.000 HD
ENDBRANCH   9 100
BRANCH  18 102
ATOM    102  C   UNL     1      -2.971   6.942 134.657  0.00  0.00    +0.000 C 
BRANCH 102 103
ATOM    103  C   UNL     1      -3.319   5.479 135.388  0.00  0.00    +0.000 C 
ATOM    104  N   UNL     1      -2.556   4.153 134.183  0.00  0.00    +0.000 N 
ATOM    105  O   UNL     1      -3.684   5.296 136.499  0.00  0.00    +0.000 OA
ATOM    106  H   UNL     1      -2.394   4.619 133.150  0.00  0.00    +0.000 HD
ATOM    107  H   UNL     1      -2.414   3.238 134.257  0.00  0.00    +0.000 HD
ENDBRANCH 102 103
ENDBRANCH  18 102
BRANCH  22 108
ATOM    108  C   UNL     1       0.328   9.422 136.371  0.00  0.00    +0.000 C 
BRANCH 108 109
ATOM    109  C   UNL     1       0.734  10.797 136.016  0.00  0.00    +0.000 C 
BRANCH 109 110
ATOM    110  C   UNL     1      -0.223  11.958 135.606  0.00  0.00    +0.000 C 
ATOM    111  N   UNL     1       0.088  12.351 134.375  0.00  0.00    +0.000 N 
ATOM    112  O   UNL     1      -1.078  12.589 136.227  0.00  0.00    +0.000 OA
ATOM    113  H   UNL     1       0.958  12.071 133.952  0.00  0.00    +0.000 HD
ATOM    114  H   UNL     1      -0.371  13.203 134.092  0.00  0.00    +0.000 HD
ENDBRANCH 109 110
ENDBRANCH 108 109
ENDBRANCH  22 108
TORSDOF 25
ENDMDL
MODEL 6
REMARK VINA RESULT:      -8.5      4.127     10.316
REMARK  Name = CHEMBL1790723
REMARK  31 active torsions:
REMARK  status: ('A' for Active; 'I' for Inactive)
REMARK    1  A    between atoms: C_1  and  C_2
REMARK    2  A    between atoms: C_2  and  C_3
REMARK    3  A    between atoms: C_3  and  C_4
REMARK    4  A    between atoms: C_3  and  C_5
REMARK    5  A    between atoms: C_9  and  C_10
REMARK    6  A    between atoms: C_13  and  O_14
REMARK    7  A    between atoms: C_20  and  O_21
REMARK    8  A    between atoms: C_26  and  C_27
REMARK    9  A    between atoms: C_33  and  C_34
REMARK   10  A    between atoms: N_36  and  C_37
REMARK   11  A    between atoms: C_37  and  C_38
REMARK   12  A    between atoms: C_37  and  C_73
REMARK   13  A    between atoms: C_38  and  C_39
REMARK   14  A    between atoms: C_39  and  C_40
REMARK   15  A    between atoms: C_40  and  N_41
REMARK   16  A    between atoms: C_42  and  C_44
REMARK   17  A    between atoms: C_47  and  C_48
REMARK   18  A    between atoms: C_52  and  N_53
REMARK   19  A    between atoms: N_53  and  C_54
REMARK   20  A    between atoms: N_53  and  C_55
REMARK   21  A    between atoms: N_62  and  C_63
REMARK   22  A    between atoms: N_62  and  C_64
REMARK   23  A    between atoms: C_68  and  C_69
REMARK   24  A    between atoms: C_69  and  O_71
REMARK   25  A    between atoms: N_75  and  C_76
REMARK   26  A    between atoms: C_76  and  N_77
REMARK   27  A    between atoms: C_81  and  C_82
REMARK   28  A    between atoms: C_82  and  C_83
REMARK   29  A    between atoms: C_89  and  C_90
REMARK   30  A    between atoms: C_90  and  C_91
REMARK   31  A    between atoms: C_91  and  C_92
REMARK                            x       y       z     vdW  Elec       q    Type
REMARK                         _______ _______ _______ _____ _____    ______ ____
ROOT
ATOM      1  C   UNL     1       0.638   6.508 139.280  0.00  0.00    +0.000 C 
ATOM      2  N   UNL     1      -1.415   6.578 140.137  0.00  0.00    +0.000 N 
ATOM      3  C   UNL     1      -3.308   6.368 141.077  0.00  0.00    +0.000 C 
ATOM      4  O   UNL     1      -4.411   7.253 141.745  0.00  0.00    +0.000 OA
ATOM      5  C   UNL     1      -5.291   5.483 140.999  0.00  0.00    +0.000 C 
ATOM      6  N   UNL     1      -6.580   5.610 139.794  0.00  0.00    +0.000 N 
ATOM      7  C   UNL     1      -6.427   6.591 138.862  0.00  0.00    +0.000 C 
ATOM      8  O   UNL     1      -7.091   6.696 137.840  0.00  0.00    +0.000 OA
ATOM      9  C   UNL     1      -5.270   7.536 138.992  0.00  0.00    +0.000 C 
ATOM     10  C   UNL     1      -4.101   7.348 138.133  0.00  0.00    +0.000 C 
ATOM     11  S   UNL     1      -5.036   7.985 136.889  0.00  0.00    +0.000 S 
ATOM     12  S   UNL     1      -3.320   8.195 136.055  0.00  0.00    +0.000 S 
ATOM     13  C   UNL     1      -3.477   8.532 133.405  0.00  0.00    +0.000 C 
ATOM     14  C   UNL     1      -2.601   8.152 132.285  0.00  0.00    +0.000 C 
ATOM     15  N   UNL     1      -1.371   8.712 132.415  0.00  0.00    +0.000 N 
ATOM     16  C   UNL     1      -0.671   8.336 133.462  0.00  0.00    +0.000 C 
ATOM     17  O   UNL     1       0.554   8.594 133.368  0.00  0.00    +0.000 OA
ATOM     18  C   UNL     1      -1.439   7.767 135.031  0.00  0.00    +0.000 C 
ATOM     19  N   UNL     1      -0.274   6.758 136.051  0.00  0.00    +0.000 N 
ATOM     20  C   UNL     1       1.088   7.200 136.207  0.00  0.00    +0.000 C 
ATOM     21  O   UNL     1       2.060   6.463 136.127  0.00  0.00    +0.000 OA
ATOM     22  C   UNL     1       1.324   8.612 136.431  0.00  0.00    +0.000 C 
ATOM     23  N   UNL     1       1.627   8.650 137.859  0.00  0.00    +0.000 N 
ATOM     24  C   UNL     1       1.843   7.786 138.911  0.00  0.00    +0.000 C 
ATOM     25  O   UNL     1       2.902   7.925 139.546  0.00  0.00    +0.000 OA
ATOM     26  H   UNL     1      -2.264   6.722 141.247  0.00  0.00    +0.000 HD
ATOM     27  H   UNL     1      -7.431   4.970 139.553  0.00  0.00    +0.000 HD
ATOM     28  H   UNL     1      -1.277   9.712 132.244  0.00  0.00    +0.000 HD
ATOM     29  H   UNL     1      -0.267   5.692 135.797  0.00  0.00    +0.000 HD
ATOM     30  H   UNL     1       0.852   9.055 138.308  0.00  0.00    +0.000 HD
ENDROOT
BRANCH  14  31
ATOM     31  C   UNL     1      -2.174   6.662 131.950  0.00  0.00    +0.000 C 
ATOM     32  O   UNL     1      -1.343   6.122 132.681  0.00  0.00    +0.000 OA
ATOM     33  N   UNL     1      -2.380   6.198 130.571  0.00  0.00    +0.000 N 
ATOM     34  C   UNL     1      -1.914   6.605 129.346  0.00  0.00    +0.000 C 
ATOM     35  C   UNL     1      -3.050   6.361 128.408  0.00  0.00    +0.000 C 
ATOM     36  C   UNL     1      -2.988   4.978 128.530  0.00  0.00    +0.000 C 
ATOM     37  C   UNL     1      -2.648   4.942 130.010  0.00  0.00    +0.000 C 
BRANCH  37  38
ATOM     38  C   UNL     1      -3.849   4.536 130.670  0.00  0.00    +0.000 C 
ATOM     39  O   UNL     1      -3.652   3.475 131.253  0.00  0.00    +0.000 OA
ATOM     40  N   UNL     1      -5.017   5.281 130.603  0.00  0.00    +0.000 N 
ATOM     41  H   UNL     1      -5.130   6.094 129.975  0.00  0.00    +0.000 HD
BRANCH  40  42
ATOM     42  C   UNL     1      -6.206   4.934 131.409  0.00  0.00    +0.000 C 
BRANCH  42  43
ATOM     43  C   UNL     1      -7.491   4.765 130.528  0.00  0.00    +0.000 C 
ATOM     44  O   UNL     1      -7.832   5.689 129.785  0.00  0.00    +0.000 OA
ATOM     45  N   UNL     1      -8.216   3.567 130.600  0.00  0.00    +0.000 N 
ATOM     46  H   UNL     1      -7.946   2.811 131.216  0.00  0.00    +0.000 HD
BRANCH  45  47
ATOM     47  C   UNL     1      -9.417   3.382 129.807  0.00  0.00    +0.000 C 
BRANCH  47  48
ATOM     48  N   UNL     1     -10.350   4.466 130.053  0.00  0.00    +0.000 NA
ATOM     49  H   UNL     1     -11.300   4.108 130.124  0.00  0.00    +0.000 HD
ATOM     50  H   UNL     1     -10.359   5.092 129.233  0.00  0.00    +0.000 HD
ENDBRANCH  47  48
ENDBRANCH  45  47
ENDBRANCH  42  43
BRANCH  42  51
ATOM     51  C   UNL     1      -6.444   6.019 132.451  0.00  0.00    +0.000 C 
BRANCH  51  52
ATOM     52  C   UNL     1      -7.637   5.722 133.331  0.00  0.00    +0.000 C 
BRANCH  52  53
ATOM     53  C   UNL     1      -7.347   4.884 134.521  0.00  0.00    +0.000 C 
BRANCH  53  54
ATOM     54  N   UNL     1      -7.526   3.455 134.258  0.00  0.00    +0.000 N 
ATOM     55  C   UNL     1      -6.413   2.636 134.141  0.00  0.00    +0.000 C 
ATOM     56  O   UNL     1      -5.263   3.050 134.233  0.00  0.00    +0.000 OA
ATOM     57  H   UNL     1      -8.479   3.113 134.178  0.00  0.00    +0.000 HD
BRANCH  55  58
ATOM     58  C   UNL     1      -6.610   1.177 133.890  0.00  0.00    +0.000 A 
ATOM     59  C   UNL     1      -6.056   0.195 134.704  0.00  0.00    +0.000 A 
ATOM     60  C   UNL     1      -6.042  -1.215 134.325  0.00  0.00    +0.000 A 
ATOM     61  C   UNL     1      -6.707  -1.837 133.275  0.00  0.00    +0.000 A 
ATOM     62  C   UNL     1      -7.237  -0.644 132.376  0.00  0.00    +0.000 A 
ATOM     63  C   UNL     1      -7.234   0.737 132.750  0.00  0.00    +0.000 A 
BRANCH  61  64
ATOM     64  C   UNL     1      -6.757  -3.702 133.269  0.00  0.00    +0.000 C 
ATOM     65  C   UNL     1      -6.717  -3.734 134.683  0.00  0.00    +0.000 C 
ATOM     66  C   UNL     1      -6.182  -3.033 135.890  0.00  0.00    +0.000 C 
ATOM     67  C   UNL     1      -6.514  -3.222 137.187  0.00  0.00    +0.000 C 
ATOM     68  C   UNL     1      -6.727  -4.560 137.544  0.00  0.00    +0.000 C 
ATOM     69  C   UNL     1      -6.740  -5.381 136.499  0.00  0.00    +0.000 C 
ATOM     70  C   UNL     1      -6.680  -5.054 135.093  0.00  0.00    +0.000 C 
ATOM     71  O   UNL     1      -5.389  -5.472 134.599  0.00  0.00    +0.000 OA
ATOM     72  C   UNL     1      -4.889  -5.032 133.366  0.00  0.00    +0.000 C 
ATOM     73  C   UNL     1      -4.473  -3.809 132.974  0.00  0.00    +0.000 C 
ATOM     74  C   UNL     1      -4.563  -3.326 131.551  0.00  0.00    +0.000 C 
ATOM     75  N   UNL     1      -4.132  -2.157 131.295  0.00  0.00    +0.000 N 
ATOM     76  C   UNL     1      -3.843  -1.764 129.921  0.00  0.00    +0.000 C 
ATOM     77  C   UNL     1      -3.831  -1.228 132.396  0.00  0.00    +0.000 C 
ATOM     78  C   UNL     1      -4.970  -4.217 130.485  0.00  0.00    +0.000 C 
ATOM     79  C   UNL     1      -5.335  -5.400 130.884  0.00  0.00    +0.000 C 
ATOM     80  C   UNL     1      -5.919  -5.343 132.385  0.00  0.00    +0.000 C 
BRANCH  68  81
ATOM     81  N   UNL     1      -6.739  -4.966 138.844  0.00  0.00    +0.000 N 
ATOM     82  C   UNL     1      -7.303  -4.178 139.927  0.00  0.00    +0.000 C 
ATOM     83  C   UNL     1      -6.161  -6.252 139.183  0.00  0.00    +0.000 C 
ENDBRANCH  68  81
ENDBRANCH  61  64
BRANCH  62  84
ATOM     84  C   UNL     1      -7.572  -0.640 130.850  0.00  0.00    +0.000 C 
ATOM     85  O   UNL     1      -7.610  -1.696 130.255  0.00  0.00    +0.000 OA
BRANCH  84  86
ATOM     86  O   UNL     1      -8.079   0.402 130.163  0.00  0.00    +0.000 OA
ATOM     87  H   UNL     1      -7.572   0.567 129.369  0.00  0.00    +0.000 HD
ENDBRANCH  84  86
ENDBRANCH  62  84
ENDBRANCH  55  58
ENDBRANCH  53  54
ENDBRANCH  52  53
ENDBRANCH  51  52
ENDBRANCH  42  51
ENDBRANCH  40  42
ENDBRANCH  37  38
ENDBRANCH  14  31
BRANCH   5  88
ATOM     88  C   UNL     1      -4.515   4.367 140.635  0.00  0.00    +0.000 A 
ATOM     89  C   UNL     1      -5.274   3.770 139.638  0.00  0.00    +0.000 A 
ATOM     90  C   UNL     1      -5.496   2.429 139.825  0.00  0.00    +0.000 A 
ATOM     91  C   UNL     1      -4.932   1.780 140.929  0.00  0.00    +0.000 A 
ATOM     92  C   UNL     1      -4.280   2.472 141.937  0.00  0.00    +0.000 A 
ATOM     93  C   UNL     1      -3.986   3.783 141.764  0.00  0.00    +0.000 A 
BRANCH  91  94
ATOM     94  O   UNL     1      -5.021   0.444 141.142  0.00  0.00    +0.000 OA
ATOM     95  H   UNL     1      -5.796   0.065 140.705  0.00  0.00    +0.000 HD
ENDBRANCH  91  94
ENDBRANCH   5  88
BRANCH   1  96
ATOM     96  C   UNL     1       2.743   6.111 138.233  0.00  0.00    +0.000 C 
ATOM     97  C   UNL     1       4.456   6.969 137.544  0.00  0.00    +0.000 C 
BRANCH  96  99
ATOM     98  C   UNL     1       4.010   3.407 137.516  0.00  0.00    +0.000 C 
ATOM     99  C   UNL     1       4.252   4.900 137.271  0.00  0.00    +0.000 C 
ENDBRANCH  96  99
ENDBRANCH   1  96
BRANCH   9 100
ATOM    100  O   UNL     1      -4.386   7.266 139.872  0.00  0.00    +0.000 OA
ATOM    101  H   UNL     1      -4.734   6.450 140.224  0.00  0.00    +0.000 HD
ENDBRANCH   9 100
BRANCH  18 102
ATOM    102  C   UNL     1      -2.955   6.770 134.459  0.00  0.00    +0.000 C 
BRANCH 102 103
ATOM    103  C   UNL     1      -3.182   5.273 135.171  0.00  0.00    +0.000 C 
ATOM    104  N   UNL     1      -2.571   4.009 133.820  0.00  0.00    +0.000 N 
ATOM    105  O   UNL     1      -3.391   5.041 136.312  0.00  0.00    +0.000 OA
ATOM    106  H   UNL     1      -2.555   4.517 132.795  0.00  0.00    +0.000 HD
ATOM    107  H   UNL     1      -2.408   3.095 133.837  0.00  0.00    +0.000 HD
ENDBRANCH 102 103
ENDBRANCH  18 102
BRANCH  22 108
ATOM    108  C   UNL     1       0.104   9.493 136.247  0.00  0.00    +0.000 C 
BRANCH 108 109
ATOM    109  C   UNL     1       0.380  10.916 135.963  0.00  0.00    +0.000 C 
BRANCH 109 110
ATOM    110  C   UNL     1       1.624  11.473 135.203  0.00  0.00    +0.000 C 
ATOM    111  N   UNL     1       1.355  11.492 133.902  0.00  0.00    +0.000 N 
ATOM    112  O   UNL     1       2.759  11.773 135.574  0.00  0.00    +0.000 OA
ATOM    113  H   UNL     1       0.565  10.986 133.534  0.00  0.00    +0.000 HD
ATOM    114  H   UNL     1       2.158  11.685 133.324  0.00  0.00    +0.000 HD
ENDBRANCH 109 110
ENDBRANCH 108 109
ENDBRANCH  22 108
TORSDOF 25
ENDMDL
MODEL 7
REMARK VINA RESULT:      -8.4      4.031     10.638
REMARK  Name = CHEMBL1790723
REMARK  31 active torsions:
REMARK  status: ('A' for Active; 'I' for Inactive)
REMARK    1  A    between atoms: C_1  and  C_2
REMARK    2  A    between atoms: C_2  and  C_3
REMARK    3  A    between atoms: C_3  and  C_4
REMARK    4  A    between atoms: C_3  and  C_5
REMARK    5  A    between atoms: C_9  and  C_10
REMARK    6  A    between atoms: C_13  and  O_14
REMARK    7  A    between atoms: C_20  and  O_21
REMARK    8  A    between atoms: C_26  and  C_27
REMARK    9  A    between atoms: C_33  and  C_34
REMARK   10  A    between atoms: N_36  and  C_37
REMARK   11  A    between atoms: C_37  and  C_38
REMARK   12  A    between atoms: C_37  and  C_73
REMARK   13  A    between atoms: C_38  and  C_39
REMARK   14  A    between atoms: C_39  and  C_40
REMARK   15  A    between atoms: C_40  and  N_41
REMARK   16  A    between atoms: C_42  and  C_44
REMARK   17  A    between atoms: C_47  and  C_48
REMARK   18  A    between atoms: C_52  and  N_53
REMARK   19  A    between atoms: N_53  and  C_54
REMARK   20  A    between atoms: N_53  and  C_55
REMARK   21  A    between atoms: N_62  and  C_63
REMARK   22  A    between atoms: N_62  and  C_64
REMARK   23  A    between atoms: C_68  and  C_69
REMARK   24  A    between atoms: C_69  and  O_71
REMARK   25  A    between atoms: N_75  and  C_76
REMARK   26  A    between atoms: C_76  and  N_77
REMARK   27  A    between atoms: C_81  and  C_82
REMARK   28  A    between atoms: C_82  and  C_83
REMARK   29  A    between atoms: C_89  and  C_90
REMARK   30  A    between atoms: C_90  and  C_91
REMARK   31  A    between atoms: C_91  and  C_92
REMARK                            x       y       z     vdW  Elec       q    Type
REMARK                         _______ _______ _______ _____ _____    ______ ____
ROOT
ATOM      1  C   UNL     1       0.673   6.571 139.467  0.00  0.00    +0.000 C 
ATOM      2  N   UNL     1      -1.365   6.829 140.324  0.00  0.00    +0.000 N 
ATOM      3  C   UNL     1      -3.265   6.798 141.273  0.00  0.00    +0.000 C 
ATOM      4  O   UNL     1      -4.293   7.789 141.911  0.00  0.00    +0.000 OA
ATOM      5  C   UNL     1      -5.310   6.066 141.229  0.00  0.00    +0.000 C 
ATOM      6  N   UNL     1      -6.590   6.249 140.022  0.00  0.00    +0.000 N 
ATOM      7  C   UNL     1      -6.366   7.182 139.056  0.00  0.00    +0.000 C 
ATOM      8  O   UNL     1      -7.024   7.301 138.032  0.00  0.00    +0.000 OA
ATOM      9  C   UNL     1      -5.139   8.039 139.150  0.00  0.00    +0.000 C 
ATOM     10  C   UNL     1      -3.992   7.731 138.297  0.00  0.00    +0.000 C 
ATOM     11  S   UNL     1      -4.881   8.394 137.032  0.00  0.00    +0.000 S 
ATOM     12  S   UNL     1      -3.157   8.442 136.189  0.00  0.00    +0.000 S 
ATOM     13  C   UNL     1      -3.299   8.695 133.529  0.00  0.00    +0.000 C 
ATOM     14  C   UNL     1      -2.459   8.210 132.422  0.00  0.00    +0.000 C 
ATOM     15  N   UNL     1      -1.190   8.678 132.531  0.00  0.00    +0.000 N 
ATOM     16  C   UNL     1      -0.516   8.287 133.589  0.00  0.00    +0.000 C 
ATOM     17  O   UNL     1       0.724   8.447 133.485  0.00  0.00    +0.000 OA
ATOM     18  C   UNL     1      -1.319   7.834 135.179  0.00  0.00    +0.000 C 
ATOM     19  N   UNL     1      -0.231   6.775 136.232  0.00  0.00    +0.000 N 
ATOM     20  C   UNL     1       1.162   7.117 136.370  0.00  0.00    +0.000 C 
ATOM     21  O   UNL     1       2.074   6.305 136.316  0.00  0.00    +0.000 OA
ATOM     22  C   UNL     1       1.507   8.513 136.544  0.00  0.00    +0.000 C 
ATOM     23  N   UNL     1       1.818   8.579 137.969  0.00  0.00    +0.000 N 
ATOM     24  C   UNL     1       1.971   7.739 139.050  0.00  0.00    +0.000 C 
ATOM     25  O   UNL     1       3.040   7.819 139.679  0.00  0.00    +0.000 OA
ATOM     26  H   UNL     1      -2.196   7.077 141.429  0.00  0.00    +0.000 HD
ATOM     27  H   UNL     1      -7.489   5.668 139.805  0.00  0.00    +0.000 HD
ATOM     28  H   UNL     1      -1.020   9.661 132.324  0.00  0.00    +0.000 HD
ATOM     29  H   UNL     1      -0.306   5.704 136.017  0.00  0.00    +0.000 HD
ATOM     30  H   UNL     1       1.078   9.058 138.404  0.00  0.00    +0.000 HD
ENDROOT
BRANCH  14  31
ATOM     31  C   UNL     1      -2.149   6.681 132.140  0.00  0.00    +0.000 C 
ATOM     32  O   UNL     1      -1.391   6.094 132.912  0.00  0.00    +0.000 OA
ATOM     33  N   UNL     1      -2.349   6.197 130.766  0.00  0.00    +0.000 N 
ATOM     34  C   UNL     1      -1.813   6.529 129.548  0.00  0.00    +0.000 C 
ATOM     35  C   UNL     1      -2.935   6.355 128.579  0.00  0.00    +0.000 C 
ATOM     36  C   UNL     1      -2.993   4.975 128.738  0.00  0.00    +0.000 C 
ATOM     37  C   UNL     1      -2.705   4.952 130.229  0.00  0.00    +0.000 C 
BRANCH  37  38
ATOM     38  C   UNL     1      -3.957   4.667 130.859  0.00  0.00    +0.000 C 
ATOM     39  O   UNL     1      -3.886   3.583 131.427  0.00  0.00    +0.000 OA
ATOM     40  N   UNL     1      -5.038   5.533 130.781  0.00  0.00    +0.000 N 
ATOM     41  H   UNL     1      -5.049   6.362 130.164  0.00  0.00    +0.000 HD
BRANCH  40  42
ATOM     42  C   UNL     1      -6.273   5.302 131.556  0.00  0.00    +0.000 C 
BRANCH  42  43
ATOM     43  C   UNL     1      -7.518   6.004 130.911  0.00  0.00    +0.000 C 
ATOM     44  O   UNL     1      -7.472   7.216 130.689  0.00  0.00    +0.000 OA
ATOM     45  N   UNL     1      -8.648   5.236 130.598  0.00  0.00    +0.000 N 
ATOM     46  H   UNL     1      -8.694   4.243 130.789  0.00  0.00    +0.000 HD
BRANCH  45  47
ATOM     47  C   UNL     1      -9.822   5.855 130.011  0.00  0.00    +0.000 C 
BRANCH  47  48
ATOM     48  N   UNL     1      -9.609   6.087 128.594  0.00  0.00    +0.000 NA
ATOM     49  H   UNL     1     -10.040   5.348 128.044  0.00  0.00    +0.000 HD
ATOM     50  H   UNL     1      -8.599   6.018 128.392  0.00  0.00    +0.000 HD
ENDBRANCH  47  48
ENDBRANCH  45  47
ENDBRANCH  42  43
BRANCH  42  51
ATOM     51  C   UNL     1      -6.081   5.817 132.977  0.00  0.00    +0.000 C 
BRANCH  51  52
ATOM     52  C   UNL     1      -7.256   5.495 133.872  0.00  0.00    +0.000 C 
BRANCH  52  53
ATOM     53  C   UNL     1      -6.975   4.517 134.952  0.00  0.00    +0.000 C 
BRANCH  53  54
ATOM     54  N   UNL     1      -6.489   3.236 134.437  0.00  0.00    +0.000 N 
ATOM     55  C   UNL     1      -5.617   2.476 135.203  0.00  0.00    +0.000 C 
ATOM     56  O   UNL     1      -5.209   2.829 136.303  0.00  0.00    +0.000 OA
ATOM     57  H   UNL     1      -6.824   2.945 133.524  0.00  0.00    +0.000 HD
BRANCH  55  58
ATOM     58  C   UNL     1      -5.143   1.162 134.672  0.00  0.00    +0.000 A 
ATOM     59  C   UNL     1      -5.849   0.444 133.713  0.00  0.00    +0.000 A 
ATOM     60  C   UNL     1      -5.519  -0.939 133.377  0.00  0.00    +0.000 A 
ATOM     61  C   UNL     1      -4.406  -1.681 133.752  0.00  0.00    +0.000 A 
ATOM     62  C   UNL     1      -3.715  -0.817 134.888  0.00  0.00    +0.000 A 
ATOM     63  C   UNL     1      -4.054   0.534 135.219  0.00  0.00    +0.000 A 
BRANCH  61  64
ATOM     64  C   UNL     1      -4.112  -3.301 132.877  0.00  0.00    +0.000 C 
ATOM     65  C   UNL     1      -4.794  -2.834 131.728  0.00  0.00    +0.000 C 
ATOM     66  C   UNL     1      -5.913  -1.957 131.264  0.00  0.00    +0.000 C 
ATOM     67  C   UNL     1      -6.193  -1.551 130.005  0.00  0.00    +0.000 C 
ATOM     68  C   UNL     1      -5.994  -2.527 129.020  0.00  0.00    +0.000 C 
ATOM     69  C   UNL     1      -5.392  -3.618 129.484  0.00  0.00    +0.000 C 
ATOM     70  C   UNL     1      -4.840  -3.855 130.798  0.00  0.00    +0.000 C 
ATOM     71  O   UNL     1      -5.691  -4.813 131.465  0.00  0.00    +0.000 OA
ATOM     72  C   UNL     1      -5.620  -5.031 132.847  0.00  0.00    +0.000 C 
ATOM     73  C   UNL     1      -5.967  -4.233 133.880  0.00  0.00    +0.000 C 
ATOM     74  C   UNL     1      -5.296  -4.292 135.227  0.00  0.00    +0.000 C 
ATOM     75  N   UNL     1      -5.712  -3.498 136.129  0.00  0.00    +0.000 N 
ATOM     76  C   UNL     1      -5.385  -3.739 137.529  0.00  0.00    +0.000 C 
ATOM     77  C   UNL     1      -6.606  -2.385 135.772  0.00  0.00    +0.000 C 
ATOM     78  C   UNL     1      -4.330  -5.326 135.534  0.00  0.00    +0.000 C 
ATOM     79  C   UNL     1      -4.038  -6.102 134.533  0.00  0.00    +0.000 C 
ATOM     80  C   UNL     1      -4.224  -5.325 133.133  0.00  0.00    +0.000 C 
BRANCH  68  81
ATOM     81  N   UNL     1      -6.528  -2.412 127.773  0.00  0.00    +0.000 N 
ATOM     82  C   UNL     1      -5.731  -2.245 126.569  0.00  0.00    +0.000 C 
ATOM     83  C   UNL     1      -7.970  -2.458 127.620  0.00  0.00    +0.000 C 
ENDBRANCH  68  81
ENDBRANCH  61  64
BRANCH  62  84
ATOM     84  C   UNL     1      -2.786  -1.288 136.052  0.00  0.00    +0.000 C 
ATOM     85  O   UNL     1      -2.330  -2.412 136.019  0.00  0.00    +0.000 OA
BRANCH  84  86
ATOM     86  O   UNL     1      -2.221  -0.487 136.976  0.00  0.00    +0.000 OA
ATOM     87  H   UNL     1      -2.785   0.261 137.169  0.00  0.00    +0.000 HD
ENDBRANCH  84  86
ENDBRANCH  62  84
ENDBRANCH  55  58
ENDBRANCH  53  54
ENDBRANCH  52  53
ENDBRANCH  51  52
ENDBRANCH  42  51
ENDBRANCH  40  42
ENDBRANCH  37  38
ENDBRANCH  14  31
BRANCH   5  88
ATOM     88  C   UNL     1      -4.623   4.881 140.905  0.00  0.00    +0.000 A 
ATOM     89  C   UNL     1      -5.437   4.303 139.940  0.00  0.00    +0.000 A 
ATOM     90  C   UNL     1      -5.755   2.991 140.183  0.00  0.00    +0.000 A 
ATOM     91  C   UNL     1      -5.228   2.346 141.308  0.00  0.00    +0.000 A 
ATOM     92  C   UNL     1      -4.514   3.028 142.281  0.00  0.00    +0.000 A 
ATOM     93  C   UNL     1      -4.126   4.306 142.052  0.00  0.00    +0.000 A 
BRANCH  91  94
ATOM     94  O   UNL     1      -5.413   1.031 141.576  0.00  0.00    +0.000 OA
ATOM     95  H   UNL     1      -4.647   0.502 141.314  0.00  0.00    +0.000 HD
ENDBRANCH  91  94
ENDBRANCH   5  88
BRANCH   1  96
ATOM     96  C   UNL     1       2.737   5.977 138.432  0.00  0.00    +0.000 C 
ATOM     97  C   UNL     1       4.487   6.680 137.665  0.00  0.00    +0.000 C 
BRANCH  96  99
ATOM     98  C   UNL     1       3.763   3.154 137.793  0.00  0.00    +0.000 C 
ATOM     99  C   UNL     1       4.160   4.613 137.546  0.00  0.00    +0.000 C 
ENDBRANCH  96  99
ENDBRANCH   1  96
BRANCH   9 100
ATOM    100  O   UNL     1      -4.276   7.733 140.038  0.00  0.00    +0.000 OA
ATOM    101  H   UNL     1      -4.787   7.870 140.833  0.00  0.00    +0.000 HD
ENDBRANCH   9 100
BRANCH  18 102
ATOM    102  C   UNL     1      -2.909   6.937 134.645  0.00  0.00    +0.000 C 
BRANCH 102 103
ATOM    103  C   UNL     1      -3.262   5.502 135.429  0.00  0.00    +0.000 C 
ATOM    104  N   UNL     1      -2.985   4.138 134.067  0.00  0.00    +0.000 N 
ATOM    105  O   UNL     1      -3.374   5.325 136.593  0.00  0.00    +0.000 OA
ATOM    106  H   UNL     1      -3.012   4.618 133.029  0.00  0.00    +0.000 HD
ATOM    107  H   UNL     1      -2.950   3.210 134.099  0.00  0.00    +0.000 HD
ENDBRANCH 102 103
ENDBRANCH  18 102
BRANCH  22 108
ATOM    108  C   UNL     1       0.357   9.479 136.330  0.00  0.00    +0.000 C 
BRANCH 108 109
ATOM    109  C   UNL     1       0.738  10.845 135.919  0.00  0.00    +0.000 C 
BRANCH 109 110
ATOM    110  C   UNL     1      -0.098  11.793 135.003  0.00  0.00    +0.000 C 
ATOM    111  N   UNL     1      -0.902  12.524 135.767  0.00  0.00    +0.000 N 
ATOM    112  O   UNL     1      -0.200  11.888 133.780  0.00  0.00    +0.000 OA
ATOM    113  H   UNL     1      -1.063  12.273 136.729  0.00  0.00    +0.000 HD
ATOM    114  H   UNL     1      -1.591  13.046 135.249  0.00  0.00    +0.000 HD
ENDBRANCH 109 110
ENDBRANCH 108 109
ENDBRANCH  22 108
TORSDOF 25
ENDMDL
MODEL 8
REMARK VINA RESULT:      -8.3      2.794      7.095
REMARK  Name = CHEMBL1790723
REMARK  31 active torsions:
REMARK  status: ('A' for Active; 'I' for Inactive)
REMARK    1  A    between atoms: C_1  and  C_2
REMARK    2  A    between atoms: C_2  and  C_3
REMARK    3  A    between atoms: C_3  and  C_4
REMARK    4  A    between atoms: C_3  and  C_5
REMARK    5  A    between atoms: C_9  and  C_10
REMARK    6  A    between atoms: C_13  and  O_14
REMARK    7  A    between atoms: C_20  and  O_21
REMARK    8  A    between atoms: C_26  and  C_27
REMARK    9  A    between atoms: C_33  and  C_34
REMARK   10  A    between atoms: N_36  and  C_37
REMARK   11  A    between atoms: C_37  and  C_38
REMARK   12  A    between atoms: C_37  and  C_73
REMARK   13  A    between atoms: C_38  and  C_39
REMARK   14  A    between atoms: C_39  and  C_40
REMARK   15  A    between atoms: C_40  and  N_41
REMARK   16  A    between atoms: C_42  and  C_44
REMARK   17  A    between atoms: C_47  and  C_48
REMARK   18  A    between atoms: C_52  and  N_53
REMARK   19  A    between atoms: N_53  and  C_54
REMARK   20  A    between atoms: N_53  and  C_55
REMARK   21  A    between atoms: N_62  and  C_63
REMARK   22  A    between atoms: N_62  and  C_64
REMARK   23  A    between atoms: C_68  and  C_69
REMARK   24  A    between atoms: C_69  and  O_71
REMARK   25  A    between atoms: N_75  and  C_76
REMARK   26  A    between atoms: C_76  and  N_77
REMARK   27  A    between atoms: C_81  and  C_82
REMARK   28  A    between atoms: C_82  and  C_83
REMARK   29  A    between atoms: C_89  and  C_90
REMARK   30  A    between atoms: C_90  and  C_91
REMARK   31  A    between atoms: C_91  and  C_92
REMARK                            x       y       z     vdW  Elec       q    Type
REMARK                         _______ _______ _______ _____ _____    ______ ____
ROOT
ATOM      1  C   UNL     1      -1.956  -5.013 138.542  0.00  0.00    +0.000 C 
ATOM      2  N   UNL     1      -4.046  -5.365 137.861  0.00  0.00    +0.000 N 
ATOM      3  C   UNL     1      -5.917  -5.747 136.931  0.00  0.00    +0.000 C 
ATOM      4  O   UNL     1      -7.307  -6.380 137.267  0.00  0.00    +0.000 OA
ATOM      5  C   UNL     1      -7.539  -4.964 135.717  0.00  0.00    +0.000 C 
ATOM      6  N   UNL     1      -8.628  -3.592 135.966  0.00  0.00    +0.000 N 
ATOM      7  C   UNL     1      -8.626  -3.053 137.217  0.00  0.00    +0.000 C 
ATOM      8  O   UNL     1      -9.141  -1.985 137.520  0.00  0.00    +0.000 OA
ATOM      9  C   UNL     1      -7.812  -3.715 138.288  0.00  0.00    +0.000 C 
ATOM     10  C   UNL     1      -6.528  -3.127 138.668  0.00  0.00    +0.000 C 
ATOM     11  S   UNL     1      -7.419  -1.950 139.474  0.00  0.00    +0.000 S 
ATOM     12  S   UNL     1      -5.731  -1.626 140.329  0.00  0.00    +0.000 S 
ATOM     13  C   UNL     1      -5.600   0.768 141.516  0.00  0.00    +0.000 C 
ATOM     14  C   UNL     1      -4.502   1.721 141.748  0.00  0.00    +0.000 C 
ATOM     15  N   UNL     1      -3.511   1.157 142.483  0.00  0.00    +0.000 N 
ATOM     16  C   UNL     1      -2.889   0.138 141.933  0.00  0.00    +0.000 C 
ATOM     17  O   UNL     1      -1.786  -0.128 142.468  0.00  0.00    +0.000 OA
ATOM     18  C   UNL     1      -3.680  -0.975 140.704  0.00  0.00    +0.000 C 
ATOM     19  N   UNL     1      -2.435  -1.885 139.685  0.00  0.00    +0.000 N 
ATOM     20  C   UNL     1      -1.289  -2.470 140.334  0.00  0.00    +0.000 C 
ATOM     21  O   UNL     1      -0.148  -2.397 139.901  0.00  0.00    +0.000 OA
ATOM     22  C   UNL     1      -1.493  -3.149 141.596  0.00  0.00    +0.000 C 
ATOM     23  N   UNL     1      -1.418  -4.554 141.204  0.00  0.00    +0.000 N 
ATOM     24  C   UNL     1      -1.120  -5.323 140.100  0.00  0.00    +0.000 C 
ATOM     25  O   UNL     1      -0.244  -6.193 140.240  0.00  0.00    +0.000 OA
ATOM     26  H   UNL     1      -5.049  -6.246 137.424  0.00  0.00    +0.000 HD
ATOM     27  H   UNL     1      -9.222  -2.986 135.279  0.00  0.00    +0.000 HD
ATOM     28  H   UNL     1      -3.679   0.997 143.476  0.00  0.00    +0.000 HD
ATOM     29  H   UNL     1      -2.092  -1.335 138.802  0.00  0.00    +0.000 HD
ATOM     30  H   UNL     1      -2.331  -4.916 141.250  0.00  0.00    +0.000 HD
ENDROOT
BRANCH  14  31
ATOM     31  C   UNL     1      -3.631   2.378 140.598  0.00  0.00    +0.000 C 
ATOM     32  O   UNL     1      -2.584   1.816 140.275  0.00  0.00    +0.000 OA
ATOM     33  N   UNL     1      -3.828   3.811 140.340  0.00  0.00    +0.000 N 
ATOM     34  C   UNL     1      -3.682   4.947 141.096  0.00  0.00    +0.000 C 
ATOM     35  C   UNL     1      -4.767   5.858 140.626  0.00  0.00    +0.000 C 
ATOM     36  C   UNL     1      -4.217   6.028 139.361  0.00  0.00    +0.000 C 
ATOM     37  C   UNL     1      -3.711   4.606 139.191  0.00  0.00    +0.000 C 
BRANCH  37  38
ATOM     38  C   UNL     1      -4.610   3.985 138.269  0.00  0.00    +0.000 C 
ATOM     39  O   UNL     1      -5.575   3.541 138.881  0.00  0.00    +0.000 OA
ATOM     40  N   UNL     1      -4.350   3.929 136.907  0.00  0.00    +0.000 N 
ATOM     41  H   UNL     1      -3.444   4.211 136.497  0.00  0.00    +0.000 HD
BRANCH  40  42
ATOM     42  C   UNL     1      -5.351   3.422 135.947  0.00  0.00    +0.000 C 
BRANCH  42  43
ATOM     43  C   UNL     1      -4.785   2.261 135.059  0.00  0.00    +0.000 C 
ATOM     44  O   UNL     1      -3.573   2.216 134.834  0.00  0.00    +0.000 OA
ATOM     45  N   UNL     1      -5.669   1.300 134.548  0.00  0.00    +0.000 N 
ATOM     46  H   UNL     1      -6.666   1.339 134.721  0.00  0.00    +0.000 HD
BRANCH  45  47
ATOM     47  C   UNL     1      -5.181   0.218 133.713  0.00  0.00    +0.000 C 
BRANCH  47  48
ATOM     48  N   UNL     1      -4.362  -0.688 134.496  0.00  0.00    +0.000 NA
ATOM     49  H   UNL     1      -3.434  -0.772 134.089  0.00  0.00    +0.000 HD
ATOM     50  H   UNL     1      -4.766  -1.636 134.442  0.00  0.00    +0.000 HD
ENDBRANCH  47  48
ENDBRANCH  45  47
ENDBRANCH  42  43
BRANCH  42  51
ATOM     51  C   UNL     1      -5.817   4.564 135.053  0.00  0.00    +0.000 C 
BRANCH  51  52
ATOM     52  C   UNL     1      -7.179   5.088 135.447  0.00  0.00    +0.000 C 
BRANCH  52  53
ATOM     53  C   UNL     1      -8.329   4.326 134.899  0.00  0.00    +0.000 C 
BRANCH  53  54
ATOM     54  N   UNL     1      -8.296   4.233 133.439  0.00  0.00    +0.000 N 
ATOM     55  C   UNL     1      -8.261   2.986 132.833  0.00  0.00    +0.000 C 
ATOM     56  O   UNL     1      -8.242   1.934 133.463  0.00  0.00    +0.000 OA
ATOM     57  H   UNL     1      -8.308   5.104 132.918  0.00  0.00    +0.000 HD
BRANCH  55  58
ATOM     58  C   UNL     1      -8.245   2.905 131.341  0.00  0.00    +0.000 A 
ATOM     59  C   UNL     1      -7.620   1.870 130.654  0.00  0.00    +0.000 A 
ATOM     60  C   UNL     1      -7.394   1.917 129.212  0.00  0.00    +0.000 A 
ATOM     61  C   UNL     1      -7.899   2.821 128.284  0.00  0.00    +0.000 A 
ATOM     62  C   UNL     1      -8.522   3.986 129.160  0.00  0.00    +0.000 A 
ATOM     63  C   UNL     1      -8.729   3.935 130.576  0.00  0.00    +0.000 A 
BRANCH  61  64
ATOM     64  C   UNL     1      -7.700   2.405 126.477  0.00  0.00    +0.000 C 
ATOM     65  C   UNL     1      -7.909   1.031 126.744  0.00  0.00    +0.000 C 
ATOM     66  C   UNL     1      -7.694  -0.047 127.758  0.00  0.00    +0.000 C 
ATOM     67  C   UNL     1      -8.224  -1.290 127.786  0.00  0.00    +0.000 C 
ATOM     68  C   UNL     1      -8.318  -1.912 126.534  0.00  0.00    +0.000 C 
ATOM     69  C   UNL     1      -8.036  -1.093 125.525  0.00  0.00    +0.000 C 
ATOM     70  C   UNL     1      -7.771   0.327 125.562  0.00  0.00    +0.000 C 
ATOM     71  O   UNL     1      -6.368   0.519 125.275  0.00  0.00    +0.000 OA
ATOM     72  C   UNL     1      -5.720   1.735 125.529  0.00  0.00    +0.000 C 
ATOM     73  C   UNL     1      -5.406   2.333 126.698  0.00  0.00    +0.000 C 
ATOM     74  C   UNL     1      -5.305   3.828 126.856  0.00  0.00    +0.000 C 
ATOM     75  N   UNL     1      -4.993   4.281 128.003  0.00  0.00    +0.000 N 
ATOM     76  C   UNL     1      -4.519   5.652 128.148  0.00  0.00    +0.000 C 
ATOM     77  C   UNL     1      -5.019   3.392 129.176  0.00  0.00    +0.000 C 
ATOM     78  C   UNL     1      -5.394   4.707 125.709  0.00  0.00    +0.000 C 
ATOM     79  C   UNL     1      -5.664   4.103 124.590  0.00  0.00    +0.000 C 
ATOM     80  C   UNL     1      -6.508   2.756 124.855  0.00  0.00    +0.000 C 
BRANCH  68  81
ATOM     81  N   UNL     1      -8.507  -3.254 126.408  0.00  0.00    +0.000 N 
ATOM     82  C   UNL     1      -8.927  -4.113 127.502  0.00  0.00    +0.000 C 
ATOM     83  C   UNL     1      -8.281  -3.877 125.118  0.00  0.00    +0.000 C 
ENDBRANCH  68  81
ENDBRANCH  61  64
BRANCH  62  84
ATOM     84  C   UNL     1      -8.754   5.483 128.780  0.00  0.00    +0.000 C 
ATOM     85  O   UNL     1      -9.092   5.755 127.648  0.00  0.00    +0.000 OA
BRANCH  84  86
ATOM     86  O   UNL     1      -8.864   6.504 129.652  0.00  0.00    +0.000 OA
ATOM     87  H   UNL     1      -8.133   7.113 129.558  0.00  0.00    +0.000 HD
ENDBRANCH  84  86
ENDBRANCH  62  84
ENDBRANCH  55  58
ENDBRANCH  53  54
ENDBRANCH  52  53
ENDBRANCH  51  52
ENDBRANCH  42  51
ENDBRANCH  40  42
ENDBRANCH  37  38
ENDBRANCH  14  31
BRANCH   5  88
ATOM     88  C   UNL     1      -6.437  -4.471 134.993  0.00  0.00    +0.000 A 
ATOM     89  C   UNL     1      -6.928  -3.297 134.438  0.00  0.00    +0.000 A 
ATOM     90  C   UNL     1      -6.725  -3.184 133.086  0.00  0.00    +0.000 A 
ATOM     91  C   UNL     1      -6.033  -4.191 132.402  0.00  0.00    +0.000 A 
ATOM     92  C   UNL     1      -5.675  -5.383 133.012  0.00  0.00    +0.000 A 
ATOM     93  C   UNL     1      -5.801  -5.511 134.354  0.00  0.00    +0.000 A 
BRANCH  91  94
ATOM     94  O   UNL     1      -5.708  -4.120 131.088  0.00  0.00    +0.000 OA
ATOM     95  H   UNL     1      -5.324  -3.262 130.862  0.00  0.00    +0.000 HD
ENDBRANCH  91  94
ENDBRANCH   5  88
BRANCH   1  96
ATOM     96  C   UNL     1       0.302  -4.401 139.003  0.00  0.00    +0.000 C 
ATOM     97  C   UNL     1       1.872  -3.243 138.422  0.00  0.00    +0.000 C 
BRANCH  96  99
ATOM     98  C   UNL     1       2.005  -4.345 141.558  0.00  0.00    +0.000 C 
ATOM     99  C   UNL     1       2.188  -4.529 140.047  0.00  0.00    +0.000 C 
ENDBRANCH  96  99
ENDBRANCH   1  96
BRANCH   9 100
ATOM    100  O   UNL     1      -7.022  -4.651 137.931  0.00  0.00    +0.000 OA
ATOM    101  H   UNL     1      -6.225  -4.390 138.388  0.00  0.00    +0.000 HD
ENDBRANCH   9 100
BRANCH  18 102
ATOM    102  C   UNL     1      -4.758   0.194 139.659  0.00  0.00    +0.000 C 
BRANCH 102 103
ATOM    103  C   UNL     1      -4.561   0.117 138.000  0.00  0.00    +0.000 C 
ATOM    104  N   UNL     1      -2.761   0.801 137.704  0.00  0.00    +0.000 N 
ATOM    105  O   UNL     1      -5.230  -0.471 137.221  0.00  0.00    +0.000 OA
ATOM    106  H   UNL     1      -2.423   1.404 138.616  0.00  0.00    +0.000 HD
ATOM    107  H   UNL     1      -2.207   0.822 136.959  0.00  0.00    +0.000 HD
ENDBRANCH 102 103
ENDBRANCH  18 102
BRANCH  22 108
ATOM    108  C   UNL     1      -2.873  -2.964 142.197  0.00  0.00    +0.000 C 
BRANCH 108 109
ATOM    109  C   UNL     1      -3.406  -4.122 142.943  0.00  0.00    +0.000 C 
BRANCH 109 110
ATOM    110  C   UNL     1      -4.742  -4.870 142.644  0.00  0.00    +0.000 C 
ATOM    111  N   UNL     1      -4.846  -5.047 141.331  0.00  0.00    +0.000 N 
ATOM    112  O   UNL     1      -5.688  -5.199 143.359  0.00  0.00    +0.000 OA
ATOM    113  H   UNL     1      -4.251  -4.538 140.697  0.00  0.00    +0.000 HD
ATOM    114  H   UNL     1      -5.752  -5.376 141.036  0.00  0.00    +0.000 HD
ENDBRANCH 109 110
ENDBRANCH 108 109
ENDBRANCH  22 108
TORSDOF 25
ENDMDL
MODEL 9
REMARK VINA RESULT:      -8.3      4.947     10.873
REMARK  Name = CHEMBL1790723
REMARK  31 active torsions:
REMARK  status: ('A' for Active; 'I' for Inactive)
REMARK    1  A    between atoms: C_1  and  C_2
REMARK    2  A    between atoms: C_2  and  C_3
REMARK    3  A    between atoms: C_3  and  C_4
REMARK    4  A    between atoms: C_3  and  C_5
REMARK    5  A    between atoms: C_9  and  C_10
REMARK    6  A    between atoms: C_13  and  O_14
REMARK    7  A    between atoms: C_20  and  O_21
REMARK    8  A    between atoms: C_26  and  C_27
REMARK    9  A    between atoms: C_33  and  C_34
REMARK   10  A    between atoms: N_36  and  C_37
REMARK   11  A    between atoms: C_37  and  C_38
REMARK   12  A    between atoms: C_37  and  C_73
REMARK   13  A    between atoms: C_38  and  C_39
REMARK   14  A    between atoms: C_39  and  C_40
REMARK   15  A    between atoms: C_40  and  N_41
REMARK   16  A    between atoms: C_42  and  C_44
REMARK   17  A    between atoms: C_47  and  C_48
REMARK   18  A    between atoms: C_52  and  N_53
REMARK   19  A    between atoms: N_53  and  C_54
REMARK   20  A    between atoms: N_53  and  C_55
REMARK   21  A    between atoms: N_62  and  C_63
REMARK   22  A    between atoms: N_62  and  C_64
REMARK   23  A    between atoms: C_68  and  C_69
REMARK   24  A    between atoms: C_69  and  O_71
REMARK   25  A    between atoms: N_75  and  C_76
REMARK   26  A    between atoms: C_76  and  N_77
REMARK   27  A    between atoms: C_81  and  C_82
REMARK   28  A    between atoms: C_82  and  C_83
REMARK   29  A    between atoms: C_89  and  C_90
REMARK   30  A    between atoms: C_90  and  C_91
REMARK   31  A    between atoms: C_91  and  C_92
REMARK                            x       y       z     vdW  Elec       q    Type
REMARK                         _______ _______ _______ _____ _____    ______ ____
ROOT
ATOM      1  C   UNL     1      -0.523   8.535 142.022  0.00  0.00    +0.000 C 
ATOM      2  N   UNL     1      -2.680   9.087 142.012  0.00  0.00    +0.000 N 
ATOM      3  C   UNL     1      -4.780   9.360 142.174  0.00  0.00    +0.000 C 
ATOM      4  O   UNL     1      -5.828  10.518 142.249  0.00  0.00    +0.000 OA
ATOM      5  C   UNL     1      -6.750   8.790 141.457  0.00  0.00    +0.000 C 
ATOM      6  N   UNL     1      -7.474   8.868 139.845  0.00  0.00    +0.000 N 
ATOM      7  C   UNL     1      -6.796   9.608 138.925  0.00  0.00    +0.000 C 
ATOM      8  O   UNL     1      -7.020   9.606 137.723  0.00  0.00    +0.000 OA
ATOM      9  C   UNL     1      -5.583  10.372 139.365  0.00  0.00    +0.000 C 
ATOM     10  C   UNL     1      -4.258   9.841 139.051  0.00  0.00    +0.000 C 
ATOM     11  S   UNL     1      -4.536  10.350 137.473  0.00  0.00    +0.000 S 
ATOM     12  S   UNL     1      -2.634  10.126 137.340  0.00  0.00    +0.000 S 
ATOM     13  C   UNL     1      -1.775   9.946 134.812  0.00  0.00    +0.000 C 
ATOM     14  C   UNL     1      -0.665   9.221 134.172  0.00  0.00    +0.000 C 
ATOM     15  N   UNL     1       0.530   9.602 134.689  0.00  0.00    +0.000 N 
ATOM     16  C   UNL     1       0.720   9.341 135.964  0.00  0.00    +0.000 C 
ATOM     17  O   UNL     1       1.924   9.386 136.313  0.00  0.00    +0.000 OA
ATOM     18  C   UNL     1      -0.653   9.221 137.178  0.00  0.00    +0.000 C 
ATOM     19  N   UNL     1      -0.168   8.270 138.687  0.00  0.00    +0.000 N 
ATOM     20  C   UNL     1       1.115   8.523 139.294  0.00  0.00    +0.000 C 
ATOM     21  O   UNL     1       1.869   7.645 139.688  0.00  0.00    +0.000 OA
ATOM     22  C   UNL     1       1.556   9.897 139.408  0.00  0.00    +0.000 C 
ATOM     23  N   UNL     1       1.339  10.174 140.825  0.00  0.00    +0.000 N 
ATOM     24  C   UNL     1       0.980   9.515 141.981  0.00  0.00    +0.000 C 
ATOM     25  O   UNL     1       1.752   9.616 142.950  0.00  0.00    +0.000 OA
ATOM     26  H   UNL     1      -3.811   9.578 142.684  0.00  0.00    +0.000 HD
ATOM     27  H   UNL     1      -8.304   8.330 139.381  0.00  0.00    +0.000 HD
ATOM     28  H   UNL     1       0.892  10.521 134.440  0.00  0.00    +0.000 HD
ATOM     29  H   UNL     1      -0.302   7.187 138.595  0.00  0.00    +0.000 HD
ATOM     30  H   UNL     1       0.563  10.774 140.887  0.00  0.00    +0.000 HD
ENDROOT
BRANCH  14  31
ATOM     31  C   UNL     1      -0.480   7.647 134.220  0.00  0.00    +0.000 C 
ATOM     32  O   UNL     1       0.355   7.189 135.000  0.00  0.00    +0.000 OA
ATOM     33  N   UNL     1      -0.910   6.883 133.041  0.00  0.00    +0.000 N 
ATOM     34  C   UNL     1      -0.548   6.883 131.718  0.00  0.00    +0.000 C 
ATOM     35  C   UNL     1      -1.811   6.589 130.978  0.00  0.00    +0.000 C 
ATOM     36  C   UNL     1      -1.915   5.291 131.466  0.00  0.00    +0.000 C 
ATOM     37  C   UNL     1      -1.406   5.583 132.867  0.00  0.00    +0.000 C 
BRANCH  37  38
ATOM     38  C   UNL     1      -2.561   5.556 133.709  0.00  0.00    +0.000 C 
ATOM     39  O   UNL     1      -3.073   6.670 133.731  0.00  0.00    +0.000 OA
ATOM     40  N   UNL     1      -2.966   4.406 134.372  0.00  0.00    +0.000 N 
ATOM     41  H   UNL     1      -2.394   3.545 134.403  0.00  0.00    +0.000 HD
BRANCH  40  42
ATOM     42  C   UNL     1      -4.240   4.348 135.116  0.00  0.00    +0.000 C 
BRANCH  42  43
ATOM     43  C   UNL     1      -4.255   3.192 136.175  0.00  0.00    +0.000 C 
ATOM     44  O   UNL     1      -5.142   2.337 136.115  0.00  0.00    +0.000 OA
ATOM     45  N   UNL     1      -3.258   3.156 137.160  0.00  0.00    +0.000 N 
ATOM     46  H   UNL     1      -2.535   3.861 137.220  0.00  0.00    +0.000 HD
BRANCH  45  47
ATOM     47  C   UNL     1      -3.249   2.107 138.163  0.00  0.00    +0.000 C 
BRANCH  47  48
ATOM     48  N   UNL     1      -4.415   2.225 139.020  0.00  0.00    +0.000 NA
ATOM     49  H   UNL     1      -5.206   1.731 138.614  0.00  0.00    +0.000 HD
ATOM     50  H   UNL     1      -4.706   3.214 139.054  0.00  0.00    +0.000 HD
ENDBRANCH  47  48
ENDBRANCH  45  47
ENDBRANCH  42  43
BRANCH  42  51
ATOM     51  C   UNL     1      -5.389   4.152 134.136  0.00  0.00    +0.000 C 
BRANCH  51  52
ATOM     52  C   UNL     1      -6.150   5.432 133.875  0.00  0.00    +0.000 C 
BRANCH  52  53
ATOM     53  C   UNL     1      -6.139   5.895 132.464  0.00  0.00    +0.000 C 
BRANCH  53  54
ATOM     54  N   UNL     1      -6.116   4.785 131.510  0.00  0.00    +0.000 N 
ATOM     55  C   UNL     1      -5.582   4.980 130.245  0.00  0.00    +0.000 C 
ATOM     56  O   UNL     1      -5.130   6.055 129.866  0.00  0.00    +0.000 OA
ATOM     57  H   UNL     1      -6.495   3.896 131.823  0.00  0.00    +0.000 HD
BRANCH  55  58
ATOM     58  C   UNL     1      -5.549   3.834 129.287  0.00  0.00    +0.000 A 
ATOM     59  C   UNL     1      -6.357   3.781 128.156  0.00  0.00    +0.000 A 
ATOM     60  C   UNL     1      -6.503   2.565 127.360  0.00  0.00    +0.000 A 
ATOM     61  C   UNL     1      -5.770   1.387 127.435  0.00  0.00    +0.000 A 
ATOM     62  C   UNL     1      -4.945   1.515 128.782  0.00  0.00    +0.000 A 
ATOM     63  C   UNL     1      -4.817   2.708 129.563  0.00  0.00    +0.000 A 
BRANCH  61  64
ATOM     64  C   UNL     1      -5.977   0.152 126.052  0.00  0.00    +0.000 C 
ATOM     65  C   UNL     1      -6.316   1.186 125.146  0.00  0.00    +0.000 C 
ATOM     66  C   UNL     1      -6.990   2.515 125.031  0.00  0.00    +0.000 C 
ATOM     67  C   UNL     1      -6.965   3.381 123.993  0.00  0.00    +0.000 C 
ATOM     68  C   UNL     1      -7.017   2.778 122.729  0.00  0.00    +0.000 C 
ATOM     69  C   UNL     1      -6.899   1.455 122.780  0.00  0.00    +0.000 C 
ATOM     70  C   UNL     1      -6.618   0.616 123.923  0.00  0.00    +0.000 C 
ATOM     71  O   UNL     1      -7.823  -0.116 124.237  0.00  0.00    +0.000 OA
ATOM     72  C   UNL     1      -7.989  -0.781 125.459  0.00  0.00    +0.000 C 
ATOM     73  C   UNL     1      -8.142  -0.293 126.709  0.00  0.00    +0.000 C 
ATOM     74  C   UNL     1      -7.690  -1.031 127.941  0.00  0.00    +0.000 C 
ATOM     75  N   UNL     1      -7.894  -0.478 129.069  0.00  0.00    +0.000 N 
ATOM     76  C   UNL     1      -7.832  -1.264 130.295  0.00  0.00    +0.000 C 
ATOM     77  C   UNL     1      -8.288   0.938 129.132  0.00  0.00    +0.000 C 
ATOM     78  C   UNL     1      -7.196  -2.389 127.858  0.00  0.00    +0.000 C 
ATOM     79  C   UNL     1      -7.089  -2.848 126.647  0.00  0.00    +0.000 C 
ATOM     80  C   UNL     1      -6.829  -1.649 125.601  0.00  0.00    +0.000 C 
BRANCH  68  81
ATOM     81  N   UNL     1      -7.334   3.481 121.607  0.00  0.00    +0.000 N 
ATOM     82  C   UNL     1      -6.353   4.179 120.793  0.00  0.00    +0.000 C 
ATOM     83  C   UNL     1      -8.720   3.547 121.187  0.00  0.00    +0.000 C 
ENDBRANCH  68  81
ENDBRANCH  61  64
BRANCH  62  84
ATOM     84  C   UNL     1      -4.372   0.383 129.693  0.00  0.00    +0.000 C 
ATOM     85  O   UNL     1      -4.318   0.565 130.891  0.00  0.00    +0.000 OA
BRANCH  84  86
ATOM     86  O   UNL     1      -4.160  -0.893 129.316  0.00  0.00    +0.000 OA
ATOM     87  H   UNL     1      -4.347  -1.497 130.034  0.00  0.00    +0.000 HD
ENDBRANCH  84  86
ENDBRANCH  62  84
ENDBRANCH  55  58
ENDBRANCH  53  54
ENDBRANCH  52  53
ENDBRANCH  51  52
ENDBRANCH  42  51
ENDBRANCH  40  42
ENDBRANCH  37  38
ENDBRANCH  14  31
BRANCH   5  88
ATOM     88  C   UNL     1      -6.156   7.519 141.566  0.00  0.00    +0.000 A 
ATOM     89  C   UNL     1      -6.463   6.925 140.349  0.00  0.00    +0.000 A 
ATOM     90  C   UNL     1      -7.031   5.681 140.455  0.00  0.00    +0.000 A 
ATOM     91  C   UNL     1      -7.210   5.106 141.719  0.00  0.00    +0.000 A 
ATOM     92  C   UNL     1      -6.979   5.812 142.889  0.00  0.00    +0.000 A 
ATOM     93  C   UNL     1      -6.363   7.017 142.831  0.00  0.00    +0.000 A 
BRANCH  91  94
ATOM     94  O   UNL     1      -7.675   3.848 141.913  0.00  0.00    +0.000 OA
ATOM     95  H   UNL     1      -8.402   3.831 142.550  0.00  0.00    +0.000 HD
ENDBRANCH  91  94
ENDBRANCH   5  88
BRANCH   1  96
ATOM     96  C   UNL     1       1.677   7.622 141.921  0.00  0.00    +0.000 C 
ATOM     97  C   UNL     1       2.773   5.912 141.779  0.00  0.00    +0.000 C 
BRANCH  96  99
ATOM     98  C   UNL     1       4.352   9.054 141.447  0.00  0.00    +0.000 C 
ATOM     99  C   UNL     1       3.835   7.710 141.971  0.00  0.00    +0.000 C 
ENDBRANCH  96  99
ENDBRANCH   1  96
BRANCH   9 100
ATOM    100  O   UNL     1      -5.145  10.153 140.543  0.00  0.00    +0.000 OA
ATOM    101  H   UNL     1      -4.505  10.856 140.625  0.00  0.00    +0.000 HD
ENDBRANCH   9 100
BRANCH  18 102
ATOM    102  C   UNL     1      -2.049   8.372 136.203  0.00  0.00    +0.000 C 
BRANCH 102 103
ATOM    103  C   UNL     1      -2.771   7.046 136.924  0.00  0.00    +0.000 C 
ATOM    104  N   UNL     1      -4.645   7.191 136.412  0.00  0.00    +0.000 N 
ATOM    105  O   UNL     1      -2.237   6.099 137.390  0.00  0.00    +0.000 OA
ATOM    106  H   UNL     1      -4.873   8.262 136.083  0.00  0.00    +0.000 HD
ATOM    107  H   UNL     1      -5.368   6.612 136.490  0.00  0.00    +0.000 HD
ENDBRANCH 102 103
ENDBRANCH  18 102
BRANCH  22 108
ATOM    108  C   UNL     1       0.698  10.900 138.659  0.00  0.00    +0.000 C 
BRANCH 108 109
ATOM    109  C   UNL     1       0.617  12.246 139.260  0.00  0.00    +0.000 C 
BRANCH 109 110
ATOM    110  C   UNL     1      -0.378  13.375 138.848  0.00  0.00    +0.000 C 
ATOM    111  N   UNL     1      -0.550  13.331 137.531  0.00  0.00    +0.000 N 
ATOM    112  O   UNL     1      -0.901  14.293 139.481  0.00  0.00    +0.000 OA
ATOM    113  H   UNL     1       0.078  12.800 136.950  0.00  0.00    +0.000 HD
ATOM    114  H   UNL     1      -1.049  14.125 137.161  0.00  0.00    +0.000 HD
ENDBRANCH 109 110
ENDBRANCH 108 109
ENDBRANCH  22 108
TORSDOF 25
ENDMDL
