MODEL 1
REMARK VINA RESULT:     -10.8      0.000      0.000
REMARK  Name = CHEMBL1790575
REMARK  21 active torsions:
REMARK  status: ('A' for Active; 'I' for Inactive)
REMARK    1  A    between atoms: C_1  and  C_2
REMARK    2  A    between atoms: C_2  and  C_3
REMARK    3  A    between atoms: C_3  and  C_4
REMARK    4  A    between atoms: C_3  and  C_5
REMARK    5  A    between atoms: C_9  and  C_10
REMARK    6  A    between atoms: C_10  and  C_11
REMARK    7  A    between atoms: C_20  and  C_21
REMARK    8  A    between atoms: C_21  and  C_22
REMARK    9  A    between atoms: C_25  and  O_26
REMARK   10  A    between atoms: C_37  and  C_38
REMARK   11  A    between atoms: C_44  and  C_45
REMARK   12  A    between atoms: N_47  and  C_48
REMARK   13  A    between atoms: C_48  and  C_49
REMARK   14  A    between atoms: C_48  and  C_56
REMARK   15  A    between atoms: C_49  and  C_50
REMARK   16  A    between atoms: C_50  and  C_51
REMARK   17  A    between atoms: C_51  and  N_52
REMARK   18  A    between atoms: N_58  and  C_59
REMARK   19  A    between atoms: C_59  and  C_60
REMARK   20  A    between atoms: C_66  and  C_67
REMARK   21  A    between atoms: C_67  and  C_68
REMARK                            x       y       z     vdW  Elec       q    Type
REMARK                         _______ _______ _______ _____ _____    ______ ____
ROOT
ATOM      1  C   UNL     1      -4.736   3.288 135.816  0.00  0.00    +0.000 C 
ATOM      2  N   UNL     1      -3.661   1.953 136.648  0.00  0.00    +0.000 N 
ATOM      3  C   UNL     1      -3.642   0.331 137.099  0.00  0.00    +0.000 C 
ATOM      4  O   UNL     1      -2.727  -0.517 137.089  0.00  0.00    +0.000 OA
ATOM      5  C   UNL     1      -4.914  -0.251 137.622  0.00  0.00    +0.000 C 
ATOM      6  N   UNL     1      -6.186  -0.742 136.977  0.00  0.00    +0.000 N 
ATOM      7  C   UNL     1      -6.293  -1.915 136.241  0.00  0.00    +0.000 C 
ATOM      8  O   UNL     1      -7.425  -2.055 135.756  0.00  0.00    +0.000 OA
ATOM      9  C   UNL     1      -4.823  -2.823 135.879  0.00  0.00    +0.000 C 
ATOM     10  N   UNL     1      -5.163  -4.111 136.267  0.00  0.00    +0.000 N 
ATOM     11  C   UNL     1      -5.967  -4.910 135.537  0.00  0.00    +0.000 C 
ATOM     12  O   UNL     1      -6.184  -6.034 135.987  0.00  0.00    +0.000 OA
ATOM     13  C   UNL     1      -6.618  -4.475 134.221  0.00  0.00    +0.000 C 
ATOM     14  C   UNL     1      -6.368  -3.166 133.554  0.00  0.00    +0.000 C 
ATOM     15  S   UNL     1      -7.523  -2.886 132.311  0.00  0.00    +0.000 S 
ATOM     16  S   UNL     1      -7.405  -0.540 132.568  0.00  0.00    +0.000 S 
ATOM     17  C   UNL     1      -7.390   0.705 130.456  0.00  0.00    +0.000 C 
ATOM     18  C   UNL     1      -6.588   1.970 129.755  0.00  0.00    +0.000 C 
ATOM     19  N   UNL     1      -6.946   3.010 130.666  0.00  0.00    +0.000 N 
ATOM     20  C   UNL     1      -7.057   2.511 131.896  0.00  0.00    +0.000 C 
ATOM     21  O   UNL     1      -7.942   2.878 132.644  0.00  0.00    +0.000 OA
ATOM     22  C   UNL     1      -5.886   1.571 132.024  0.00  0.00    +0.000 C 
ATOM     23  N   UNL     1      -4.648   2.789 132.718  0.00  0.00    +0.000 N 
ATOM     24  C   UNL     1      -4.209   3.556 134.230  0.00  0.00    +0.000 C 
ATOM     25  O   UNL     1      -3.024   3.954 134.470  0.00  0.00    +0.000 OA
ATOM     26  H   UNL     1      -2.691   2.093 136.312  0.00  0.00    +0.000 HD
ATOM     27  H   UNL     1      -6.940  -0.172 136.540  0.00  0.00    +0.000 HD
ATOM     28  H   UNL     1      -4.686  -4.450 137.089  0.00  0.00    +0.000 HD
ATOM     29  H   UNL     1      -7.767   3.580 130.635  0.00  0.00    +0.000 HD
ATOM     30  H   UNL     1      -3.864   2.707 132.064  0.00  0.00    +0.000 HD
ENDROOT
BRANCH  18  31
ATOM     31  C   UNL     1      -4.901   1.861 129.363  0.00  0.00    +0.000 C 
ATOM     32  O   UNL     1      -4.575   0.780 128.840  0.00  0.00    +0.000 OA
ATOM     33  N   UNL     1      -4.056   3.028 129.165  0.00  0.00    +0.000 N 
ATOM     34  C   UNL     1      -4.045   4.312 129.810  0.00  0.00    +0.000 C 
ATOM     35  C   UNL     1      -3.824   5.439 128.782  0.00  0.00    +0.000 C 
ATOM     36  C   UNL     1      -2.901   4.826 127.800  0.00  0.00    +0.000 C 
ATOM     37  C   UNL     1      -3.173   3.260 128.023  0.00  0.00    +0.000 C 
BRANCH  37  38
ATOM     38  C   UNL     1      -3.735   3.194 126.737  0.00  0.00    +0.000 C 
ATOM     39  O   UNL     1      -2.825   3.444 125.911  0.00  0.00    +0.000 OA
ATOM     40  N   UNL     1      -5.012   2.560 126.646  0.00  0.00    +0.000 N 
ATOM     41  H   UNL     1      -5.254   1.966 127.410  0.00  0.00    +0.000 HD
BRANCH  40  42
ATOM     42  C   UNL     1      -6.066   2.458 125.336  0.00  0.00    +0.000 C 
BRANCH  42  43
ATOM     43  C   UNL     1      -6.839   0.685 124.520  0.00  0.00    +0.000 C 
ATOM     44  O   UNL     1      -6.184  -0.390 124.472  0.00  0.00    +0.000 OA
ATOM     45  N   UNL     1      -7.968   0.353 123.736  0.00  0.00    +0.000 N 
ATOM     46  H   UNL     1      -7.815   0.938 122.949  0.00  0.00    +0.000 HD
BRANCH  45  47
ATOM     47  C   UNL     1      -8.148  -1.088 123.142  0.00  0.00    +0.000 C 
BRANCH  47  48
ATOM     48  C   UNL     1      -8.768  -2.522 123.766  0.00  0.00    +0.000 C 
ATOM     49  N   UNL     1      -7.902  -2.984 124.643  0.00  0.00    +0.000 N 
ATOM     50  O   UNL     1      -9.819  -3.127 123.660  0.00  0.00    +0.000 OA
ATOM     51  H   UNL     1      -7.135  -2.355 124.543  0.00  0.00    +0.000 HD
ATOM     52  H   UNL     1      -8.099  -3.514 125.499  0.00  0.00    +0.000 HD
ENDBRANCH  47  48
ENDBRANCH  45  47
ENDBRANCH  42  43
BRANCH  42  53
ATOM     53  C   UNL     1      -5.682   4.063 123.850  0.00  0.00    +0.000 C 
BRANCH  53  54
ATOM     54  C   UNL     1      -5.560   4.011 122.386  0.00  0.00    +0.000 C 
BRANCH  54  55
ATOM     55  C   UNL     1      -6.797   3.419 122.020  0.00  0.00    +0.000 C 
BRANCH  55  56
ATOM     56  N   UNL     1      -6.512   3.866 120.731  0.00  0.00    +0.000 NA
ATOM     57  C   UNL     1      -7.555   4.103 120.107  0.00  0.00    +0.000 C 
ATOM     58  N   UNL     1      -8.753   3.909 120.629  0.00  0.00    +0.000 N 
ATOM     59  N   UNL     1      -7.301   4.575 118.914  0.00  0.00    +0.000 N 
ATOM     60  H   UNL     1      -8.828   3.512 121.565  0.00  0.00    +0.000 HD
ATOM     61  H   UNL     1      -9.584   4.098 120.140  0.00  0.00    +0.000 HD
ATOM     62  H   UNL     1      -6.312   4.665 118.679  0.00  0.00    +0.000 HD
ATOM     63  H   UNL     1      -8.023   4.835 118.295  0.00  0.00    +0.000 HD
ENDBRANCH  55  56
ENDBRANCH  54  55
ENDBRANCH  53  54
ENDBRANCH  42  53
ENDBRANCH  40  42
ENDBRANCH  37  38
ENDBRANCH  18  31
BRANCH   1  64
ATOM     64  C   UNL     1      -6.057   4.222 136.157  0.00  0.00    +0.000 C 
ATOM     65  C   UNL     1      -7.298   4.917 134.992  0.00  0.00    +0.000 C 
BRANCH  64  67
ATOM     66  C   UNL     1      -5.881   5.200 138.201  0.00  0.00    +0.000 C 
ATOM     67  C   UNL     1      -5.347   5.282 136.821  0.00  0.00    +0.000 C 
ENDBRANCH  64  67
ENDBRANCH   1  64
BRANCH   9  68
ATOM     68  C   UNL     1      -3.904  -2.953 134.576  0.00  0.00    +0.000 C 
BRANCH  68  69
ATOM     69  C   UNL     1      -2.558  -3.096 135.089  0.00  0.00    +0.000 A 
ATOM     70  C   UNL     1      -1.426  -2.260 134.561  0.00  0.00    +0.000 A 
ATOM     71  C   UNL     1       0.273  -2.197 135.360  0.00  0.00    +0.000 A 
ATOM     72  C   UNL     1       0.682  -3.112 136.828  0.00  0.00    +0.000 A 
ATOM     73  C   UNL     1      -0.550  -3.857 137.348  0.00  0.00    +0.000 A 
ATOM     74  C   UNL     1      -2.152  -3.953 136.327  0.00  0.00    +0.000 A 
BRANCH  72  75
ATOM     75  O   UNL     1       1.827  -3.481 137.462  0.00  0.00    +0.000 OA
ATOM     76  H   UNL     1       1.774  -3.328 138.429  0.00  0.00    +0.000 HD
ENDBRANCH  72  75
ENDBRANCH  68  69
ENDBRANCH   9  68
BRANCH   5  77
ATOM     77  C   UNL     1      -5.047   1.001 138.368  0.00  0.00    +0.000 C 
BRANCH  77  78
ATOM     78  C   UNL     1      -5.645   1.252 139.689  0.00  0.00    +0.000 A 
ATOM     79  C   UNL     1      -6.559   0.469 140.435  0.00  0.00    +0.000 A 
ATOM     80  C   UNL     1      -7.585   1.058 141.029  0.00  0.00    +0.000 A 
ATOM     81  C   UNL     1      -7.139   2.184 141.625  0.00  0.00    +0.000 A 
ATOM     82  C   UNL     1      -5.922   2.808 141.261  0.00  0.00    +0.000 A 
ATOM     83  C   UNL     1      -5.154   2.352 140.248  0.00  0.00    +0.000 A 
ENDBRANCH  77  78
ENDBRANCH   5  77
BRANCH  22  84
ATOM     84  C   UNL     1      -5.782  -0.208 131.127  0.00  0.00    +0.000 C 
BRANCH  84  85
ATOM     85  C   UNL     1      -4.187  -1.292 131.038  0.00  0.00    +0.000 C 
ATOM     86  N   UNL     1      -4.093  -2.083 129.472  0.00  0.00    +0.000 N 
ATOM     87  O   UNL     1      -3.263  -1.062 131.902  0.00  0.00    +0.000 OA
ATOM     88  H   UNL     1      -5.196  -2.078 129.009  0.00  0.00    +0.000 HD
ATOM     89  H   UNL     1      -3.931  -3.064 129.305  0.00  0.00    +0.000 HD
ENDBRANCH  84  85
ENDBRANCH  22  84
TORSDOF 19
ENDMDL
MODEL 2
REMARK VINA RESULT:      -9.7      3.473     12.277
REMARK  Name = CHEMBL1790575
REMARK  21 active torsions:
REMARK  status: ('A' for Active; 'I' for Inactive)
REMARK    1  A    between atoms: C_1  and  C_2
REMARK    2  A    between atoms: C_2  and  C_3
REMARK    3  A    between atoms: C_3  and  C_4
REMARK    4  A    between atoms: C_3  and  C_5
REMARK    5  A    between atoms: C_9  and  C_10
REMARK    6  A    between atoms: C_10  and  C_11
REMARK    7  A    between atoms: C_20  and  C_21
REMARK    8  A    between atoms: C_21  and  C_22
REMARK    9  A    between atoms: C_25  and  O_26
REMARK   10  A    between atoms: C_37  and  C_38
REMARK   11  A    between atoms: C_44  and  C_45
REMARK   12  A    between atoms: N_47  and  C_48
REMARK   13  A    between atoms: C_48  and  C_49
REMARK   14  A    between atoms: C_48  and  C_56
REMARK   15  A    between atoms: C_49  and  C_50
REMARK   16  A    between atoms: C_50  and  C_51
REMARK   17  A    between atoms: C_51  and  N_52
REMARK   18  A    between atoms: N_58  and  C_59
REMARK   19  A    between atoms: C_59  and  C_60
REMARK   20  A    between atoms: C_66  and  C_67
REMARK   21  A    between atoms: C_67  and  C_68
REMARK                            x       y       z     vdW  Elec       q    Type
REMARK                         _______ _______ _______ _____ _____    ______ ____
ROOT
ATOM      1  C   UNL     1      -5.971  -2.201 127.097  0.00  0.00    +0.000 C 
ATOM      2  N   UNL     1      -5.364  -0.499 126.491  0.00  0.00    +0.000 N 
ATOM      3  C   UNL     1      -5.744   1.140 126.488  0.00  0.00    +0.000 C 
ATOM      4  O   UNL     1      -5.024   2.154 126.579  0.00  0.00    +0.000 OA
ATOM      5  C   UNL     1      -7.185   1.511 126.344  0.00  0.00    +0.000 C 
ATOM      6  N   UNL     1      -8.361   1.533 127.287  0.00  0.00    +0.000 N 
ATOM      7  C   UNL     1      -8.529   2.451 128.315  0.00  0.00    +0.000 C 
ATOM      8  O   UNL     1      -9.540   2.210 128.991  0.00  0.00    +0.000 OA
ATOM      9  C   UNL     1      -7.213   3.573 128.670  0.00  0.00    +0.000 C 
ATOM     10  N   UNL     1      -7.862   4.799 128.695  0.00  0.00    +0.000 N 
ATOM     11  C   UNL     1      -8.631   5.202 129.728  0.00  0.00    +0.000 C 
ATOM     12  O   UNL     1      -9.144   6.315 129.632  0.00  0.00    +0.000 OA
ATOM     13  C   UNL     1      -8.897   4.342 130.966  0.00  0.00    +0.000 C 
ATOM     14  C   UNL     1      -8.271   3.012 131.215  0.00  0.00    +0.000 C 
ATOM     15  S   UNL     1      -9.066   2.197 132.504  0.00  0.00    +0.000 S 
ATOM     16  S   UNL     1      -8.567   0.064 131.620  0.00  0.00    +0.000 S 
ATOM     17  C   UNL     1      -7.875  -1.585 133.297  0.00  0.00    +0.000 C 
ATOM     18  C   UNL     1      -6.722  -2.752 133.503  0.00  0.00    +0.000 C 
ATOM     19  N   UNL     1      -7.061  -3.614 132.416  0.00  0.00    +0.000 N 
ATOM     20  C   UNL     1      -7.520  -2.891 131.396  0.00  0.00    +0.000 C 
ATOM     21  O   UNL     1      -8.457  -3.277 130.725  0.00  0.00    +0.000 OA
ATOM     22  C   UNL     1      -6.599  -1.699 131.340  0.00  0.00    +0.000 C 
ATOM     23  N   UNL     1      -5.329  -2.405 130.163  0.00  0.00    +0.000 N 
ATOM     24  C   UNL     1      -5.081  -2.688 128.452  0.00  0.00    +0.000 C 
ATOM     25  O   UNL     1      -3.920  -2.733 127.933  0.00  0.00    +0.000 OA
ATOM     26  H   UNL     1      -4.336  -0.480 126.622  0.00  0.00    +0.000 HD
ATOM     27  H   UNL     1      -8.887   0.718 127.670  0.00  0.00    +0.000 HD
ATOM     28  H   UNL     1      -7.641   5.416 127.929  0.00  0.00    +0.000 HD
ATOM     29  H   UNL     1      -7.735  -4.352 132.423  0.00  0.00    +0.000 HD
ATOM     30  H   UNL     1      -4.454  -2.291 130.684  0.00  0.00    +0.000 HD
ENDROOT
BRANCH  18  31
ATOM     31  C   UNL     1      -5.041  -2.341 133.641  0.00  0.00    +0.000 C 
ATOM     32  O   UNL     1      -4.827  -1.313 134.308  0.00  0.00    +0.000 OA
ATOM     33  N   UNL     1      -3.971  -3.313 133.471  0.00  0.00    +0.000 N 
ATOM     34  C   UNL     1      -3.846  -4.443 132.593  0.00  0.00    +0.000 C 
ATOM     35  C   UNL     1      -3.226  -5.644 133.332  0.00  0.00    +0.000 C 
ATOM     36  C   UNL     1      -2.261  -5.011 134.260  0.00  0.00    +0.000 C 
ATOM     37  C   UNL     1      -2.857  -3.527 134.394  0.00  0.00    +0.000 C 
BRANCH  37  38
ATOM     38  C   UNL     1      -3.163  -3.792 135.739  0.00  0.00    +0.000 C 
ATOM     39  O   UNL     1      -2.081  -3.848 136.371  0.00  0.00    +0.000 OA
ATOM     40  N   UNL     1      -4.526  -3.596 136.119  0.00  0.00    +0.000 N 
ATOM     41  H   UNL     1      -5.065  -3.017 135.511  0.00  0.00    +0.000 HD
BRANCH  40  42
ATOM     42  C   UNL     1      -5.300  -3.981 137.565  0.00  0.00    +0.000 C 
BRANCH  42  43
ATOM     43  C   UNL     1      -7.377  -4.038 137.866  0.00  0.00    +0.000 C 
ATOM     44  O   UNL     1      -8.201  -4.198 136.927  0.00  0.00    +0.000 OA
ATOM     45  N   UNL     1      -8.242  -3.723 138.939  0.00  0.00    +0.000 N 
ATOM     46  H   UNL     1      -8.000  -2.771 139.087  0.00  0.00    +0.000 HD
BRANCH  45  47
ATOM     47  C   UNL     1      -9.800  -3.721 138.752  0.00  0.00    +0.000 C 
BRANCH  47  48
ATOM     48  C   UNL     1     -10.901  -2.542 138.275  0.00  0.00    +0.000 C 
ATOM     49  N   UNL     1     -11.994  -3.155 137.872  0.00  0.00    +0.000 N 
ATOM     50  O   UNL     1     -10.936  -1.325 138.316  0.00  0.00    +0.000 OA
ATOM     51  H   UNL     1     -11.729  -4.115 137.904  0.00  0.00    +0.000 HD
ATOM     52  H   UNL     1     -12.962  -2.826 137.951  0.00  0.00    +0.000 HD
ENDBRANCH  47  48
ENDBRANCH  45  47
ENDBRANCH  42  43
BRANCH  42  53
ATOM     53  C   UNL     1      -4.135  -3.293 139.326  0.00  0.00    +0.000 C 
BRANCH  53  54
ATOM     54  C   UNL     1      -3.864  -1.939 139.832  0.00  0.00    +0.000 C 
BRANCH  54  55
ATOM     55  C   UNL     1      -2.610  -1.659 139.230  0.00  0.00    +0.000 C 
BRANCH  55  56
ATOM     56  N   UNL     1      -3.326  -0.837 138.361  0.00  0.00    +0.000 NA
ATOM     57  C   UNL     1      -2.649  -0.555 137.364  0.00  0.00    +0.000 C 
ATOM     58  N   UNL     1      -1.405  -0.973 137.210  0.00  0.00    +0.000 N 
ATOM     59  N   UNL     1      -3.328   0.172 136.515  0.00  0.00    +0.000 N 
ATOM     60  H   UNL     1      -0.969  -1.516 137.954  0.00  0.00    +0.000 HD
ATOM     61  H   UNL     1      -0.864  -0.754 136.420  0.00  0.00    +0.000 HD
ATOM     62  H   UNL     1      -4.283   0.398 136.796  0.00  0.00    +0.000 HD
ATOM     63  H   UNL     1      -2.941   0.466 135.657  0.00  0.00    +0.000 HD
ENDBRANCH  55  56
ENDBRANCH  54  55
ENDBRANCH  53  54
ENDBRANCH  42  53
ENDBRANCH  40  42
ENDBRANCH  37  38
ENDBRANCH  18  31
BRANCH   1  64
ATOM     64  C   UNL     1      -7.135  -3.316 126.731  0.00  0.00    +0.000 C 
ATOM     65  C   UNL     1      -7.629  -3.954 125.079  0.00  0.00    +0.000 C 
BRANCH  64  67
ATOM     66  C   UNL     1      -9.011  -3.733 127.944  0.00  0.00    +0.000 C 
ATOM     67  C   UNL     1      -8.233  -2.622 127.347  0.00  0.00    +0.000 C 
ENDBRANCH  64  67
ENDBRANCH   1  64
BRANCH   9  68
ATOM     68  C   UNL     1      -6.082   3.617 129.801  0.00  0.00    +0.000 C 
BRANCH  68  69
ATOM     69  C   UNL     1      -5.145   4.622 129.342  0.00  0.00    +0.000 A 
ATOM     70  C   UNL     1      -4.909   5.884 130.122  0.00  0.00    +0.000 A 
ATOM     71  C   UNL     1      -3.523   7.093 129.736  0.00  0.00    +0.000 A 
ATOM     72  C   UNL     1      -2.357   6.834 128.421  0.00  0.00    +0.000 A 
ATOM     73  C   UNL     1      -2.613   5.485 127.744  0.00  0.00    +0.000 A 
ATOM     74  C   UNL     1      -4.163   4.457 128.143  0.00  0.00    +0.000 A 
BRANCH  72  75
ATOM     75  O   UNL     1      -1.462   7.602 127.743  0.00  0.00    +0.000 OA
ATOM     76  H   UNL     1      -1.351   7.300 126.816  0.00  0.00    +0.000 HD
ENDBRANCH  72  75
ENDBRANCH  68  69
ENDBRANCH   9  68
BRANCH   5  77
ATOM     77  C   UNL     1      -7.234   0.463 125.324  0.00  0.00    +0.000 C 
BRANCH  77  78
ATOM     78  C   UNL     1      -8.055   0.373 124.106  0.00  0.00    +0.000 A 
ATOM     79  C   UNL     1      -8.618   1.400 123.312  0.00  0.00    +0.000 A 
ATOM     80  C   UNL     1      -9.870   1.289 122.895  0.00  0.00    +0.000 A 
ATOM     81  C   UNL     1     -10.058   0.026 122.457  0.00  0.00    +0.000 A 
ATOM     82  C   UNL     1      -9.209  -1.044 122.828  0.00  0.00    +0.000 A 
ATOM     83  C   UNL     1      -8.187  -0.884 123.697  0.00  0.00    +0.000 A 
ENDBRANCH  77  78
ENDBRANCH   5  77
BRANCH  22  84
ATOM     84  C   UNL     1      -6.645  -0.194 132.648  0.00  0.00    +0.000 C 
BRANCH  84  85
ATOM     85  C   UNL     1      -5.271   1.153 132.808  0.00  0.00    +0.000 C 
ATOM     86  N   UNL     1      -3.865   0.683 131.865  0.00  0.00    +0.000 N 
ATOM     87  O   UNL     1      -5.622   2.311 133.243  0.00  0.00    +0.000 OA
ATOM     88  H   UNL     1      -3.942  -0.497 131.684  0.00  0.00    +0.000 HD
ATOM     89  H   UNL     1      -2.909   0.662 132.184  0.00  0.00    +0.000 HD
ENDBRANCH  84  85
ENDBRANCH  22  84
TORSDOF 19
ENDMDL
MODEL 3
REMARK VINA RESULT:      -9.2      3.520      7.792
REMARK  Name = CHEMBL1790575
REMARK  21 active torsions:
REMARK  status: ('A' for Active; 'I' for Inactive)
REMARK    1  A    between atoms: C_1  and  C_2
REMARK    2  A    between atoms: C_2  and  C_3
REMARK    3  A    between atoms: C_3  and  C_4
REMARK    4  A    between atoms: C_3  and  C_5
REMARK    5  A    between atoms: C_9  and  C_10
REMARK    6  A    between atoms: C_10  and  C_11
REMARK    7  A    between atoms: C_20  and  C_21
REMARK    8  A    between atoms: C_21  and  C_22
REMARK    9  A    between atoms: C_25  and  O_26
REMARK   10  A    between atoms: C_37  and  C_38
REMARK   11  A    between atoms: C_44  and  C_45
REMARK   12  A    between atoms: N_47  and  C_48
REMARK   13  A    between atoms: C_48  and  C_49
REMARK   14  A    between atoms: C_48  and  C_56
REMARK   15  A    between atoms: C_49  and  C_50
REMARK   16  A    between atoms: C_50  and  C_51
REMARK   17  A    between atoms: C_51  and  N_52
REMARK   18  A    between atoms: N_58  and  C_59
REMARK   19  A    between atoms: C_59  and  C_60
REMARK   20  A    between atoms: C_66  and  C_67
REMARK   21  A    between atoms: C_67  and  C_68
REMARK                            x       y       z     vdW  Elec       q    Type
REMARK                         _______ _______ _______ _____ _____    ______ ____
ROOT
ATOM      1  C   UNL     1      -3.033  -2.681 134.352  0.00  0.00    +0.000 C 
ATOM      2  N   UNL     1      -2.850  -3.567 132.675  0.00  0.00    +0.000 N 
ATOM      3  C   UNL     1      -3.686  -3.974 131.272  0.00  0.00    +0.000 C 
ATOM      4  O   UNL     1      -3.323  -4.020 130.080  0.00  0.00    +0.000 OA
ATOM      5  C   UNL     1      -5.120  -4.368 131.417  0.00  0.00    +0.000 C 
ATOM      6  N   UNL     1      -6.403  -3.602 131.617  0.00  0.00    +0.000 N 
ATOM      7  C   UNL     1      -7.018  -2.828 130.641  0.00  0.00    +0.000 C 
ATOM      8  O   UNL     1      -8.019  -2.242 131.077  0.00  0.00    +0.000 OA
ATOM      9  C   UNL     1      -6.175  -2.571 129.111  0.00  0.00    +0.000 C 
ATOM     10  N   UNL     1      -7.147  -2.893 128.176  0.00  0.00    +0.000 N 
ATOM     11  C   UNL     1      -8.175  -2.074 127.873  0.00  0.00    +0.000 C 
ATOM     12  O   UNL     1      -8.965  -2.472 127.018  0.00  0.00    +0.000 OA
ATOM     13  C   UNL     1      -8.400  -0.718 128.549  0.00  0.00    +0.000 C 
ATOM     14  C   UNL     1      -7.470  -0.111 129.542  0.00  0.00    +0.000 C 
ATOM     15  S   UNL     1      -8.214   1.219 130.338  0.00  0.00    +0.000 S 
ATOM     16  S   UNL     1      -6.960   0.890 132.314  0.00  0.00    +0.000 S 
ATOM     17  C   UNL     1      -6.135   2.958 133.340  0.00  0.00    +0.000 C 
ATOM     18  C   UNL     1      -4.749   3.552 134.018  0.00  0.00    +0.000 C 
ATOM     19  N   UNL     1      -4.617   2.647 135.115  0.00  0.00    +0.000 N 
ATOM     20  C   UNL     1      -5.072   1.446 134.764  0.00  0.00    +0.000 C 
ATOM     21  O   UNL     1      -5.717   0.768 135.541  0.00  0.00    +0.000 OA
ATOM     22  C   UNL     1      -4.546   1.242 133.367  0.00  0.00    +0.000 C 
ATOM     23  N   UNL     1      -2.931   0.410 133.814  0.00  0.00    +0.000 N 
ATOM     24  C   UNL     1      -2.304  -1.154 134.288  0.00  0.00    +0.000 C 
ATOM     25  O   UNL     1      -1.106  -1.507 134.042  0.00  0.00    +0.000 OA
ATOM     26  H   UNL     1      -1.915  -3.320 132.303  0.00  0.00    +0.000 HD
ATOM     27  H   UNL     1      -6.728  -3.116 132.480  0.00  0.00    +0.000 HD
ATOM     28  H   UNL     1      -6.980  -3.743 127.659  0.00  0.00    +0.000 HD
ATOM     29  H   UNL     1      -5.035   2.734 136.020  0.00  0.00    +0.000 HD
ATOM     30  H   UNL     1      -2.240   0.996 133.336  0.00  0.00    +0.000 HD
ENDROOT
BRANCH  18  31
ATOM     31  C   UNL     1      -3.316   3.798 133.070  0.00  0.00    +0.000 C 
ATOM     32  O   UNL     1      -3.058   2.858 132.297  0.00  0.00    +0.000 OA
ATOM     33  N   UNL     1      -2.765   5.116 132.795  0.00  0.00    +0.000 N 
ATOM     34  C   UNL     1      -2.697   6.303 133.601  0.00  0.00    +0.000 C 
ATOM     35  C   UNL     1      -3.013   7.555 132.760  0.00  0.00    +0.000 C 
ATOM     36  C   UNL     1      -2.431   7.232 131.437  0.00  0.00    +0.000 C 
ATOM     37  C   UNL     1      -2.391   5.628 131.477  0.00  0.00    +0.000 C 
BRANCH  37  38
ATOM     38  C   UNL     1      -3.363   5.597 130.463  0.00  0.00    +0.000 C 
ATOM     39  O   UNL     1      -2.780   5.326 129.386  0.00  0.00    +0.000 OA
ATOM     40  N   UNL     1      -4.720   5.530 130.902  0.00  0.00    +0.000 N 
ATOM     41  H   UNL     1      -4.857   5.211 131.837  0.00  0.00    +0.000 HD
BRANCH  40  42
ATOM     42  C   UNL     1      -6.142   5.663 130.008  0.00  0.00    +0.000 C 
BRANCH  42  43
ATOM     43  C   UNL     1      -8.091   5.571 130.784  0.00  0.00    +0.000 C 
ATOM     44  O   UNL     1      -8.859   4.592 130.592  0.00  0.00    +0.000 OA
ATOM     45  N   UNL     1      -8.973   6.497 131.388  0.00  0.00    +0.000 N 
ATOM     46  H   UNL     1      -9.027   7.182 130.671  0.00  0.00    +0.000 HD
BRANCH  45  47
ATOM     47  C   UNL     1     -10.463   6.115 131.699  0.00  0.00    +0.000 C 
BRANCH  47  48
ATOM     48  C   UNL     1     -11.938   6.647 131.093  0.00  0.00    +0.000 C 
ATOM     49  N   UNL     1     -11.927   6.459 129.790  0.00  0.00    +0.000 N 
ATOM     50  O   UNL     1     -12.979   7.048 131.583  0.00  0.00    +0.000 OA
ATOM     51  H   UNL     1     -10.993   6.156 129.623  0.00  0.00    +0.000 HD
ATOM     52  H   UNL     1     -12.722   6.227 129.184  0.00  0.00    +0.000 HD
ENDBRANCH  47  48
ENDBRANCH  45  47
ENDBRANCH  42  43
BRANCH  42  53
ATOM     53  C   UNL     1      -5.919   4.788 127.979  0.00  0.00    +0.000 C 
BRANCH  53  54
ATOM     54  C   UNL     1      -5.144   5.242 126.815  0.00  0.00    +0.000 C 
BRANCH  54  55
ATOM     55  C   UNL     1      -4.888   4.014 126.150  0.00  0.00    +0.000 C 
BRANCH  55  56
ATOM     56  N   UNL     1      -3.544   4.269 126.415  0.00  0.00    +0.000 NA
ATOM     57  C   UNL     1      -2.922   3.213 126.589  0.00  0.00    +0.000 C 
ATOM     58  N   UNL     1      -3.509   2.030 126.550  0.00  0.00    +0.000 N 
ATOM     59  N   UNL     1      -1.648   3.435 126.786  0.00  0.00    +0.000 N 
ATOM     60  H   UNL     1      -4.518   1.981 126.413  0.00  0.00    +0.000 HD
ATOM     61  H   UNL     1      -3.020   1.188 126.685  0.00  0.00    +0.000 HD
ATOM     62  H   UNL     1      -1.367   4.416 126.776  0.00  0.00    +0.000 HD
ATOM     63  H   UNL     1      -1.007   2.698 126.920  0.00  0.00    +0.000 HD
ENDBRANCH  55  56
ENDBRANCH  54  55
ENDBRANCH  53  54
ENDBRANCH  42  53
ENDBRANCH  40  42
ENDBRANCH  37  38
ENDBRANCH  18  31
BRANCH   1  64
ATOM     64  C   UNL     1      -3.733  -2.931 135.829  0.00  0.00    +0.000 C 
ATOM     65  C   UNL     1      -4.982  -1.895 136.693  0.00  0.00    +0.000 C 
BRANCH  64  67
ATOM     66  C   UNL     1      -2.032  -4.354 136.325  0.00  0.00    +0.000 C 
ATOM     67  C   UNL     1      -2.512  -2.977 136.588  0.00  0.00    +0.000 C 
ENDBRANCH  64  67
ENDBRANCH   1  64
BRANCH   9  68
ATOM     68  C   UNL     1      -5.333  -1.349 128.512  0.00  0.00    +0.000 C 
BRANCH  68  69
ATOM     69  C   UNL     1      -5.327  -1.575 127.082  0.00  0.00    +0.000 A 
ATOM     70  C   UNL     1      -4.965  -2.914 126.503  0.00  0.00    +0.000 A 
ATOM     71  C   UNL     1      -5.198  -3.354 124.692  0.00  0.00    +0.000 A 
ATOM     72  C   UNL     1      -5.887  -2.223 123.506  0.00  0.00    +0.000 A 
ATOM     73  C   UNL     1      -6.311  -0.925 124.197  0.00  0.00    +0.000 A 
ATOM     74  C   UNL     1      -5.850  -0.573 126.009  0.00  0.00    +0.000 A 
BRANCH  72  75
ATOM     75  O   UNL     1      -5.930  -2.136 122.150  0.00  0.00    +0.000 OA
ATOM     76  H   UNL     1      -5.751  -3.001 121.722  0.00  0.00    +0.000 HD
ENDBRANCH  72  75
ENDBRANCH  68  69
ENDBRANCH   9  68
BRANCH   5  77
ATOM     77  C   UNL     1      -4.673  -5.133 132.582  0.00  0.00    +0.000 C 
BRANCH  77  78
ATOM     78  C   UNL     1      -5.401  -5.491 133.809  0.00  0.00    +0.000 A 
ATOM     79  C   UNL     1      -6.721  -5.169 134.209  0.00  0.00    +0.000 A 
ATOM     80  C   UNL     1      -6.945  -4.770 135.452  0.00  0.00    +0.000 A 
ATOM     81  C   UNL     1      -6.248  -5.572 136.285  0.00  0.00    +0.000 A 
ATOM     82  C   UNL     1      -5.152  -6.355 135.850  0.00  0.00    +0.000 A 
ATOM     83  C   UNL     1      -4.689  -6.304 134.582  0.00  0.00    +0.000 A 
ENDBRANCH  77  78
ENDBRANCH   5  77
BRANCH  22  84
ATOM     84  C   UNL     1      -5.268   2.174 131.758  0.00  0.00    +0.000 C 
BRANCH  84  85
ATOM     85  C   UNL     1      -4.622   1.902 129.959  0.00  0.00    +0.000 C 
ATOM     86  N   UNL     1      -3.412   0.628 129.948  0.00  0.00    +0.000 N 
ATOM     87  O   UNL     1      -5.331   2.373 128.995  0.00  0.00    +0.000 OA
ATOM     88  H   UNL     1      -3.007   0.519 131.069  0.00  0.00    +0.000 HD
ATOM     89  H   UNL     1      -2.498   0.673 129.526  0.00  0.00    +0.000 HD
ENDBRANCH  84  85
ENDBRANCH  22  84
TORSDOF 19
ENDMDL
MODEL 4
REMARK VINA RESULT:      -9.1      4.766      9.062
REMARK  Name = CHEMBL1790575
REMARK  21 active torsions:
REMARK  status: ('A' for Active; 'I' for Inactive)
REMARK    1  A    between atoms: C_1  and  C_2
REMARK    2  A    between atoms: C_2  and  C_3
REMARK    3  A    between atoms: C_3  and  C_4
REMARK    4  A    between atoms: C_3  and  C_5
REMARK    5  A    between atoms: C_9  and  C_10
REMARK    6  A    between atoms: C_10  and  C_11
REMARK    7  A    between atoms: C_20  and  C_21
REMARK    8  A    between atoms: C_21  and  C_22
REMARK    9  A    between atoms: C_25  and  O_26
REMARK   10  A    between atoms: C_37  and  C_38
REMARK   11  A    between atoms: C_44  and  C_45
REMARK   12  A    between atoms: N_47  and  C_48
REMARK   13  A    between atoms: C_48  and  C_49
REMARK   14  A    between atoms: C_48  and  C_56
REMARK   15  A    between atoms: C_49  and  C_50
REMARK   16  A    between atoms: C_50  and  C_51
REMARK   17  A    between atoms: C_51  and  N_52
REMARK   18  A    between atoms: N_58  and  C_59
REMARK   19  A    between atoms: C_59  and  C_60
REMARK   20  A    between atoms: C_66  and  C_67
REMARK   21  A    between atoms: C_67  and  C_68
REMARK                            x       y       z     vdW  Elec       q    Type
REMARK                         _______ _______ _______ _____ _____    ______ ____
ROOT
ATOM      1  C   UNL     1      -1.373   6.464 132.675  0.00  0.00    +0.000 C 
ATOM      2  N   UNL     1      -0.280   6.737 134.211  0.00  0.00    +0.000 N 
ATOM      3  C   UNL     1      -0.285   7.381 135.767  0.00  0.00    +0.000 C 
ATOM      4  O   UNL     1       0.257   6.994 136.821  0.00  0.00    +0.000 OA
ATOM      5  C   UNL     1      -1.050   8.646 135.984  0.00  0.00    +0.000 C 
ATOM      6  N   UNL     1      -2.513   8.971 136.154  0.00  0.00    +0.000 N 
ATOM      7  C   UNL     1      -3.260   8.669 137.285  0.00  0.00    +0.000 C 
ATOM      8  O   UNL     1      -4.454   8.974 137.146  0.00  0.00    +0.000 OA
ATOM      9  C   UNL     1      -2.517   7.690 138.552  0.00  0.00    +0.000 C 
ATOM     10  N   UNL     1      -2.776   8.432 139.695  0.00  0.00    +0.000 N 
ATOM     11  C   UNL     1      -3.988   8.474 140.285  0.00  0.00    +0.000 C 
ATOM     12  O   UNL     1      -4.084   9.163 141.299  0.00  0.00    +0.000 OA
ATOM     13  C   UNL     1      -5.215   7.735 139.743  0.00  0.00    +0.000 C 
ATOM     14  C   UNL     1      -5.193   6.821 138.567  0.00  0.00    +0.000 C 
ATOM     15  S   UNL     1      -6.791   6.465 138.042  0.00  0.00    +0.000 S 
ATOM     16  S   UNL     1      -6.115   6.166 135.798  0.00  0.00    +0.000 S 
ATOM     17  C   UNL     1      -7.169   4.260 134.673  0.00  0.00    +0.000 C 
ATOM     18  C   UNL     1      -6.751   3.004 133.682  0.00  0.00    +0.000 C 
ATOM     19  N   UNL     1      -6.278   3.742 132.554  0.00  0.00    +0.000 N 
ATOM     20  C   UNL     1      -5.701   4.870 132.965  0.00  0.00    +0.000 C 
ATOM     21  O   UNL     1      -5.856   5.911 132.357  0.00  0.00    +0.000 OA
ATOM     22  C   UNL     1      -4.894   4.459 134.169  0.00  0.00    +0.000 C 
ATOM     23  N   UNL     1      -3.294   4.058 133.286  0.00  0.00    +0.000 N 
ATOM     24  C   UNL     1      -1.890   4.853 132.606  0.00  0.00    +0.000 C 
ATOM     25  O   UNL     1      -0.759   4.276 132.519  0.00  0.00    +0.000 OA
ATOM     26  H   UNL     1       0.285   5.878 134.337  0.00  0.00    +0.000 HD
ATOM     27  H   UNL     1      -3.257   8.963 135.424  0.00  0.00    +0.000 HD
ATOM     28  H   UNL     1      -1.968   8.864 140.117  0.00  0.00    +0.000 HD
ATOM     29  H   UNL     1      -6.824   4.093 131.793  0.00  0.00    +0.000 HD
ATOM     30  H   UNL     1      -3.107   3.098 133.590  0.00  0.00    +0.000 HD
ENDROOT
BRANCH  18  31
ATOM     31  C   UNL     1      -5.713   1.728 134.235  0.00  0.00    +0.000 C 
ATOM     32  O   UNL     1      -6.166   1.098 135.207  0.00  0.00    +0.000 OA
ATOM     33  N   UNL     1      -4.706   1.103 133.391  0.00  0.00    +0.000 N 
ATOM     34  C   UNL     1      -3.854   1.648 132.370  0.00  0.00    +0.000 C 
ATOM     35  C   UNL     1      -3.762   0.690 131.167  0.00  0.00    +0.000 C 
ATOM     36  C   UNL     1      -3.809  -0.650 131.794  0.00  0.00    +0.000 C 
ATOM     37  C   UNL     1      -4.528  -0.334 133.194  0.00  0.00    +0.000 C 
BRANCH  37  38
ATOM     38  C   UNL     1      -5.640  -1.080 132.770  0.00  0.00    +0.000 C 
ATOM     39  O   UNL     1      -5.551  -2.221 133.282  0.00  0.00    +0.000 OA
ATOM     40  N   UNL     1      -6.713  -0.329 132.197  0.00  0.00    +0.000 N 
ATOM     41  H   UNL     1      -6.723   0.644 132.416  0.00  0.00    +0.000 HD
BRANCH  40  42
ATOM     42  C   UNL     1      -8.104  -0.873 131.419  0.00  0.00    +0.000 C 
BRANCH  42  43
ATOM     43  C   UNL     1      -8.156  -2.009 129.653  0.00  0.00    +0.000 C 
ATOM     44  O   UNL     1      -8.260  -3.264 129.649  0.00  0.00    +0.000 OA
ATOM     45  N   UNL     1      -7.888  -1.751 128.289  0.00  0.00    +0.000 N 
ATOM     46  H   UNL     1      -6.948  -1.437 128.350  0.00  0.00    +0.000 HD
BRANCH  45  47
ATOM     47  C   UNL     1      -7.861  -2.912 127.234  0.00  0.00    +0.000 C 
BRANCH  47  48
ATOM     48  C   UNL     1      -8.672  -3.168 125.783  0.00  0.00    +0.000 C 
ATOM     49  N   UNL     1      -7.939  -3.984 125.054  0.00  0.00    +0.000 N 
ATOM     50  O   UNL     1      -9.762  -2.860 125.337  0.00  0.00    +0.000 OA
ATOM     51  H   UNL     1      -7.110  -4.075 125.598  0.00  0.00    +0.000 HD
ATOM     52  H   UNL     1      -8.266  -4.690 124.385  0.00  0.00    +0.000 HD
ENDBRANCH  47  48
ENDBRANCH  45  47
ENDBRANCH  42  43
BRANCH  42  53
ATOM     53  C   UNL     1      -9.779   0.569 131.633  0.00  0.00    +0.000 C 
BRANCH  53  54
ATOM     54  C   UNL     1      -9.810   1.935 132.177  0.00  0.00    +0.000 C 
BRANCH  54  55
ATOM     55  C   UNL     1      -9.825   2.712 130.989  0.00  0.00    +0.000 C 
BRANCH  55  56
ATOM     56  N   UNL     1      -9.597   3.805 131.823  0.00  0.00    +0.000 NA
ATOM     57  C   UNL     1      -9.223   4.787 131.169  0.00  0.00    +0.000 C 
ATOM     58  N   UNL     1      -9.046   4.741 129.861  0.00  0.00    +0.000 N 
ATOM     59  N   UNL     1      -9.057   5.835 131.933  0.00  0.00    +0.000 N 
ATOM     60  H   UNL     1      -9.183   3.857 129.372  0.00  0.00    +0.000 HD
ATOM     61  H   UNL     1      -8.751   5.518 129.336  0.00  0.00    +0.000 HD
ATOM     62  H   UNL     1      -9.247   5.689 132.926  0.00  0.00    +0.000 HD
ATOM     63  H   UNL     1      -8.781   6.707 131.565  0.00  0.00    +0.000 HD
ENDBRANCH  55  56
ENDBRANCH  54  55
ENDBRANCH  53  54
ENDBRANCH  42  53
ENDBRANCH  40  42
ENDBRANCH  37  38
ENDBRANCH  18  31
BRANCH   1  64
ATOM     64  C   UNL     1      -2.009   7.335 131.421  0.00  0.00    +0.000 C 
ATOM     65  C   UNL     1      -3.290   8.653 131.479  0.00  0.00    +0.000 C 
BRANCH  64  67
ATOM     66  C   UNL     1      -1.888   6.463 129.327  0.00  0.00    +0.000 C 
ATOM     67  C   UNL     1      -2.484   6.211 130.660  0.00  0.00    +0.000 C 
ENDBRANCH  64  67
ENDBRANCH   1  64
BRANCH   9  68
ATOM     68  C   UNL     1      -2.633   6.147 138.959  0.00  0.00    +0.000 C 
BRANCH  68  69
ATOM     69  C   UNL     1      -1.684   5.981 140.039  0.00  0.00    +0.000 A 
ATOM     70  C   UNL     1      -2.105   5.425 141.371  0.00  0.00    +0.000 A 
ATOM     71  C   UNL     1      -0.889   4.930 142.715  0.00  0.00    +0.000 A 
ATOM     72  C   UNL     1       0.872   5.062 142.518  0.00  0.00    +0.000 A 
ATOM     73  C   UNL     1       1.212   5.546 141.105  0.00  0.00    +0.000 A 
ATOM     74  C   UNL     1      -0.141   6.165 139.920  0.00  0.00    +0.000 A 
BRANCH  72  75
ATOM     75  O   UNL     1       1.952   5.052 143.344  0.00  0.00    +0.000 OA
ATOM     76  H   UNL     1       2.789   4.919 142.850  0.00  0.00    +0.000 HD
ENDBRANCH  72  75
ENDBRANCH  68  69
ENDBRANCH   9  68
BRANCH   5  77
ATOM     77  C   UNL     1      -0.467   9.082 134.715  0.00  0.00    +0.000 C 
BRANCH  77  78
ATOM     78  C   UNL     1      -0.545  10.388 134.041  0.00  0.00    +0.000 A 
ATOM     79  C   UNL     1      -1.638  11.278 133.912  0.00  0.00    +0.000 A 
ATOM     80  C   UNL     1      -1.883  11.843 132.739  0.00  0.00    +0.000 A 
ATOM     81  C   UNL     1      -0.709  12.259 132.218  0.00  0.00    +0.000 A 
ATOM     82  C   UNL     1       0.540  11.752 132.650  0.00  0.00    +0.000 A 
ATOM     83  C   UNL     1       0.637  10.769 133.572  0.00  0.00    +0.000 A 
ENDBRANCH  77  78
ENDBRANCH   5  77
BRANCH  22  84
ATOM     84  C   UNL     1      -5.688   4.017 135.945  0.00  0.00    +0.000 C 
BRANCH  84  85
ATOM     85  C   UNL     1      -4.706   3.244 137.416  0.00  0.00    +0.000 C 
ATOM     86  N   UNL     1      -3.012   3.078 136.979  0.00  0.00    +0.000 N 
ATOM     87  O   UNL     1      -5.259   3.267 138.577  0.00  0.00    +0.000 OA
ATOM     88  H   UNL     1      -2.954   3.110 135.784  0.00  0.00    +0.000 HD
ATOM     89  H   UNL     1      -2.447   2.249 137.075  0.00  0.00    +0.000 HD
ENDBRANCH  84  85
ENDBRANCH  22  84
TORSDOF 19
ENDMDL
MODEL 5
REMARK VINA RESULT:      -9.1      5.637     11.167
REMARK  Name = CHEMBL1790575
REMARK  21 active torsions:
REMARK  status: ('A' for Active; 'I' for Inactive)
REMARK    1  A    between atoms: C_1  and  C_2
REMARK    2  A    between atoms: C_2  and  C_3
REMARK    3  A    between atoms: C_3  and  C_4
REMARK    4  A    between atoms: C_3  and  C_5
REMARK    5  A    between atoms: C_9  and  C_10
REMARK    6  A    between atoms: C_10  and  C_11
REMARK    7  A    between atoms: C_20  and  C_21
REMARK    8  A    between atoms: C_21  and  C_22
REMARK    9  A    between atoms: C_25  and  O_26
REMARK   10  A    between atoms: C_37  and  C_38
REMARK   11  A    between atoms: C_44  and  C_45
REMARK   12  A    between atoms: N_47  and  C_48
REMARK   13  A    between atoms: C_48  and  C_49
REMARK   14  A    between atoms: C_48  and  C_56
REMARK   15  A    between atoms: C_49  and  C_50
REMARK   16  A    between atoms: C_50  and  C_51
REMARK   17  A    between atoms: C_51  and  N_52
REMARK   18  A    between atoms: N_58  and  C_59
REMARK   19  A    between atoms: C_59  and  C_60
REMARK   20  A    between atoms: C_66  and  C_67
REMARK   21  A    between atoms: C_67  and  C_68
REMARK                            x       y       z     vdW  Elec       q    Type
REMARK                         _______ _______ _______ _____ _____    ______ ____
ROOT
ATOM      1  C   UNL     1      -1.678   6.558 132.336  0.00  0.00    +0.000 C 
ATOM      2  N   UNL     1      -0.527   7.097 133.756  0.00  0.00    +0.000 N 
ATOM      3  C   UNL     1      -0.495   7.941 135.212  0.00  0.00    +0.000 C 
ATOM      4  O   UNL     1       0.125   7.731 136.273  0.00  0.00    +0.000 OA
ATOM      5  C   UNL     1      -1.331   9.176 135.309  0.00  0.00    +0.000 C 
ATOM      6  N   UNL     1      -2.801   9.434 135.523  0.00  0.00    +0.000 N 
ATOM      7  C   UNL     1      -3.467   9.240 136.726  0.00  0.00    +0.000 C 
ATOM      8  O   UNL     1      -4.684   9.453 136.621  0.00  0.00    +0.000 OA
ATOM      9  C   UNL     1      -2.596   8.485 138.063  0.00  0.00    +0.000 C 
ATOM     10  N   UNL     1      -2.845   9.356 139.113  0.00  0.00    +0.000 N 
ATOM     11  C   UNL     1      -4.025   9.403 139.765  0.00  0.00    +0.000 C 
ATOM     12  O   UNL     1      -4.114  10.214 140.685  0.00  0.00    +0.000 OA
ATOM     13  C   UNL     1      -5.226   8.527 139.398  0.00  0.00    +0.000 C 
ATOM     14  C   UNL     1      -5.203   7.468 138.350  0.00  0.00    +0.000 C 
ATOM     15  S   UNL     1      -6.799   6.951 137.973  0.00  0.00    +0.000 S 
ATOM     16  S   UNL     1      -6.221   6.397 135.750  0.00  0.00    +0.000 S 
ATOM     17  C   UNL     1      -7.203   4.299 134.946  0.00  0.00    +0.000 C 
ATOM     18  C   UNL     1      -6.753   2.949 134.103  0.00  0.00    +0.000 C 
ATOM     19  N   UNL     1      -6.389   3.557 132.863  0.00  0.00    +0.000 N 
ATOM     20  C   UNL     1      -5.869   4.762 133.089  0.00  0.00    +0.000 C 
ATOM     21  O   UNL     1      -6.124   5.702 132.362  0.00  0.00    +0.000 OA
ATOM     22  C   UNL     1      -4.975   4.564 134.285  0.00  0.00    +0.000 C 
ATOM     23  N   UNL     1      -3.399   4.144 133.368  0.00  0.00    +0.000 N 
ATOM     24  C   UNL     1      -2.089   4.925 132.507  0.00  0.00    +0.000 C 
ATOM     25  O   UNL     1      -0.928   4.409 132.428  0.00  0.00    +0.000 OA
ATOM     26  H   UNL     1       0.100   6.298 133.958  0.00  0.00    +0.000 HD
ATOM     27  H   UNL     1      -3.579   9.284 134.846  0.00  0.00    +0.000 HD
ATOM     28  H   UNL     1      -2.047   9.887 139.427  0.00  0.00    +0.000 HD
ATOM     29  H   UNL     1      -6.996   3.771 132.097  0.00  0.00    +0.000 HD
ATOM     30  H   UNL     1      -3.133   3.246 133.782  0.00  0.00    +0.000 HD
ENDROOT
BRANCH  18  31
ATOM     31  C   UNL     1      -5.605   1.822 134.753  0.00  0.00    +0.000 C 
ATOM     32  O   UNL     1      -5.774   1.574 135.961  0.00  0.00    +0.000 OA
ATOM     33  N   UNL     1      -4.871   0.874 133.929  0.00  0.00    +0.000 N 
ATOM     34  C   UNL     1      -4.333   0.989 132.602  0.00  0.00    +0.000 C 
ATOM     35  C   UNL     1      -4.578  -0.302 131.799  0.00  0.00    +0.000 C 
ATOM     36  C   UNL     1      -4.453  -1.367 132.820  0.00  0.00    +0.000 C 
ATOM     37  C   UNL     1      -4.757  -0.563 134.175  0.00  0.00    +0.000 C 
BRANCH  37  38
ATOM     38  C   UNL     1      -5.945  -1.298 134.323  0.00  0.00    +0.000 C 
ATOM     39  O   UNL     1      -6.882  -0.603 133.862  0.00  0.00    +0.000 OA
ATOM     40  N   UNL     1      -5.786  -2.689 134.606  0.00  0.00    +0.000 N 
ATOM     41  H   UNL     1      -4.895  -3.077 134.380  0.00  0.00    +0.000 HD
BRANCH  40  42
ATOM     42  C   UNL     1      -6.947  -3.835 135.028  0.00  0.00    +0.000 C 
BRANCH  42  43
ATOM     43  C   UNL     1      -8.459  -3.578 136.461  0.00  0.00    +0.000 C 
ATOM     44  O   UNL     1      -8.733  -2.462 136.975  0.00  0.00    +0.000 OA
ATOM     45  N   UNL     1      -9.241  -4.446 137.258  0.00  0.00    +0.000 N 
ATOM     46  H   UNL     1      -8.525  -4.934 137.743  0.00  0.00    +0.000 HD
BRANCH  45  47
ATOM     47  C   UNL     1     -10.185  -3.888 138.380  0.00  0.00    +0.000 C 
BRANCH  47  48
ATOM     48  C   UNL     1     -11.775  -3.341 138.381  0.00  0.00    +0.000 C 
ATOM     49  N   UNL     1     -11.834  -2.281 137.603  0.00  0.00    +0.000 N 
ATOM     50  O   UNL     1     -12.829  -3.749 138.837  0.00  0.00    +0.000 OA
ATOM     51  H   UNL     1     -10.878  -2.128 137.372  0.00  0.00    +0.000 HD
ATOM     52  H   UNL     1     -12.621  -1.976 137.019  0.00  0.00    +0.000 HD
ENDBRANCH  47  48
ENDBRANCH  45  47
ENDBRANCH  42  43
BRANCH  42  53
ATOM     53  C   UNL     1      -6.141  -5.900 134.903  0.00  0.00    +0.000 C 
BRANCH  53  54
ATOM     54  C   UNL     1      -4.849  -6.458 135.332  0.00  0.00    +0.000 C 
BRANCH  54  55
ATOM     55  C   UNL     1      -4.021  -6.133 134.226  0.00  0.00    +0.000 C 
BRANCH  55  56
ATOM     56  N   UNL     1      -3.649  -5.011 134.966  0.00  0.00    +0.000 NA
ATOM     57  C   UNL     1      -2.652  -4.469 134.472  0.00  0.00    +0.000 C 
ATOM     58  N   UNL     1      -2.039  -4.951 133.406  0.00  0.00    +0.000 N 
ATOM     59  N   UNL     1      -2.325  -3.384 135.125  0.00  0.00    +0.000 N 
ATOM     60  H   UNL     1      -2.370  -5.822 132.994  0.00  0.00    +0.000 HD
ATOM     61  H   UNL     1      -1.248  -4.523 133.008  0.00  0.00    +0.000 HD
ATOM     62  H   UNL     1      -2.918  -3.158 135.925  0.00  0.00    +0.000 HD
ATOM     63  H   UNL     1      -1.565  -2.821 134.849  0.00  0.00    +0.000 HD
ENDBRANCH  55  56
ENDBRANCH  54  55
ENDBRANCH  53  54
ENDBRANCH  42  53
ENDBRANCH  40  42
ENDBRANCH  37  38
ENDBRANCH  18  31
BRANCH   1  64
ATOM     64  C   UNL     1      -2.434   7.215 131.021  0.00  0.00    +0.000 C 
ATOM     65  C   UNL     1      -3.982   8.207 130.969  0.00  0.00    +0.000 C 
BRANCH  64  67
ATOM     66  C   UNL     1      -2.022   6.320 128.973  0.00  0.00    +0.000 C 
ATOM     67  C   UNL     1      -2.605   5.985 130.294  0.00  0.00    +0.000 C 
ENDBRANCH  64  67
ENDBRANCH   1  64
BRANCH   9  68
ATOM     68  C   UNL     1      -2.587   7.005 138.672  0.00  0.00    +0.000 C 
BRANCH  68  69
ATOM     69  C   UNL     1      -1.219   6.790 139.092  0.00  0.00    +0.000 A 
ATOM     70  C   UNL     1      -0.545   5.459 138.912  0.00  0.00    +0.000 A 
ATOM     71  C   UNL     1       1.295   5.186 139.178  0.00  0.00    +0.000 A 
ATOM     72  C   UNL     1       2.404   6.492 139.650  0.00  0.00    +0.000 A 
ATOM     73  C   UNL     1       1.654   7.826 139.719  0.00  0.00    +0.000 A 
ATOM     74  C   UNL     1      -0.243   7.901 139.586  0.00  0.00    +0.000 A 
BRANCH  72  75
ATOM     75  O   UNL     1       3.661   6.570 140.162  0.00  0.00    +0.000 OA
ATOM     76  H   UNL     1       4.128   7.380 139.864  0.00  0.00    +0.000 HD
ENDBRANCH  72  75
ENDBRANCH  68  69
ENDBRANCH   9  68
BRANCH   5  77
ATOM     77  C   UNL     1      -0.844   9.473 133.962  0.00  0.00    +0.000 C 
BRANCH  77  78
ATOM     78  C   UNL     1      -0.355  10.740 133.395  0.00  0.00    +0.000 A 
ATOM     79  C   UNL     1      -1.075  11.888 132.984  0.00  0.00    +0.000 A 
ATOM     80  C   UNL     1      -0.763  12.476 131.839  0.00  0.00    +0.000 A 
ATOM     81  C   UNL     1       0.582  12.554 131.757  0.00  0.00    +0.000 A 
ATOM     82  C   UNL     1       1.442  11.739 132.532  0.00  0.00    +0.000 A 
ATOM     83  C   UNL     1       0.972  10.783 133.362  0.00  0.00    +0.000 A 
ENDBRANCH  77  78
ENDBRANCH   5  77
BRANCH  22  84
ATOM     84  C   UNL     1      -5.645   4.316 136.148  0.00  0.00    +0.000 C 
BRANCH  84  85
ATOM     85  C   UNL     1      -4.559   3.715 137.627  0.00  0.00    +0.000 C 
ATOM     86  N   UNL     1      -3.061   3.023 137.021  0.00  0.00    +0.000 N 
ATOM     87  O   UNL     1      -4.844   4.168 138.796  0.00  0.00    +0.000 OA
ATOM     88  H   UNL     1      -3.245   2.737 135.874  0.00  0.00    +0.000 HD
ATOM     89  H   UNL     1      -2.669   2.129 137.274  0.00  0.00    +0.000 HD
ENDBRANCH  84  85
ENDBRANCH  22  84
TORSDOF 19
ENDMDL
MODEL 6
REMARK VINA RESULT:      -9.0      4.911      9.152
REMARK  Name = CHEMBL1790575
REMARK  21 active torsions:
REMARK  status: ('A' for Active; 'I' for Inactive)
REMARK    1  A    between atoms: C_1  and  C_2
REMARK    2  A    between atoms: C_2  and  C_3
REMARK    3  A    between atoms: C_3  and  C_4
REMARK    4  A    between atoms: C_3  and  C_5
REMARK    5  A    between atoms: C_9  and  C_10
REMARK    6  A    between atoms: C_10  and  C_11
REMARK    7  A    between atoms: C_20  and  C_21
REMARK    8  A    between atoms: C_21  and  C_22
REMARK    9  A    between atoms: C_25  and  O_26
REMARK   10  A    between atoms: C_37  and  C_38
REMARK   11  A    between atoms: C_44  and  C_45
REMARK   12  A    between atoms: N_47  and  C_48
REMARK   13  A    between atoms: C_48  and  C_49
REMARK   14  A    between atoms: C_48  and  C_56
REMARK   15  A    between atoms: C_49  and  C_50
REMARK   16  A    between atoms: C_50  and  C_51
REMARK   17  A    between atoms: C_51  and  N_52
REMARK   18  A    between atoms: N_58  and  C_59
REMARK   19  A    between atoms: C_59  and  C_60
REMARK   20  A    between atoms: C_66  and  C_67
REMARK   21  A    between atoms: C_67  and  C_68
REMARK                            x       y       z     vdW  Elec       q    Type
REMARK                         _______ _______ _______ _____ _____    ______ ____
ROOT
ATOM      1  C   UNL     1      -6.049   6.118 137.345  0.00  0.00    +0.000 C 
ATOM      2  N   UNL     1      -5.716   7.994 137.375  0.00  0.00    +0.000 N 
ATOM      3  C   UNL     1      -4.516   9.150 137.133  0.00  0.00    +0.000 C 
ATOM      4  O   UNL     1      -4.559  10.288 136.627  0.00  0.00    +0.000 OA
ATOM      5  C   UNL     1      -3.136   8.814 137.596  0.00  0.00    +0.000 C 
ATOM      6  N   UNL     1      -2.023   7.959 137.042  0.00  0.00    +0.000 N 
ATOM      7  C   UNL     1      -1.257   8.288 135.932  0.00  0.00    +0.000 C 
ATOM      8  O   UNL     1      -0.459   7.386 135.637  0.00  0.00    +0.000 OA
ATOM      9  C   UNL     1      -1.703   9.711 134.987  0.00  0.00    +0.000 C 
ATOM     10  N   UNL     1      -0.499  10.392 134.884  0.00  0.00    +0.000 N 
ATOM     11  C   UNL     1       0.490  10.013 134.049  0.00  0.00    +0.000 C 
ATOM     12  O   UNL     1       1.505  10.708 134.046  0.00  0.00    +0.000 OA
ATOM     13  C   UNL     1       0.407   8.775 133.151  0.00  0.00    +0.000 C 
ATOM     14  C   UNL     1      -0.797   7.907 133.027  0.00  0.00    +0.000 C 
ATOM     15  S   UNL     1      -0.409   6.438 132.222  0.00  0.00    +0.000 S 
ATOM     16  S   UNL     1      -2.087   5.230 133.366  0.00  0.00    +0.000 S 
ATOM     17  C   UNL     1      -3.336   3.661 131.956  0.00  0.00    +0.000 C 
ATOM     18  C   UNL     1      -4.899   3.191 131.687  0.00  0.00    +0.000 C 
ATOM     19  N   UNL     1      -5.220   2.687 132.985  0.00  0.00    +0.000 N 
ATOM     20  C   UNL     1      -4.580   3.395 133.913  0.00  0.00    +0.000 C 
ATOM     21  O   UNL     1      -4.092   2.857 134.888  0.00  0.00    +0.000 OA
ATOM     22  C   UNL     1      -4.711   4.823 133.449  0.00  0.00    +0.000 C 
ATOM     23  N   UNL     1      -6.301   5.242 134.342  0.00  0.00    +0.000 N 
ATOM     24  C   UNL     1      -6.878   5.696 135.931  0.00  0.00    +0.000 C 
ATOM     25  O   UNL     1      -7.936   6.384 136.098  0.00  0.00    +0.000 OA
ATOM     26  H   UNL     1      -6.544   8.455 136.958  0.00  0.00    +0.000 HD
ATOM     27  H   UNL     1      -1.975   6.919 137.008  0.00  0.00    +0.000 HD
ATOM     28  H   UNL     1      -0.449  11.254 135.405  0.00  0.00    +0.000 HD
ATOM     29  H   UNL     1      -5.055   1.762 133.327  0.00  0.00    +0.000 HD
ATOM     30  H   UNL     1      -6.900   5.579 133.582  0.00  0.00    +0.000 HD
ENDROOT
BRANCH  18  31
ATOM     31  C   UNL     1      -6.060   4.280 130.995  0.00  0.00    +0.000 C 
ATOM     32  O   UNL     1      -5.662   4.849 129.963  0.00  0.00    +0.000 OA
ATOM     33  N   UNL     1      -7.490   4.176 131.243  0.00  0.00    +0.000 N 
ATOM     34  C   UNL     1      -8.224   3.796 132.417  0.00  0.00    +0.000 C 
ATOM     35  C   UNL     1      -9.415   2.890 132.049  0.00  0.00    +0.000 C 
ATOM     36  C   UNL     1      -9.861   3.430 130.745  0.00  0.00    +0.000 C 
ATOM     37  C   UNL     1      -8.535   4.167 130.221  0.00  0.00    +0.000 C 
BRANCH  37  38
ATOM     38  C   UNL     1      -8.436   3.216 129.191  0.00  0.00    +0.000 C 
ATOM     39  O   UNL     1      -9.552   2.652 129.086  0.00  0.00    +0.000 OA
ATOM     40  N   UNL     1      -7.303   3.344 128.332  0.00  0.00    +0.000 N 
ATOM     41  H   UNL     1      -6.858   4.237 128.333  0.00  0.00    +0.000 HD
BRANCH  40  42
ATOM     42  C   UNL     1      -6.751   2.304 127.127  0.00  0.00    +0.000 C 
BRANCH  42  43
ATOM     43  C   UNL     1      -7.818   0.685 126.321  0.00  0.00    +0.000 C 
ATOM     44  O   UNL     1      -9.057   0.723 126.099  0.00  0.00    +0.000 OA
ATOM     45  N   UNL     1      -7.542  -0.683 126.095  0.00  0.00    +0.000 N 
ATOM     46  H   UNL     1      -7.319  -0.973 127.019  0.00  0.00    +0.000 HD
BRANCH  45  47
ATOM     47  C   UNL     1      -8.664  -1.670 125.620  0.00  0.00    +0.000 C 
BRANCH  47  48
ATOM     48  C   UNL     1      -9.113  -2.263 124.112  0.00  0.00    +0.000 C 
ATOM     49  N   UNL     1      -8.824  -3.547 124.084  0.00  0.00    +0.000 N 
ATOM     50  O   UNL     1      -9.700  -1.810 123.145  0.00  0.00    +0.000 OA
ATOM     51  H   UNL     1      -8.345  -3.680 124.947  0.00  0.00    +0.000 HD
ATOM     52  H   UNL     1      -9.326  -4.291 123.586  0.00  0.00    +0.000 HD
ENDBRANCH  47  48
ENDBRANCH  45  47
ENDBRANCH  42  43
BRANCH  42  53
ATOM     53  C   UNL     1      -4.558   1.981 127.266  0.00  0.00    +0.000 C 
BRANCH  53  54
ATOM     54  C   UNL     1      -3.481   2.870 127.725  0.00  0.00    +0.000 C 
BRANCH  54  55
ATOM     55  C   UNL     1      -3.732   4.037 126.957  0.00  0.00    +0.000 C 
BRANCH  55  56
ATOM     56  N   UNL     1      -2.643   4.589 127.630  0.00  0.00    +0.000 NA
ATOM     57  C   UNL     1      -2.866   5.768 127.935  0.00  0.00    +0.000 C 
ATOM     58  N   UNL     1      -3.990   6.383 127.613  0.00  0.00    +0.000 N 
ATOM     59  N   UNL     1      -1.873   6.281 128.614  0.00  0.00    +0.000 N 
ATOM     60  H   UNL     1      -4.686   5.887 127.058  0.00  0.00    +0.000 HD
ATOM     61  H   UNL     1      -4.173   7.317 127.855  0.00  0.00    +0.000 HD
ATOM     62  H   UNL     1      -1.083   5.656 128.778  0.00  0.00    +0.000 HD
ATOM     63  H   UNL     1      -1.900   7.207 128.953  0.00  0.00    +0.000 HD
ENDBRANCH  55  56
ENDBRANCH  54  55
ENDBRANCH  53  54
ENDBRANCH  42  53
ENDBRANCH  40  42
ENDBRANCH  37  38
ENDBRANCH  18  31
BRANCH   1  64
ATOM     64  C   UNL     1      -5.728   4.776 138.256  0.00  0.00    +0.000 C 
ATOM     65  C   UNL     1      -5.935   4.548 140.069  0.00  0.00    +0.000 C 
BRANCH  64  67
ATOM     66  C   UNL     1      -4.100   3.203 138.064  0.00  0.00    +0.000 C 
ATOM     67  C   UNL     1      -4.341   4.654 137.892  0.00  0.00    +0.000 C 
ENDBRANCH  64  67
ENDBRANCH   1  64
BRANCH   9  68
ATOM     68  C   UNL     1      -2.476   9.911 133.600  0.00  0.00    +0.000 C 
BRANCH  68  69
ATOM     69  C   UNL     1      -2.340  11.321 133.306  0.00  0.00    +0.000 A 
ATOM     70  C   UNL     1      -1.477  11.804 132.175  0.00  0.00    +0.000 A 
ATOM     71  C   UNL     1      -1.468  13.582 131.567  0.00  0.00    +0.000 A 
ATOM     72  C   UNL     1      -2.499  14.847 132.271  0.00  0.00    +0.000 A 
ATOM     73  C   UNL     1      -3.409  14.249 133.348  0.00  0.00    +0.000 A 
ATOM     74  C   UNL     1      -3.173  12.464 133.962  0.00  0.00    +0.000 A 
BRANCH  72  75
ATOM     75  O   UNL     1      -2.531  16.206 132.250  0.00  0.00    +0.000 OA
ATOM     76  H   UNL     1      -2.200  16.566 131.400  0.00  0.00    +0.000 HD
ENDBRANCH  72  75
ENDBRANCH  68  69
ENDBRANCH   9  68
BRANCH   5  77
ATOM     77  C   UNL     1      -3.790   8.275 138.788  0.00  0.00    +0.000 C 
BRANCH  77  78
ATOM     78  C   UNL     1      -3.213   7.554 139.935  0.00  0.00    +0.000 A 
ATOM     79  C   UNL     1      -2.076   6.713 140.000  0.00  0.00    +0.000 A 
ATOM     80  C   UNL     1      -2.149   5.572 140.668  0.00  0.00    +0.000 A 
ATOM     81  C   UNL     1      -2.785   5.806 141.835  0.00  0.00    +0.000 A 
ATOM     82  C   UNL     1      -3.603   6.942 142.043  0.00  0.00    +0.000 A 
ATOM     83  C   UNL     1      -3.852   7.839 141.064  0.00  0.00    +0.000 A 
ENDBRANCH  77  78
ENDBRANCH   5  77
BRANCH  22  84
ATOM     84  C   UNL     1      -3.695   5.595 131.916  0.00  0.00    +0.000 C 
BRANCH  84  85
ATOM     85  C   UNL     1      -4.173   7.227 131.002  0.00  0.00    +0.000 C 
ATOM     86  N   UNL     1      -5.918   7.431 131.023  0.00  0.00    +0.000 N 
ATOM     87  O   UNL     1      -3.244   8.095 130.812  0.00  0.00    +0.000 OA
ATOM     88  H   UNL     1      -6.395   6.354 131.237  0.00  0.00    +0.000 HD
ATOM     89  H   UNL     1      -6.508   7.634 130.231  0.00  0.00    +0.000 HD
ENDBRANCH  84  85
ENDBRANCH  22  84
TORSDOF 19
ENDMDL
MODEL 7
REMARK VINA RESULT:      -8.8      4.823      9.017
REMARK  Name = CHEMBL1790575
REMARK  21 active torsions:
REMARK  status: ('A' for Active; 'I' for Inactive)
REMARK    1  A    between atoms: C_1  and  C_2
REMARK    2  A    between atoms: C_2  and  C_3
REMARK    3  A    between atoms: C_3  and  C_4
REMARK    4  A    between atoms: C_3  and  C_5
REMARK    5  A    between atoms: C_9  and  C_10
REMARK    6  A    between atoms: C_10  and  C_11
REMARK    7  A    between atoms: C_20  and  C_21
REMARK    8  A    between atoms: C_21  and  C_22
REMARK    9  A    between atoms: C_25  and  O_26
REMARK   10  A    between atoms: C_37  and  C_38
REMARK   11  A    between atoms: C_44  and  C_45
REMARK   12  A    between atoms: N_47  and  C_48
REMARK   13  A    between atoms: C_48  and  C_49
REMARK   14  A    between atoms: C_48  and  C_56
REMARK   15  A    between atoms: C_49  and  C_50
REMARK   16  A    between atoms: C_50  and  C_51
REMARK   17  A    between atoms: C_51  and  N_52
REMARK   18  A    between atoms: N_58  and  C_59
REMARK   19  A    between atoms: C_59  and  C_60
REMARK   20  A    between atoms: C_66  and  C_67
REMARK   21  A    between atoms: C_67  and  C_68
REMARK                            x       y       z     vdW  Elec       q    Type
REMARK                         _______ _______ _______ _____ _____    ______ ____
ROOT
ATOM      1  C   UNL     1      -5.698   5.054 137.162  0.00  0.00    +0.000 C 
ATOM      2  N   UNL     1      -5.491   6.907 137.557  0.00  0.00    +0.000 N 
ATOM      3  C   UNL     1      -4.375   8.167 137.544  0.00  0.00    +0.000 C 
ATOM      4  O   UNL     1      -4.500   9.377 137.269  0.00  0.00    +0.000 OA
ATOM      5  C   UNL     1      -2.968   7.842 137.931  0.00  0.00    +0.000 C 
ATOM      6  N   UNL     1      -1.809   7.190 137.220  0.00  0.00    +0.000 N 
ATOM      7  C   UNL     1      -1.082   7.780 136.195  0.00  0.00    +0.000 C 
ATOM      8  O   UNL     1      -0.230   7.009 135.729  0.00  0.00    +0.000 OA
ATOM      9  C   UNL     1      -1.636   9.326 135.546  0.00  0.00    +0.000 C 
ATOM     10  N   UNL     1      -0.482  10.094 135.577  0.00  0.00    +0.000 N 
ATOM     11  C   UNL     1       0.519   9.953 134.683  0.00  0.00    +0.000 C 
ATOM     12  O   UNL     1       1.484  10.704 134.814  0.00  0.00    +0.000 OA
ATOM     13  C   UNL     1       0.506   8.912 133.561  0.00  0.00    +0.000 C 
ATOM     14  C   UNL     1      -0.640   8.004 133.271  0.00  0.00    +0.000 C 
ATOM     15  S   UNL     1      -0.165   6.750 132.195  0.00  0.00    +0.000 S 
ATOM     16  S   UNL     1      -1.742   5.231 133.082  0.00  0.00    +0.000 S 
ATOM     17  C   UNL     1      -2.904   3.884 131.394  0.00  0.00    +0.000 C 
ATOM     18  C   UNL     1      -4.435   3.370 131.041  0.00  0.00    +0.000 C 
ATOM     19  N   UNL     1      -4.703   2.602 132.215  0.00  0.00    +0.000 N 
ATOM     20  C   UNL     1      -4.099   3.158 133.263  0.00  0.00    +0.000 C 
ATOM     21  O   UNL     1      -3.563   2.475 134.114  0.00  0.00    +0.000 OA
ATOM     22  C   UNL     1      -4.332   4.636 133.087  0.00  0.00    +0.000 C 
ATOM     23  N   UNL     1      -5.933   4.764 134.045  0.00  0.00    +0.000 N 
ATOM     24  C   UNL     1      -6.517   4.859 135.693  0.00  0.00    +0.000 C 
ATOM     25  O   UNL     1      -7.616   5.428 135.992  0.00  0.00    +0.000 OA
ATOM     26  H   UNL     1      -6.354   7.383 137.238  0.00  0.00    +0.000 HD
ATOM     27  H   UNL     1      -1.692   6.182 136.983  0.00  0.00    +0.000 HD
ATOM     28  H   UNL     1      -0.483  10.840 136.256  0.00  0.00    +0.000 HD
ATOM     29  H   UNL     1      -4.472   1.641 132.370  0.00  0.00    +0.000 HD
ATOM     30  H   UNL     1      -6.565   5.200 133.367  0.00  0.00    +0.000 HD
ENDROOT
BRANCH  18  31
ATOM     31  C   UNL     1      -5.676   4.490 130.575  0.00  0.00    +0.000 C 
ATOM     32  O   UNL     1      -5.314   5.311 129.713  0.00  0.00    +0.000 OA
ATOM     33  N   UNL     1      -7.095   4.217 130.744  0.00  0.00    +0.000 N 
ATOM     34  C   UNL     1      -7.810   3.519 131.777  0.00  0.00    +0.000 C 
ATOM     35  C   UNL     1      -8.913   2.629 131.172  0.00  0.00    +0.000 C 
ATOM     36  C   UNL     1      -9.386   3.415 130.010  0.00  0.00    +0.000 C 
ATOM     37  C   UNL     1      -8.121   4.357 129.713  0.00  0.00    +0.000 C 
BRANCH  37  38
ATOM     38  C   UNL     1      -7.925   3.679 128.498  0.00  0.00    +0.000 C 
ATOM     39  O   UNL     1      -8.502   4.337 127.599  0.00  0.00    +0.000 OA
ATOM     40  N   UNL     1      -6.905   2.681 128.498  0.00  0.00    +0.000 N 
ATOM     41  H   UNL     1      -6.231   2.752 129.231  0.00  0.00    +0.000 HD
BRANCH  40  42
ATOM     42  C   UNL     1      -6.511   1.551 127.312  0.00  0.00    +0.000 C 
BRANCH  42  43
ATOM     43  C   UNL     1      -5.919  -0.434 127.658  0.00  0.00    +0.000 C 
ATOM     44  O   UNL     1      -6.662  -1.422 127.422  0.00  0.00    +0.000 OA
ATOM     45  N   UNL     1      -4.849  -1.053 128.344  0.00  0.00    +0.000 N 
ATOM     46  H   UNL     1      -4.979  -0.675 129.253  0.00  0.00    +0.000 HD
BRANCH  45  47
ATOM     47  C   UNL     1      -4.810  -2.608 128.553  0.00  0.00    +0.000 C 
BRANCH  47  48
ATOM     48  C   UNL     1      -5.410  -3.624 129.751  0.00  0.00    +0.000 C 
ATOM     49  N   UNL     1      -6.723  -3.526 129.739  0.00  0.00    +0.000 N 
ATOM     50  O   UNL     1      -4.927  -4.449 130.506  0.00  0.00    +0.000 OA
ATOM     51  H   UNL     1      -6.880  -2.797 129.079  0.00  0.00    +0.000 HD
ATOM     52  H   UNL     1      -7.408  -4.258 129.957  0.00  0.00    +0.000 HD
ENDBRANCH  47  48
ENDBRANCH  45  47
ENDBRANCH  42  43
BRANCH  42  53
ATOM     53  C   UNL     1      -5.539   2.508 125.560  0.00  0.00    +0.000 C 
BRANCH  53  54
ATOM     54  C   UNL     1      -5.145   3.904 125.321  0.00  0.00    +0.000 C 
BRANCH  54  55
ATOM     55  C   UNL     1      -4.638   4.276 126.593  0.00  0.00    +0.000 C 
BRANCH  55  56
ATOM     56  N   UNL     1      -3.469   3.625 126.203  0.00  0.00    +0.000 NA
ATOM     57  C   UNL     1      -2.525   3.934 126.942  0.00  0.00    +0.000 C 
ATOM     58  N   UNL     1      -2.655   4.798 127.933  0.00  0.00    +0.000 N 
ATOM     59  N   UNL     1      -1.434   3.288 126.620  0.00  0.00    +0.000 N 
ATOM     60  H   UNL     1      -3.552   5.260 128.075  0.00  0.00    +0.000 HD
ATOM     61  H   UNL     1      -1.909   5.045 128.524  0.00  0.00    +0.000 HD
ATOM     62  H   UNL     1      -1.519   2.651 125.826  0.00  0.00    +0.000 HD
ATOM     63  H   UNL     1      -0.595   3.404 127.123  0.00  0.00    +0.000 HD
ENDBRANCH  55  56
ENDBRANCH  54  55
ENDBRANCH  53  54
ENDBRANCH  42  53
ENDBRANCH  40  42
ENDBRANCH  37  38
ENDBRANCH  18  31
BRANCH   1  64
ATOM     64  C   UNL     1      -5.275   3.586 137.793  0.00  0.00    +0.000 C 
ATOM     65  C   UNL     1      -5.392   3.014 139.537  0.00  0.00    +0.000 C 
BRANCH  64  67
ATOM     66  C   UNL     1      -3.564   2.168 137.319  0.00  0.00    +0.000 C 
ATOM     67  C   UNL     1      -3.901   3.609 137.366  0.00  0.00    +0.000 C 
ENDBRANCH  64  67
ENDBRANCH   1  64
BRANCH   9  68
ATOM     68  C   UNL     1      -2.441   9.738 134.226  0.00  0.00    +0.000 C 
BRANCH  68  69
ATOM     69  C   UNL     1      -2.562  11.178 134.306  0.00  0.00    +0.000 A 
ATOM     70  C   UNL     1      -2.439  11.902 135.617  0.00  0.00    +0.000 A 
ATOM     71  C   UNL     1      -2.313  13.771 135.759  0.00  0.00    +0.000 A 
ATOM     72  C   UNL     1      -2.310  14.847 134.345  0.00  0.00    +0.000 A 
ATOM     73  C   UNL     1      -2.344  14.024 133.054  0.00  0.00    +0.000 A 
ATOM     74  C   UNL     1      -2.642  12.145 133.086  0.00  0.00    +0.000 A 
BRANCH  72  75
ATOM     75  O   UNL     1      -2.501  16.176 134.127  0.00  0.00    +0.000 OA
ATOM     76  H   UNL     1      -1.650  16.655 134.030  0.00  0.00    +0.000 HD
ENDBRANCH  72  75
ENDBRANCH  68  69
ENDBRANCH   9  68
BRANCH   5  77
ATOM     77  C   UNL     1      -3.568   7.038 138.996  0.00  0.00    +0.000 C 
BRANCH  77  78
ATOM     78  C   UNL     1      -2.930   6.133 139.966  0.00  0.00    +0.000 A 
ATOM     79  C   UNL     1      -1.736   5.381 139.856  0.00  0.00    +0.000 A 
ATOM     80  C   UNL     1      -1.721   4.122 140.265  0.00  0.00    +0.000 A 
ATOM     81  C   UNL     1      -2.361   4.056 141.452  0.00  0.00    +0.000 A 
ATOM     82  C   UNL     1      -3.255   5.060 141.893  0.00  0.00    +0.000 A 
ATOM     83  C   UNL     1      -3.576   6.125 141.126  0.00  0.00    +0.000 A 
ENDBRANCH  77  78
ENDBRANCH   5  77
BRANCH  22  84
ATOM     84  C   UNL     1      -3.392   5.759 131.732  0.00  0.00    +0.000 C 
BRANCH  84  85
ATOM     85  C   UNL     1      -3.993   7.500 131.152  0.00  0.00    +0.000 C 
ATOM     86  N   UNL     1      -5.749   7.558 131.169  0.00  0.00    +0.000 N 
ATOM     87  O   UNL     1      -3.136   8.459 131.165  0.00  0.00    +0.000 OA
ATOM     88  H   UNL     1      -6.138   6.427 131.150  0.00  0.00    +0.000 HD
ATOM     89  H   UNL     1      -6.345   7.871 130.419  0.00  0.00    +0.000 HD
ENDBRANCH  84  85
ENDBRANCH  22  84
TORSDOF 19
ENDMDL
MODEL 8
REMARK VINA RESULT:      -8.8      4.711      8.834
REMARK  Name = CHEMBL1790575
REMARK  21 active torsions:
REMARK  status: ('A' for Active; 'I' for Inactive)
REMARK    1  A    between atoms: C_1  and  C_2
REMARK    2  A    between atoms: C_2  and  C_3
REMARK    3  A    between atoms: C_3  and  C_4
REMARK    4  A    between atoms: C_3  and  C_5
REMARK    5  A    between atoms: C_9  and  C_10
REMARK    6  A    between atoms: C_10  and  C_11
REMARK    7  A    between atoms: C_20  and  C_21
REMARK    8  A    between atoms: C_21  and  C_22
REMARK    9  A    between atoms: C_25  and  O_26
REMARK   10  A    between atoms: C_37  and  C_38
REMARK   11  A    between atoms: C_44  and  C_45
REMARK   12  A    between atoms: N_47  and  C_48
REMARK   13  A    between atoms: C_48  and  C_49
REMARK   14  A    between atoms: C_48  and  C_56
REMARK   15  A    between atoms: C_49  and  C_50
REMARK   16  A    between atoms: C_50  and  C_51
REMARK   17  A    between atoms: C_51  and  N_52
REMARK   18  A    between atoms: N_58  and  C_59
REMARK   19  A    between atoms: C_59  and  C_60
REMARK   20  A    between atoms: C_66  and  C_67
REMARK   21  A    between atoms: C_67  and  C_68
REMARK                            x       y       z     vdW  Elec       q    Type
REMARK                         _______ _______ _______ _____ _____    ______ ____
ROOT
ATOM      1  C   UNL     1      -5.207   4.058 136.630  0.00  0.00    +0.000 C 
ATOM      2  N   UNL     1      -5.098   5.833 137.313  0.00  0.00    +0.000 N 
ATOM      3  C   UNL     1      -4.073   7.163 137.441  0.00  0.00    +0.000 C 
ATOM      4  O   UNL     1      -4.301   8.387 137.380  0.00  0.00    +0.000 OA
ATOM      5  C   UNL     1      -2.624   6.892 137.682  0.00  0.00    +0.000 C 
ATOM      6  N   UNL     1      -1.478   6.457 136.803  0.00  0.00    +0.000 N 
ATOM      7  C   UNL     1      -0.871   7.260 135.846  0.00  0.00    +0.000 C 
ATOM      8  O   UNL     1      -0.005   6.644 135.208  0.00  0.00    +0.000 OA
ATOM      9  C   UNL     1      -1.575   8.841 135.499  0.00  0.00    +0.000 C 
ATOM     10  N   UNL     1      -0.476   9.684 135.586  0.00  0.00    +0.000 N 
ATOM     11  C   UNL     1       0.463   9.768 134.622  0.00  0.00    +0.000 C 
ATOM     12  O   UNL     1       1.383  10.561 134.816  0.00  0.00    +0.000 OA
ATOM     13  C   UNL     1       0.438   8.924 133.345  0.00  0.00    +0.000 C 
ATOM     14  C   UNL     1      -0.661   7.987 132.979  0.00  0.00    +0.000 C 
ATOM     15  S   UNL     1      -0.184   6.964 131.682  0.00  0.00    +0.000 S 
ATOM     16  S   UNL     1      -1.584   5.202 132.400  0.00  0.00    +0.000 S 
ATOM     17  C   UNL     1      -2.773   4.057 130.586  0.00  0.00    +0.000 C 
ATOM     18  C   UNL     1      -4.288   3.488 130.247  0.00  0.00    +0.000 C 
ATOM     19  N   UNL     1      -4.416   2.522 131.292  0.00  0.00    +0.000 N 
ATOM     20  C   UNL     1      -3.775   2.948 132.378  0.00  0.00    +0.000 C 
ATOM     21  O   UNL     1      -3.133   2.181 133.069  0.00  0.00    +0.000 OA
ATOM     22  C   UNL     1      -4.120   4.412 132.465  0.00  0.00    +0.000 C 
ATOM     23  N   UNL     1      -5.651   4.256 133.528  0.00  0.00    +0.000 N 
ATOM     24  C   UNL     1      -6.117   4.038 135.202  0.00  0.00    +0.000 C 
ATOM     25  O   UNL     1      -7.227   4.463 135.658  0.00  0.00    +0.000 OA
ATOM     26  H   UNL     1      -6.012   6.284 137.132  0.00  0.00    +0.000 HD
ATOM     27  H   UNL     1      -1.311   5.513 136.394  0.00  0.00    +0.000 HD
ATOM     28  H   UNL     1      -0.477  10.308 136.378  0.00  0.00    +0.000 HD
ATOM     29  H   UNL     1      -4.109   1.570 131.271  0.00  0.00    +0.000 HD
ATOM     30  H   UNL     1      -6.359   4.745 132.972  0.00  0.00    +0.000 HD
ENDROOT
BRANCH  18  31
ATOM     31  C   UNL     1      -5.633   4.567 130.052  0.00  0.00    +0.000 C 
ATOM     32  O   UNL     1      -5.403   5.523 129.289  0.00  0.00    +0.000 OA
ATOM     33  N   UNL     1      -7.011   4.169 130.298  0.00  0.00    +0.000 N 
ATOM     34  C   UNL     1      -7.583   3.286 131.275  0.00  0.00    +0.000 C 
ATOM     35  C   UNL     1      -8.680   2.408 130.643  0.00  0.00    +0.000 C 
ATOM     36  C   UNL     1      -9.306   3.309 129.649  0.00  0.00    +0.000 C 
ATOM     37  C   UNL     1      -8.135   4.374 129.386  0.00  0.00    +0.000 C 
BRANCH  37  38
ATOM     38  C   UNL     1      -8.011   3.886 128.074  0.00  0.00    +0.000 C 
ATOM     39  O   UNL     1      -8.603   4.688 127.313  0.00  0.00    +0.000 OA
ATOM     40  N   UNL     1      -7.024   2.873 127.876  0.00  0.00    +0.000 N 
ATOM     41  H   UNL     1      -6.319   2.814 128.580  0.00  0.00    +0.000 HD
BRANCH  40  42
ATOM     42  C   UNL     1      -6.717   1.928 126.515  0.00  0.00    +0.000 C 
BRANCH  42  43
ATOM     43  C   UNL     1      -6.328   2.652 124.583  0.00  0.00    +0.000 C 
ATOM     44  O   UNL     1      -5.579   3.639 124.359  0.00  0.00    +0.000 OA
ATOM     45  N   UNL     1      -6.887   2.436 123.303  0.00  0.00    +0.000 N 
ATOM     46  H   UNL     1      -7.830   2.694 123.475  0.00  0.00    +0.000 HD
BRANCH  45  47
ATOM     47  C   UNL     1      -6.449   3.301 122.069  0.00  0.00    +0.000 C 
BRANCH  47  48
ATOM     48  C   UNL     1      -7.250   3.824 120.687  0.00  0.00    +0.000 C 
ATOM     49  N   UNL     1      -8.537   3.866 120.962  0.00  0.00    +0.000 N 
ATOM     50  O   UNL     1      -6.907   4.239 119.594  0.00  0.00    +0.000 OA
ATOM     51  H   UNL     1      -8.576   3.471 121.875  0.00  0.00    +0.000 HD
ATOM     52  H   UNL     1      -9.236   4.519 120.589  0.00  0.00    +0.000 HD
ENDBRANCH  47  48
ENDBRANCH  45  47
ENDBRANCH  42  43
BRANCH  42  53
ATOM     53  C   UNL     1      -7.850   0.019 126.571  0.00  0.00    +0.000 C 
BRANCH  53  54
ATOM     54  C   UNL     1      -8.749  -0.596 125.583  0.00  0.00    +0.000 C 
BRANCH  54  55
ATOM     55  C   UNL     1      -7.835  -1.351 124.802  0.00  0.00    +0.000 C 
BRANCH  55  56
ATOM     56  N   UNL     1      -8.865  -2.281 124.681  0.00  0.00    +0.000 NA
ATOM     57  C   UNL     1      -9.019  -2.617 123.500  0.00  0.00    +0.000 C 
ATOM     58  N   UNL     1      -8.299  -2.104 122.518  0.00  0.00    +0.000 N 
ATOM     59  N   UNL     1      -9.948  -3.530 123.379  0.00  0.00    +0.000 N 
ATOM     60  H   UNL     1      -7.617  -1.377 122.730  0.00  0.00    +0.000 HD
ATOM     61  H   UNL     1      -8.415  -2.369 121.579  0.00  0.00    +0.000 HD
ATOM     62  H   UNL     1     -10.399  -3.815 124.250  0.00  0.00    +0.000 HD
ATOM     63  H   UNL     1     -10.180  -3.922 122.505  0.00  0.00    +0.000 HD
ENDBRANCH  55  56
ENDBRANCH  54  55
ENDBRANCH  53  54
ENDBRANCH  42  53
ENDBRANCH  40  42
ENDBRANCH  37  38
ENDBRANCH  18  31
BRANCH   1  64
ATOM     64  C   UNL     1      -4.640   2.545 136.980  0.00  0.00    +0.000 C 
ATOM     65  C   UNL     1      -5.099   0.943 136.202  0.00  0.00    +0.000 C 
BRANCH  64  67
ATOM     66  C   UNL     1      -3.728   2.182 139.029  0.00  0.00    +0.000 C 
ATOM     67  C   UNL     1      -5.004   2.547 138.372  0.00  0.00    +0.000 C 
ENDBRANCH  64  67
ENDBRANCH   1  64
BRANCH   9  68
ATOM     68  C   UNL     1      -2.500   9.397 134.318  0.00  0.00    +0.000 C 
BRANCH  68  69
ATOM     69  C   UNL     1      -2.546  10.828 134.531  0.00  0.00    +0.000 A 
ATOM     70  C   UNL     1      -2.524  11.414 135.914  0.00  0.00    +0.000 A 
ATOM     71  C   UNL     1      -2.306  13.249 136.256  0.00  0.00    +0.000 A 
ATOM     72  C   UNL     1      -2.088  14.450 134.965  0.00  0.00    +0.000 A 
ATOM     73  C   UNL     1      -2.029  13.757 133.601  0.00  0.00    +0.000 A 
ATOM     74  C   UNL     1      -2.437  11.909 133.413  0.00  0.00    +0.000 A 
BRANCH  72  75
ATOM     75  O   UNL     1      -2.176  15.804 134.864  0.00  0.00    +0.000 OA
ATOM     76  H   UNL     1      -2.969  16.153 135.324  0.00  0.00    +0.000 HD
ENDBRANCH  72  75
ENDBRANCH  68  69
ENDBRANCH   9  68
BRANCH   5  77
ATOM     77  C   UNL     1      -3.087   5.882 138.633  0.00  0.00    +0.000 C 
BRANCH  77  78
ATOM     78  C   UNL     1      -2.477   5.423 139.891  0.00  0.00    +0.000 A 
ATOM     79  C   UNL     1      -1.139   5.058 140.171  0.00  0.00    +0.000 A 
ATOM     80  C   UNL     1      -0.897   3.970 140.886  0.00  0.00    +0.000 A 
ATOM     81  C   UNL     1      -1.751   3.954 141.932  0.00  0.00    +0.000 A 
ATOM     82  C   UNL     1      -2.947   4.711 141.951  0.00  0.00    +0.000 A 
ATOM     83  C   UNL     1      -3.346   5.454 140.896  0.00  0.00    +0.000 A 
ENDBRANCH  77  78
ENDBRANCH   5  77
BRANCH  22  84
ATOM     84  C   UNL     1      -3.361   5.809 131.261  0.00  0.00    +0.000 C 
BRANCH  84  85
ATOM     85  C   UNL     1      -4.132   7.560 131.000  0.00  0.00    +0.000 C 
ATOM     86  N   UNL     1      -5.874   7.481 131.219  0.00  0.00    +0.000 N 
ATOM     87  O   UNL     1      -3.340   8.571 131.051  0.00  0.00    +0.000 OA
ATOM     88  H   UNL     1      -6.192   6.336 131.086  0.00  0.00    +0.000 HD
ATOM     89  H   UNL     1      -6.574   7.843 130.591  0.00  0.00    +0.000 HD
ENDBRANCH  84  85
ENDBRANCH  22  84
TORSDOF 19
ENDMDL
MODEL 9
REMARK VINA RESULT:      -8.7      3.238      8.106
REMARK  Name = CHEMBL1790575
REMARK  21 active torsions:
REMARK  status: ('A' for Active; 'I' for Inactive)
REMARK    1  A    between atoms: C_1  and  C_2
REMARK    2  A    between atoms: C_2  and  C_3
REMARK    3  A    between atoms: C_3  and  C_4
REMARK    4  A    between atoms: C_3  and  C_5
REMARK    5  A    between atoms: C_9  and  C_10
REMARK    6  A    between atoms: C_10  and  C_11
REMARK    7  A    between atoms: C_20  and  C_21
REMARK    8  A    between atoms: C_21  and  C_22
REMARK    9  A    between atoms: C_25  and  O_26
REMARK   10  A    between atoms: C_37  and  C_38
REMARK   11  A    between atoms: C_44  and  C_45
REMARK   12  A    between atoms: N_47  and  C_48
REMARK   13  A    between atoms: C_48  and  C_49
REMARK   14  A    between atoms: C_48  and  C_56
REMARK   15  A    between atoms: C_49  and  C_50
REMARK   16  A    between atoms: C_50  and  C_51
REMARK   17  A    between atoms: C_51  and  N_52
REMARK   18  A    between atoms: N_58  and  C_59
REMARK   19  A    between atoms: C_59  and  C_60
REMARK   20  A    between atoms: C_66  and  C_67
REMARK   21  A    between atoms: C_67  and  C_68
REMARK                            x       y       z     vdW  Elec       q    Type
REMARK                         _______ _______ _______ _____ _____    ______ ____
ROOT
ATOM      1  C   UNL     1      -6.897  -0.182 133.668  0.00  0.00    +0.000 C 
ATOM      2  N   UNL     1      -7.437   1.641 133.802  0.00  0.00    +0.000 N 
ATOM      3  C   UNL     1      -6.971   3.212 133.417  0.00  0.00    +0.000 C 
ATOM      4  O   UNL     1      -7.633   4.199 133.041  0.00  0.00    +0.000 OA
ATOM      5  C   UNL     1      -5.520   3.547 133.537  0.00  0.00    +0.000 C 
ATOM      6  N   UNL     1      -4.308   3.284 132.678  0.00  0.00    +0.000 N 
ATOM      7  C   UNL     1      -4.053   3.908 131.465  0.00  0.00    +0.000 C 
ATOM      8  O   UNL     1      -3.031   3.464 130.921  0.00  0.00    +0.000 OA
ATOM      9  C   UNL     1      -5.294   4.959 130.777  0.00  0.00    +0.000 C 
ATOM     10  N   UNL     1      -4.581   6.111 130.481  0.00  0.00    +0.000 N 
ATOM     11  C   UNL     1      -3.753   6.211 129.421  0.00  0.00    +0.000 C 
ATOM     12  O   UNL     1      -3.186   7.291 129.264  0.00  0.00    +0.000 OA
ATOM     13  C   UNL     1      -3.485   5.059 128.449  0.00  0.00    +0.000 C 
ATOM     14  C   UNL     1      -4.169   3.736 128.507  0.00  0.00    +0.000 C 
ATOM     15  S   UNL     1      -3.369   2.593 127.502  0.00  0.00    +0.000 S 
ATOM     16  S   UNL     1      -4.013   0.771 128.861  0.00  0.00    +0.000 S 
ATOM     17  C   UNL     1      -4.726  -1.215 127.613  0.00  0.00    +0.000 C 
ATOM     18  C   UNL     1      -5.931  -2.348 127.645  0.00  0.00    +0.000 C 
ATOM     19  N   UNL     1      -5.679  -2.924 128.927  0.00  0.00    +0.000 N 
ATOM     20  C   UNL     1      -5.223  -1.989 129.758  0.00  0.00    +0.000 C 
ATOM     21  O   UNL     1      -4.333  -2.233 130.550  0.00  0.00    +0.000 OA
ATOM     22  C   UNL     1      -6.080  -0.784 129.470  0.00  0.00    +0.000 C 
ATOM     23  N   UNL     1      -7.431  -1.120 130.720  0.00  0.00    +0.000 N 
ATOM     24  C   UNL     1      -7.758  -0.955 132.432  0.00  0.00    +0.000 C 
ATOM     25  O   UNL     1      -8.940  -0.821 132.887  0.00  0.00    +0.000 OA
ATOM     26  H   UNL     1      -8.456   1.669 133.618  0.00  0.00    +0.000 HD
ATOM     27  H   UNL     1      -3.812   2.378 132.536  0.00  0.00    +0.000 HD
ATOM     28  H   UNL     1      -4.799   6.910 131.058  0.00  0.00    +0.000 HD
ATOM     29  H   UNL     1      -5.044  -3.668 129.137  0.00  0.00    +0.000 HD
ATOM     30  H   UNL     1      -8.277  -1.104 130.143  0.00  0.00    +0.000 HD
ENDROOT
BRANCH  18  31
ATOM     31  C   UNL     1      -7.581  -1.916 127.325  0.00  0.00    +0.000 C 
ATOM     32  O   UNL     1      -7.981  -0.938 127.982  0.00  0.00    +0.000 OA
ATOM     33  N   UNL     1      -8.271  -2.275 126.095  0.00  0.00    +0.000 N 
ATOM     34  C   UNL     1      -8.191  -3.449 125.272  0.00  0.00    +0.000 C 
ATOM     35  C   UNL     1      -8.198  -3.071 123.778  0.00  0.00    +0.000 C 
ATOM     36  C   UNL     1      -9.099  -1.897 123.729  0.00  0.00    +0.000 C 
ATOM     37  C   UNL     1      -9.023  -1.359 125.239  0.00  0.00    +0.000 C 
BRANCH  37  38
ATOM     38  C   UNL     1      -8.367  -0.207 124.777  0.00  0.00    +0.000 C 
ATOM     39  O   UNL     1      -7.144  -0.475 124.690  0.00  0.00    +0.000 OA
ATOM     40  N   UNL     1      -9.204   0.805 124.216  0.00  0.00    +0.000 N 
ATOM     41  H   UNL     1     -10.109   0.504 123.924  0.00  0.00    +0.000 HD
BRANCH  40  42
ATOM     42  C   UNL     1      -8.815   2.373 123.737  0.00  0.00    +0.000 C 
BRANCH  42  43
ATOM     43  C   UNL     1      -7.504   2.890 122.181  0.00  0.00    +0.000 C 
ATOM     44  O   UNL     1      -6.306   2.503 122.137  0.00  0.00    +0.000 OA
ATOM     45  N   UNL     1      -7.529   3.823 121.120  0.00  0.00    +0.000 N 
ATOM     46  H   UNL     1      -7.648   4.667 121.629  0.00  0.00    +0.000 HD
BRANCH  45  47
ATOM     47  C   UNL     1      -6.265   4.066 120.222  0.00  0.00    +0.000 C 
BRANCH  47  48
ATOM     48  C   UNL     1      -5.356   5.433 119.859  0.00  0.00    +0.000 C 
ATOM     49  N   UNL     1      -5.663   5.805 118.634  0.00  0.00    +0.000 N 
ATOM     50  O   UNL     1      -4.601   6.159 120.482  0.00  0.00    +0.000 OA
ATOM     51  H   UNL     1      -6.260   5.069 118.328  0.00  0.00    +0.000 HD
ATOM     52  H   UNL     1      -5.690   6.759 118.257  0.00  0.00    +0.000 HD
ENDBRANCH  47  48
ENDBRANCH  45  47
ENDBRANCH  42  43
BRANCH  42  53
ATOM     53  C   UNL     1      -8.793   3.773 125.461  0.00  0.00    +0.000 C 
BRANCH  53  54
ATOM     54  C   UNL     1      -8.310   5.158 125.571  0.00  0.00    +0.000 C 
BRANCH  54  55
ATOM     55  C   UNL     1      -8.870   5.555 126.813  0.00  0.00    +0.000 C 
BRANCH  55  56
ATOM     56  N   UNL     1      -9.697   6.385 126.058  0.00  0.00    +0.000 NA
ATOM     57  C   UNL     1     -10.399   7.092 126.792  0.00  0.00    +0.000 C 
ATOM     58  N   UNL     1     -10.357   7.007 128.109  0.00  0.00    +0.000 N 
ATOM     59  N   UNL     1     -11.141   7.914 126.096  0.00  0.00    +0.000 N 
ATOM     60  H   UNL     1      -9.755   6.308 128.542  0.00  0.00    +0.000 HD
ATOM     61  H   UNL     1     -10.911   7.567 128.697  0.00  0.00    +0.000 HD
ATOM     62  H   UNL     1     -11.040   7.846 125.082  0.00  0.00    +0.000 HD
ATOM     63  H   UNL     1     -11.744   8.562 126.529  0.00  0.00    +0.000 HD
ENDBRANCH  55  56
ENDBRANCH  54  55
ENDBRANCH  53  54
ENDBRANCH  42  53
ENDBRANCH  40  42
ENDBRANCH  37  38
ENDBRANCH  18  31
BRANCH   1  64
ATOM     64  C   UNL     1      -5.808  -1.218 134.357  0.00  0.00    +0.000 C 
ATOM     65  C   UNL     1      -5.937  -2.112 135.958  0.00  0.00    +0.000 C 
BRANCH  64  67
ATOM     66  C   UNL     1      -3.730  -0.960 133.475  0.00  0.00    +0.000 C 
ATOM     67  C   UNL     1      -4.699  -0.303 134.383  0.00  0.00    +0.000 C 
ENDBRANCH  64  67
ENDBRANCH   1  64
BRANCH   9  68
ATOM     68  C   UNL     1      -6.377   4.766 129.615  0.00  0.00    +0.000 C 
BRANCH  68  69
ATOM     69  C   UNL     1      -7.645   5.075 130.241  0.00  0.00    +0.000 A 
ATOM     70  C   UNL     1      -7.923   6.436 130.813  0.00  0.00    +0.000 A 
ATOM     71  C   UNL     1      -9.625   6.988 131.389  0.00  0.00    +0.000 A 
ATOM     72  C   UNL     1     -11.061   5.945 131.288  0.00  0.00    +0.000 A 
ATOM     73  C   UNL     1     -10.706   4.619 130.611  0.00  0.00    +0.000 A 
ATOM     74  C   UNL     1      -8.899   4.150 130.240  0.00  0.00    +0.000 A 
BRANCH  72  75
ATOM     75  O   UNL     1     -12.304   5.938 131.839  0.00  0.00    +0.000 OA
ATOM     76  H   UNL     1     -12.350   6.497 132.644  0.00  0.00    +0.000 HD
ENDBRANCH  72  75
ENDBRANCH  68  69
ENDBRANCH   9  68
BRANCH   5  77
ATOM     77  C   UNL     1      -5.565   2.787 134.786  0.00  0.00    +0.000 C 
BRANCH  77  78
ATOM     78  C   UNL     1      -4.996   3.108 136.105  0.00  0.00    +0.000 A 
ATOM     79  C   UNL     1      -4.489   2.247 137.108  0.00  0.00    +0.000 A 
ATOM     80  C   UNL     1      -4.821   2.457 138.373  0.00  0.00    +0.000 A 
ATOM     81  C   UNL     1      -4.729   3.781 138.620  0.00  0.00    +0.000 A 
ATOM     82  C   UNL     1      -4.736   4.751 137.589  0.00  0.00    +0.000 A 
ATOM     83  C   UNL     1      -4.897   4.419 136.290  0.00  0.00    +0.000 A 
ENDBRANCH  77  78
ENDBRANCH   5  77
BRANCH  22  84
ATOM     84  C   UNL     1      -5.906   0.343 127.833  0.00  0.00    +0.000 C 
BRANCH  84  85
ATOM     85  C   UNL     1      -7.076   1.815 127.393  0.00  0.00    +0.000 C 
ATOM     86  N   UNL     1      -8.532   1.731 128.374  0.00  0.00    +0.000 N 
ATOM     87  O   UNL     1      -6.566   2.810 126.759  0.00  0.00    +0.000 OA
ATOM     88  H   UNL     1      -8.622   0.606 128.772  0.00  0.00    +0.000 HD
ATOM     89  H   UNL     1      -9.482   1.784 128.041  0.00  0.00    +0.000 HD
ENDBRANCH  84  85
ENDBRANCH  22  84
TORSDOF 19
ENDMDL
