MODEL 1
REMARK VINA RESULT:      -7.6      0.000      0.000
REMARK  Name = CHEMBL592733
REMARK  9 active torsions:
REMARK  status: ('A' for Active; 'I' for Inactive)
REMARK    1  A    between atoms: C_1  and  O_2
REMARK    2  A    between atoms: O_2  and  C_3
REMARK    3  A    between atoms: C_3  and  C_4
REMARK    4  A    between atoms: C_11  and  O_12
REMARK    5  A    between atoms: O_12  and  C_13
REMARK    6  A    between atoms: C_18  and  C_19
REMARK    7  A    between atoms: N_21  and  C_22
REMARK    8  A    between atoms: C_25  and  O_26
REMARK    9  A    between atoms: O_26  and  C_27
REMARK                            x       y       z     vdW  Elec       q    Type
REMARK                         _______ _______ _______ _____ _____    ______ ____
ROOT
ATOM      1  C   UNL     1      -4.790   2.787 126.283  0.00  0.00    +0.000 A 
ATOM      2  N   UNL     1      -4.900   3.720 125.351  0.00  0.00    +0.000 NA
ATOM      3  N   UNL     1      -5.972   3.405 124.533  0.00  0.00    +0.000 NA
ATOM      4  C   UNL     1      -6.555   2.309 124.994  0.00  0.00    +0.000 A 
ATOM      5  N   UNL     1      -7.712   1.721 124.571  0.00  0.00    +0.000 N 
ATOM      6  C   UNL     1      -8.813   1.348 125.438  0.00  0.00    +0.000 C 
ATOM      7  C   UNL     1      -9.199  -0.027 124.938  0.00  0.00    +0.000 C 
ATOM      8  C   UNL     1      -9.071   0.089 123.413  0.00  0.00    +0.000 C 
ATOM      9  C   UNL     1      -7.877   1.099 123.250  0.00  0.00    +0.000 C 
ATOM     10  N   UNL     1      -5.816   1.882 126.096  0.00  0.00    +0.000 N 
ENDROOT
BRANCH  10  11
ATOM     11  C   UNL     1      -6.041   0.720 126.836  0.00  0.00    +0.000 A 
ATOM     12  C   UNL     1      -5.607  -0.504 126.350  0.00  0.00    +0.000 A 
ATOM     13  C   UNL     1      -5.788  -1.616 127.156  0.00  0.00    +0.000 A 
ATOM     14  C   UNL     1      -6.399  -1.461 128.399  0.00  0.00    +0.000 A 
ATOM     15  N   UNL     1      -6.841  -0.270 128.859  0.00  0.00    +0.000 NA
ATOM     16  C   UNL     1      -6.660   0.805 128.067  0.00  0.00    +0.000 A 
BRANCH  14  17
ATOM     17  O   UNL     1      -6.603  -2.476 129.289  0.00  0.00    +0.000 OA
ATOM     18  C   UNL     1      -7.888  -3.075 129.258  0.00  0.00    +0.000 C 
ENDBRANCH  14  17
ENDBRANCH  10  11
BRANCH   1  19
ATOM     19  C   UNL     1      -3.709   2.687 127.328  0.00  0.00    +0.000 C 
BRANCH  19  21
ATOM     20  C   UNL     1      -1.474   2.967 126.541  0.00  0.00    +0.000 C 
ATOM     21  O   UNL     1      -2.655   3.605 127.018  0.00  0.00    +0.000 OA
ENDBRANCH  19  21
ENDBRANCH   1  19
BRANCH   8  22
ATOM     22  O   UNL     1      -8.798  -1.170 122.766  0.00  0.00    +0.000 OA
BRANCH  22  23
ATOM     23  C   UNL     1      -7.722  -1.918 123.197  0.00  0.00    +0.000 A 
ATOM     24  C   UNL     1      -6.386  -1.617 122.913  0.00  0.00    +0.000 A 
ATOM     25  C   UNL     1      -5.347  -2.482 123.261  0.00  0.00    +0.000 A 
ATOM     26  C   UNL     1      -5.618  -3.631 123.984  0.00  0.00    +0.000 A 
ATOM     27  C   UNL     1      -6.932  -3.917 124.348  0.00  0.00    +0.000 A 
ATOM     28  C   UNL     1      -7.994  -3.077 123.952  0.00  0.00    +0.000 A 
ATOM     29  C   UNL     1      -9.393  -3.447 124.360  0.00  0.00    +0.000 C 
ENDBRANCH  22  23
ENDBRANCH   8  22
TORSDOF 6
ENDMDL
MODEL 2
REMARK VINA RESULT:      -7.2      2.470      5.489
REMARK  Name = CHEMBL592733
REMARK  9 active torsions:
REMARK  status: ('A' for Active; 'I' for Inactive)
REMARK    1  A    between atoms: C_1  and  O_2
REMARK    2  A    between atoms: O_2  and  C_3
REMARK    3  A    between atoms: C_3  and  C_4
REMARK    4  A    between atoms: C_11  and  O_12
REMARK    5  A    between atoms: O_12  and  C_13
REMARK    6  A    between atoms: C_18  and  C_19
REMARK    7  A    between atoms: N_21  and  C_22
REMARK    8  A    between atoms: C_25  and  O_26
REMARK    9  A    between atoms: O_26  and  C_27
REMARK                            x       y       z     vdW  Elec       q    Type
REMARK                         _______ _______ _______ _____ _____    ______ ____
ROOT
ATOM      1  C   UNL     1      -8.726   2.446 124.470  0.00  0.00    +0.000 A 
ATOM      2  N   UNL     1      -8.909   3.547 125.182  0.00  0.00    +0.000 NA
ATOM      3  N   UNL     1      -8.383   3.348 126.448  0.00  0.00    +0.000 NA
ATOM      4  C   UNL     1      -7.827   2.147 126.497  0.00  0.00    +0.000 A 
ATOM      5  N   UNL     1      -7.088   1.594 127.503  0.00  0.00    +0.000 N 
ATOM      6  C   UNL     1      -5.785   0.983 127.331  0.00  0.00    +0.000 C 
ATOM      7  C   UNL     1      -5.878  -0.276 128.164  0.00  0.00    +0.000 C 
ATOM      8  C   UNL     1      -6.661   0.165 129.408  0.00  0.00    +0.000 C 
ATOM      9  C   UNL     1      -7.633   1.256 128.826  0.00  0.00    +0.000 C 
ATOM     10  N   UNL     1      -8.044   1.542 125.261  0.00  0.00    +0.000 N 
ENDROOT
BRANCH  10  11
ATOM     11  C   UNL     1      -7.688   0.239 124.909  0.00  0.00    +0.000 A 
ATOM     12  C   UNL     1      -6.595   0.019 124.086  0.00  0.00    +0.000 A 
ATOM     13  C   UNL     1      -6.239  -1.295 123.829  0.00  0.00    +0.000 A 
ATOM     14  C   UNL     1      -6.991  -2.325 124.391  0.00  0.00    +0.000 A 
ATOM     15  N   UNL     1      -8.069  -2.106 125.174  0.00  0.00    +0.000 NA
ATOM     16  C   UNL     1      -8.407  -0.824 125.419  0.00  0.00    +0.000 A 
BRANCH  14  17
ATOM     17  O   UNL     1      -6.719  -3.653 124.232  0.00  0.00    +0.000 OA
ATOM     18  C   UNL     1      -5.371  -3.976 123.932  0.00  0.00    +0.000 C 
ENDBRANCH  14  17
ENDBRANCH  10  11
BRANCH   1  19
ATOM     19  C   UNL     1      -9.220   2.192 123.070  0.00  0.00    +0.000 C 
BRANCH  19  21
ATOM     20  C   UNL     1      -7.381   3.241 121.969  0.00  0.00    +0.000 C 
ATOM     21  O   UNL     1      -8.785   3.250 122.208  0.00  0.00    +0.000 OA
ENDBRANCH  19  21
ENDBRANCH   1  19
BRANCH   8  22
ATOM     22  O   UNL     1      -7.383  -0.911 130.039  0.00  0.00    +0.000 OA
BRANCH  22  23
ATOM     23  C   UNL     1      -6.679  -2.011 130.484  0.00  0.00    +0.000 A 
ATOM     24  C   UNL     1      -5.679  -1.966 131.461  0.00  0.00    +0.000 A 
ATOM     25  C   UNL     1      -4.908  -3.086 131.775  0.00  0.00    +0.000 A 
ATOM     26  C   UNL     1      -5.183  -4.304 131.178  0.00  0.00    +0.000 A 
ATOM     27  C   UNL     1      -6.226  -4.395 130.257  0.00  0.00    +0.000 A 
ATOM     28  C   UNL     1      -6.973  -3.255 129.892  0.00  0.00    +0.000 A 
ATOM     29  C   UNL     1      -8.074  -3.412 128.880  0.00  0.00    +0.000 C 
ENDBRANCH  22  23
ENDBRANCH   8  22
TORSDOF 6
ENDMDL
MODEL 3
REMARK VINA RESULT:      -7.1      3.121      6.529
REMARK  Name = CHEMBL592733
REMARK  9 active torsions:
REMARK  status: ('A' for Active; 'I' for Inactive)
REMARK    1  A    between atoms: C_1  and  O_2
REMARK    2  A    between atoms: O_2  and  C_3
REMARK    3  A    between atoms: C_3  and  C_4
REMARK    4  A    between atoms: C_11  and  O_12
REMARK    5  A    between atoms: O_12  and  C_13
REMARK    6  A    between atoms: C_18  and  C_19
REMARK    7  A    between atoms: N_21  and  C_22
REMARK    8  A    between atoms: C_25  and  O_26
REMARK    9  A    between atoms: O_26  and  C_27
REMARK                            x       y       z     vdW  Elec       q    Type
REMARK                         _______ _______ _______ _____ _____    ______ ____
ROOT
ATOM      1  C   UNL     1      -6.169   3.490 122.348  0.00  0.00    +0.000 A 
ATOM      2  N   UNL     1      -5.492   4.531 122.806  0.00  0.00    +0.000 NA
ATOM      3  N   UNL     1      -5.475   4.472 124.190  0.00  0.00    +0.000 NA
ATOM      4  C   UNL     1      -6.092   3.368 124.580  0.00  0.00    +0.000 A 
ATOM      5  N   UNL     1      -6.197   2.854 125.840  0.00  0.00    +0.000 N 
ATOM      6  C   UNL     1      -5.872   1.489 126.205  0.00  0.00    +0.000 C 
ATOM      7  C   UNL     1      -7.017   1.088 127.109  0.00  0.00    +0.000 C 
ATOM      8  C   UNL     1      -7.283   2.350 127.942  0.00  0.00    +0.000 C 
ATOM      9  C   UNL     1      -6.943   3.503 126.928  0.00  0.00    +0.000 C 
ATOM     10  N   UNL     1      -6.560   2.731 123.433  0.00  0.00    +0.000 N 
ENDROOT
BRANCH  10  11
ATOM     11  C   UNL     1      -7.333   1.569 123.395  0.00  0.00    +0.000 A 
ATOM     12  C   UNL     1      -6.730   0.344 123.157  0.00  0.00    +0.000 A 
ATOM     13  C   UNL     1      -7.530  -0.785 123.203  0.00  0.00    +0.000 A 
ATOM     14  C   UNL     1      -8.890  -0.644 123.473  0.00  0.00    +0.000 A 
ATOM     15  N   UNL     1      -9.478   0.554 123.682  0.00  0.00    +0.000 NA
ATOM     16  C   UNL     1      -8.691   1.647 123.635  0.00  0.00    +0.000 A 
BRANCH  14  17
ATOM     17  O   UNL     1      -9.769  -1.684 123.573  0.00  0.00    +0.000 OA
ATOM     18  C   UNL     1      -9.195  -2.981 123.552  0.00  0.00    +0.000 C 
ENDBRANCH  14  17
ENDBRANCH  10  11
BRANCH   1  19
ATOM     19  C   UNL     1      -6.508   3.206 120.907  0.00  0.00    +0.000 C 
BRANCH  19  21
ATOM     20  C   UNL     1      -8.806   3.780 120.611  0.00  0.00    +0.000 C 
ATOM     21  O   UNL     1      -7.450   4.178 120.436  0.00  0.00    +0.000 OA
ENDBRANCH  19  21
ENDBRANCH   1  19
BRANCH   8  22
ATOM     22  O   UNL     1      -8.639   2.443 128.421  0.00  0.00    +0.000 OA
BRANCH  22  23
ATOM     23  C   UNL     1      -8.872   2.352 129.778  0.00  0.00    +0.000 A 
ATOM     24  C   UNL     1      -8.762   1.172 130.520  0.00  0.00    +0.000 A 
ATOM     25  C   UNL     1      -9.140   1.110 131.862  0.00  0.00    +0.000 A 
ATOM     26  C   UNL     1      -9.554   2.257 132.517  0.00  0.00    +0.000 A 
ATOM     27  C   UNL     1      -9.598   3.464 131.822  0.00  0.00    +0.000 A 
ATOM     28  C   UNL     1      -9.273   3.524 130.450  0.00  0.00    +0.000 A 
ATOM     29  C   UNL     1      -9.356   4.851 129.749  0.00  0.00    +0.000 C 
ENDBRANCH  22  23
ENDBRANCH   8  22
TORSDOF 6
ENDMDL
MODEL 4
REMARK VINA RESULT:      -7.1      5.040      7.626
REMARK  Name = CHEMBL592733
REMARK  9 active torsions:
REMARK  status: ('A' for Active; 'I' for Inactive)
REMARK    1  A    between atoms: C_1  and  O_2
REMARK    2  A    between atoms: O_2  and  C_3
REMARK    3  A    between atoms: C_3  and  C_4
REMARK    4  A    between atoms: C_11  and  O_12
REMARK    5  A    between atoms: O_12  and  C_13
REMARK    6  A    between atoms: C_18  and  C_19
REMARK    7  A    between atoms: N_21  and  C_22
REMARK    8  A    between atoms: C_25  and  O_26
REMARK    9  A    between atoms: O_26  and  C_27
REMARK                            x       y       z     vdW  Elec       q    Type
REMARK                         _______ _______ _______ _____ _____    ______ ____
ROOT
ATOM      1  C   UNL     1     -10.494   6.052 129.674  0.00  0.00    +0.000 A 
ATOM      2  N   UNL     1     -11.617   5.353 129.702  0.00  0.00    +0.000 NA
ATOM      3  N   UNL     1     -11.344   4.098 130.219  0.00  0.00    +0.000 NA
ATOM      4  C   UNL     1     -10.067   4.043 130.561  0.00  0.00    +0.000 A 
ATOM      5  N   UNL     1      -9.405   3.047 131.219  0.00  0.00    +0.000 N 
ATOM      6  C   UNL     1      -8.577   3.241 132.393  0.00  0.00    +0.000 C 
ATOM      7  C   UNL     1      -7.361   2.387 132.106  0.00  0.00    +0.000 C 
ATOM      8  C   UNL     1      -7.945   1.131 131.443  0.00  0.00    +0.000 C 
ATOM      9  C   UNL     1      -9.180   1.707 130.659  0.00  0.00    +0.000 C 
ATOM     10  N   UNL     1      -9.495   5.265 130.211  0.00  0.00    +0.000 N 
ENDROOT
BRANCH  10  11
ATOM     11  C   UNL     1      -8.146   5.605 130.328  0.00  0.00    +0.000 A 
ATOM     12  C   UNL     1      -7.738   6.485 131.317  0.00  0.00    +0.000 A 
ATOM     13  C   UNL     1      -6.380   6.732 131.438  0.00  0.00    +0.000 A 
ATOM     14  C   UNL     1      -5.495   6.101 130.565  0.00  0.00    +0.000 A 
ATOM     15  N   UNL     1      -5.899   5.261 129.587  0.00  0.00    +0.000 NA
ATOM     16  C   UNL     1      -7.222   5.028 129.478  0.00  0.00    +0.000 A 
BRANCH  14  17
ATOM     17  O   UNL     1      -4.138   6.243 130.607  0.00  0.00    +0.000 OA
ATOM     18  C   UNL     1      -3.659   7.575 130.696  0.00  0.00    +0.000 C 
ENDBRANCH  14  17
ENDBRANCH  10  11
BRANCH   1  19
ATOM     19  C   UNL     1     -10.314   7.437 129.107  0.00  0.00    +0.000 C 
BRANCH  19  21
ATOM     20  C   UNL     1     -11.070   7.708 126.860  0.00  0.00    +0.000 C 
ATOM     21  O   UNL     1      -9.990   7.346 127.715  0.00  0.00    +0.000 OA
ENDBRANCH  19  21
ENDBRANCH   1  19
BRANCH   8  22
ATOM     22  O   UNL     1      -7.016   0.466 130.563  0.00  0.00    +0.000 OA
BRANCH  22  23
ATOM     23  C   UNL     1      -7.346  -0.778 130.068  0.00  0.00    +0.000 A 
ATOM     24  C   UNL     1      -7.502  -1.925 130.853  0.00  0.00    +0.000 A 
ATOM     25  C   UNL     1      -7.703  -3.183 130.285  0.00  0.00    +0.000 A 
ATOM     26  C   UNL     1      -7.844  -3.307 128.913  0.00  0.00    +0.000 A 
ATOM     27  C   UNL     1      -7.771  -2.170 128.112  0.00  0.00    +0.000 A 
ATOM     28  C   UNL     1      -7.511  -0.902 128.674  0.00  0.00    +0.000 A 
ATOM     29  C   UNL     1      -7.426   0.287 127.757  0.00  0.00    +0.000 C 
ENDBRANCH  22  23
ENDBRANCH   8  22
TORSDOF 6
ENDMDL
MODEL 5
REMARK VINA RESULT:      -7.1      5.753      8.351
REMARK  Name = CHEMBL592733
REMARK  9 active torsions:
REMARK  status: ('A' for Active; 'I' for Inactive)
REMARK    1  A    between atoms: C_1  and  O_2
REMARK    2  A    between atoms: O_2  and  C_3
REMARK    3  A    between atoms: C_3  and  C_4
REMARK    4  A    between atoms: C_11  and  O_12
REMARK    5  A    between atoms: O_12  and  C_13
REMARK    6  A    between atoms: C_18  and  C_19
REMARK    7  A    between atoms: N_21  and  C_22
REMARK    8  A    between atoms: C_25  and  O_26
REMARK    9  A    between atoms: O_26  and  C_27
REMARK                            x       y       z     vdW  Elec       q    Type
REMARK                         _______ _______ _______ _____ _____    ______ ____
ROOT
ATOM      1  C   UNL     1      -5.257   3.861 130.103  0.00  0.00    +0.000 A 
ATOM      2  N   UNL     1      -5.106   4.756 131.066  0.00  0.00    +0.000 NA
ATOM      3  N   UNL     1      -6.360   5.150 131.504  0.00  0.00    +0.000 NA
ATOM      4  C   UNL     1      -7.280   4.457 130.851  0.00  0.00    +0.000 A 
ATOM      5  N   UNL     1      -8.629   4.433 131.055  0.00  0.00    +0.000 N 
ATOM      6  C   UNL     1      -9.418   3.229 131.225  0.00  0.00    +0.000 C 
ATOM      7  C   UNL     1     -10.638   3.488 130.368  0.00  0.00    +0.000 C 
ATOM      8  C   UNL     1     -10.945   4.973 130.609  0.00  0.00    +0.000 C 
ATOM      9  C   UNL     1      -9.511   5.584 130.817  0.00  0.00    +0.000 C 
ATOM     10  N   UNL     1      -6.610   3.641 129.941  0.00  0.00    +0.000 N 
ENDROOT
BRANCH  10  11
ATOM     11  C   UNL     1      -7.206   2.801 128.998  0.00  0.00    +0.000 A 
ATOM     12  C   UNL     1      -7.262   1.435 129.226  0.00  0.00    +0.000 A 
ATOM     13  C   UNL     1      -7.928   0.655 128.296  0.00  0.00    +0.000 A 
ATOM     14  C   UNL     1      -8.497   1.267 127.179  0.00  0.00    +0.000 A 
ATOM     15  N   UNL     1      -8.420   2.595 126.949  0.00  0.00    +0.000 NA
ATOM     16  C   UNL     1      -7.769   3.345 127.861  0.00  0.00    +0.000 A 
BRANCH  14  17
ATOM     17  O   UNL     1      -9.201   0.606 126.213  0.00  0.00    +0.000 OA
ATOM     18  C   UNL     1      -9.372   1.302 124.989  0.00  0.00    +0.000 C 
ENDBRANCH  14  17
ENDBRANCH  10  11
BRANCH   1  19
ATOM     19  C   UNL     1      -4.160   3.232 129.284  0.00  0.00    +0.000 C 
BRANCH  19  21
ATOM     20  C   UNL     1      -2.586   4.060 127.693  0.00  0.00    +0.000 C 
ATOM     21  O   UNL     1      -3.160   4.214 128.986  0.00  0.00    +0.000 OA
ENDBRANCH  19  21
ENDBRANCH   1  19
BRANCH   8  22
ATOM     22  O   UNL     1     -11.638   5.597 129.511  0.00  0.00    +0.000 OA
BRANCH  22  23
ATOM     23  C   UNL     1     -12.048   6.908 129.644  0.00  0.00    +0.000 A 
ATOM     24  C   UNL     1     -12.557   7.459 130.825  0.00  0.00    +0.000 A 
ATOM     25  C   UNL     1     -13.082   8.752 130.865  0.00  0.00    +0.000 A 
ATOM     26  C   UNL     1     -13.026   9.556 129.740  0.00  0.00    +0.000 A 
ATOM     27  C   UNL     1     -12.454   9.058 128.571  0.00  0.00    +0.000 A 
ATOM     28  C   UNL     1     -11.973   7.733 128.505  0.00  0.00    +0.000 A 
ATOM     29  C   UNL     1     -11.381   7.247 127.211  0.00  0.00    +0.000 C 
ENDBRANCH  22  23
ENDBRANCH   8  22
TORSDOF 6
ENDMDL
MODEL 6
REMARK VINA RESULT:      -6.9      1.445      1.981
REMARK  Name = CHEMBL592733
REMARK  9 active torsions:
REMARK  status: ('A' for Active; 'I' for Inactive)
REMARK    1  A    between atoms: C_1  and  O_2
REMARK    2  A    between atoms: O_2  and  C_3
REMARK    3  A    between atoms: C_3  and  C_4
REMARK    4  A    between atoms: C_11  and  O_12
REMARK    5  A    between atoms: O_12  and  C_13
REMARK    6  A    between atoms: C_18  and  C_19
REMARK    7  A    between atoms: N_21  and  C_22
REMARK    8  A    between atoms: C_25  and  O_26
REMARK    9  A    between atoms: O_26  and  C_27
REMARK                            x       y       z     vdW  Elec       q    Type
REMARK                         _______ _______ _______ _____ _____    ______ ____
ROOT
ATOM      1  C   UNL     1      -5.221   4.494 127.342  0.00  0.00    +0.000 A 
ATOM      2  N   UNL     1      -5.285   5.405 126.385  0.00  0.00    +0.000 NA
ATOM      3  N   UNL     1      -6.015   4.886 125.328  0.00  0.00    +0.000 NA
ATOM      4  C   UNL     1      -6.447   3.679 125.657  0.00  0.00    +0.000 A 
ATOM      5  N   UNL     1      -7.300   2.865 124.969  0.00  0.00    +0.000 N 
ATOM      6  C   UNL     1      -8.480   2.241 125.534  0.00  0.00    +0.000 C 
ATOM      7  C   UNL     1      -8.418   0.828 124.996  0.00  0.00    +0.000 C 
ATOM      8  C   UNL     1      -7.928   1.008 123.552  0.00  0.00    +0.000 C 
ATOM      9  C   UNL     1      -6.980   2.257 123.670  0.00  0.00    +0.000 C 
ATOM     10  N   UNL     1      -5.943   3.394 126.925  0.00  0.00    +0.000 N 
ENDROOT
BRANCH  10  11
ATOM     11  C   UNL     1      -6.095   2.191 127.618  0.00  0.00    +0.000 A 
ATOM     12  C   UNL     1      -5.338   1.086 127.260  0.00  0.00    +0.000 A 
ATOM     13  C   UNL     1      -5.471  -0.060 128.026  0.00  0.00    +0.000 A 
ATOM     14  C   UNL     1      -6.357  -0.057 129.103  0.00  0.00    +0.000 A 
ATOM     15  N   UNL     1      -7.109   1.014 129.434  0.00  0.00    +0.000 NA
ATOM     16  C   UNL     1      -6.972   2.124 128.683  0.00  0.00    +0.000 A 
BRANCH  14  17
ATOM     17  O   UNL     1      -6.550  -1.115 129.944  0.00  0.00    +0.000 OA
ATOM     18  C   UNL     1      -7.643  -1.963 129.629  0.00  0.00    +0.000 C 
ENDBRANCH  14  17
ENDBRANCH  10  11
BRANCH   1  19
ATOM     19  C   UNL     1      -4.451   4.602 128.633  0.00  0.00    +0.000 C 
BRANCH  19  21
ATOM     20  C   UNL     1      -2.454   3.705 127.683  0.00  0.00    +0.000 C 
ATOM     21  O   UNL     1      -3.063   4.808 128.348  0.00  0.00    +0.000 OA
ENDBRANCH  19  21
ENDBRANCH   1  19
BRANCH   8  22
ATOM     22  O   UNL     1      -7.232  -0.144 123.037  0.00  0.00    +0.000 OA
BRANCH  22  23
ATOM     23  C   UNL     1      -7.687  -1.401 123.376  0.00  0.00    +0.000 A 
ATOM     24  C   UNL     1      -8.921  -1.927 122.980  0.00  0.00    +0.000 A 
ATOM     25  C   UNL     1      -9.389  -3.150 123.463  0.00  0.00    +0.000 A 
ATOM     26  C   UNL     1      -8.585  -3.919 124.288  0.00  0.00    +0.000 A 
ATOM     27  C   UNL     1      -7.319  -3.455 124.637  0.00  0.00    +0.000 A 
ATOM     28  C   UNL     1      -6.862  -2.193 124.199  0.00  0.00    +0.000 A 
ATOM     29  C   UNL     1      -5.493  -1.738 124.622  0.00  0.00    +0.000 C 
ENDBRANCH  22  23
ENDBRANCH   8  22
TORSDOF 6
ENDMDL
MODEL 7
REMARK VINA RESULT:      -6.9      5.826      8.737
REMARK  Name = CHEMBL592733
REMARK  9 active torsions:
REMARK  status: ('A' for Active; 'I' for Inactive)
REMARK    1  A    between atoms: C_1  and  O_2
REMARK    2  A    between atoms: O_2  and  C_3
REMARK    3  A    between atoms: C_3  and  C_4
REMARK    4  A    between atoms: C_11  and  O_12
REMARK    5  A    between atoms: O_12  and  C_13
REMARK    6  A    between atoms: C_18  and  C_19
REMARK    7  A    between atoms: N_21  and  C_22
REMARK    8  A    between atoms: C_25  and  O_26
REMARK    9  A    between atoms: O_26  and  C_27
REMARK                            x       y       z     vdW  Elec       q    Type
REMARK                         _______ _______ _______ _____ _____    ______ ____
ROOT
ATOM      1  C   UNL     1      -9.795   6.274 129.313  0.00  0.00    +0.000 A 
ATOM      2  N   UNL     1      -9.761   6.151 127.995  0.00  0.00    +0.000 NA
ATOM      3  N   UNL     1      -8.797   5.214 127.663  0.00  0.00    +0.000 NA
ATOM      4  C   UNL     1      -8.277   4.720 128.775  0.00  0.00    +0.000 A 
ATOM      5  N   UNL     1      -7.392   3.690 128.915  0.00  0.00    +0.000 N 
ATOM      6  C   UNL     1      -7.577   2.557 129.801  0.00  0.00    +0.000 C 
ATOM      7  C   UNL     1      -6.216   2.390 130.440  0.00  0.00    +0.000 C 
ATOM      8  C   UNL     1      -5.236   2.660 129.290  0.00  0.00    +0.000 C 
ATOM      9  C   UNL     1      -6.003   3.737 128.438  0.00  0.00    +0.000 C 
ATOM     10  N   UNL     1      -8.879   5.386 129.841  0.00  0.00    +0.000 N 
ENDROOT
BRANCH  10  11
ATOM     11  C   UNL     1      -8.566   5.226 131.193  0.00  0.00    +0.000 A 
ATOM     12  C   UNL     1      -7.436   5.832 131.718  0.00  0.00    +0.000 A 
ATOM     13  C   UNL     1      -7.212   5.703 133.079  0.00  0.00    +0.000 A 
ATOM     14  C   UNL     1      -8.114   4.970 133.849  0.00  0.00    +0.000 A 
ATOM     15  N   UNL     1      -9.201   4.362 133.329  0.00  0.00    +0.000 NA
ATOM     16  C   UNL     1      -9.411   4.494 132.004  0.00  0.00    +0.000 A 
BRANCH  14  17
ATOM     17  O   UNL     1      -8.012   4.800 135.200  0.00  0.00    +0.000 OA
ATOM     18  C   UNL     1      -7.593   5.938 135.936  0.00  0.00    +0.000 C 
ENDBRANCH  14  17
ENDBRANCH  10  11
BRANCH   1  19
ATOM     19  C   UNL     1     -10.634   7.245 130.101  0.00  0.00    +0.000 C 
BRANCH  19  21
ATOM     20  C   UNL     1     -12.712   7.320 131.273  0.00  0.00    +0.000 C 
ATOM     21  O   UNL     1     -11.978   6.756 130.190  0.00  0.00    +0.000 OA
ENDBRANCH  19  21
ENDBRANCH   1  19
BRANCH   8  22
ATOM     22  O   UNL     1      -3.954   3.145 129.734  0.00  0.00    +0.000 OA
BRANCH  22  23
ATOM     23  C   UNL     1      -3.636   4.471 129.524  0.00  0.00    +0.000 A 
ATOM     24  C   UNL     1      -4.050   5.522 130.349  0.00  0.00    +0.000 A 
ATOM     25  C   UNL     1      -3.812   6.856 130.015  0.00  0.00    +0.000 A 
ATOM     26  C   UNL     1      -3.073   7.164 128.886  0.00  0.00    +0.000 A 
ATOM     27  C   UNL     1      -2.581   6.134 128.087  0.00  0.00    +0.000 A 
ATOM     28  C   UNL     1      -2.865   4.784 128.387  0.00  0.00    +0.000 A 
ATOM     29  C   UNL     1      -2.322   3.717 127.478  0.00  0.00    +0.000 C 
ENDBRANCH  22  23
ENDBRANCH   8  22
TORSDOF 6
ENDMDL
MODEL 8
REMARK VINA RESULT:      -6.8      4.429      7.242
REMARK  Name = CHEMBL592733
REMARK  9 active torsions:
REMARK  status: ('A' for Active; 'I' for Inactive)
REMARK    1  A    between atoms: C_1  and  O_2
REMARK    2  A    between atoms: O_2  and  C_3
REMARK    3  A    between atoms: C_3  and  C_4
REMARK    4  A    between atoms: C_11  and  O_12
REMARK    5  A    between atoms: O_12  and  C_13
REMARK    6  A    between atoms: C_18  and  C_19
REMARK    7  A    between atoms: N_21  and  C_22
REMARK    8  A    between atoms: C_25  and  O_26
REMARK    9  A    between atoms: O_26  and  C_27
REMARK                            x       y       z     vdW  Elec       q    Type
REMARK                         _______ _______ _______ _____ _____    ______ ____
ROOT
ATOM      1  C   UNL     1      -9.519   5.397 129.700  0.00  0.00    +0.000 A 
ATOM      2  N   UNL     1      -9.488   5.975 128.510  0.00  0.00    +0.000 NA
ATOM      3  N   UNL     1      -8.634   5.255 127.691  0.00  0.00    +0.000 NA
ATOM      4  C   UNL     1      -8.183   4.205 128.358  0.00  0.00    +0.000 A 
ATOM      5  N   UNL     1      -7.422   3.169 127.899  0.00  0.00    +0.000 N 
ATOM      6  C   UNL     1      -7.743   1.766 128.078  0.00  0.00    +0.000 C 
ATOM      7  C   UNL     1      -6.415   1.153 128.468  0.00  0.00    +0.000 C 
ATOM      8  C   UNL     1      -5.400   1.881 127.575  0.00  0.00    +0.000 C 
ATOM      9  C   UNL     1      -6.032   3.315 127.445  0.00  0.00    +0.000 C 
ATOM     10  N   UNL     1      -8.715   4.276 129.645  0.00  0.00    +0.000 N 
ENDROOT
BRANCH  10  11
ATOM     11  C   UNL     1      -8.435   3.405 130.700  0.00  0.00    +0.000 A 
ATOM     12  C   UNL     1      -9.371   2.457 131.080  0.00  0.00    +0.000 A 
ATOM     13  C   UNL     1      -9.016   1.569 132.082  0.00  0.00    +0.000 A 
ATOM     14  C   UNL     1      -7.753   1.672 132.664  0.00  0.00    +0.000 A 
ATOM     15  N   UNL     1      -6.852   2.612 132.306  0.00  0.00    +0.000 NA
ATOM     16  C   UNL     1      -7.208   3.471 131.330  0.00  0.00    +0.000 A 
BRANCH  14  17
ATOM     17  O   UNL     1      -7.282   0.837 133.636  0.00  0.00    +0.000 OA
ATOM     18  C   UNL     1      -6.081   1.244 134.272  0.00  0.00    +0.000 C 
ENDBRANCH  14  17
ENDBRANCH  10  11
BRANCH   1  19
ATOM     19  C   UNL     1     -10.250   5.896 130.919  0.00  0.00    +0.000 C 
BRANCH  19  21
ATOM     20  C   UNL     1      -9.180   6.017 133.049  0.00  0.00    +0.000 C 
ATOM     21  O   UNL     1      -9.341   6.611 131.765  0.00  0.00    +0.000 OA
ENDBRANCH  19  21
ENDBRANCH   1  19
BRANCH   8  22
ATOM     22  O   UNL     1      -4.075   1.930 128.140  0.00  0.00    +0.000 OA
BRANCH  22  23
ATOM     23  C   UNL     1      -3.614   3.127 128.647  0.00  0.00    +0.000 A 
ATOM     24  C   UNL     1      -3.918   3.614 129.923  0.00  0.00    +0.000 A 
ATOM     25  C   UNL     1      -3.535   4.891 130.333  0.00  0.00    +0.000 A 
ATOM     26  C   UNL     1      -2.757   5.679 129.502  0.00  0.00    +0.000 A 
ATOM     27  C   UNL     1      -2.374   5.189 128.255  0.00  0.00    +0.000 A 
ATOM     28  C   UNL     1      -2.805   3.921 127.810  0.00  0.00    +0.000 A 
ATOM     29  C   UNL     1      -2.374   3.453 126.448  0.00  0.00    +0.000 C 
ENDBRANCH  22  23
ENDBRANCH   8  22
TORSDOF 6
ENDMDL
MODEL 9
REMARK VINA RESULT:      -6.8      3.744      7.058
REMARK  Name = CHEMBL592733
REMARK  9 active torsions:
REMARK  status: ('A' for Active; 'I' for Inactive)
REMARK    1  A    between atoms: C_1  and  O_2
REMARK    2  A    between atoms: O_2  and  C_3
REMARK    3  A    between atoms: C_3  and  C_4
REMARK    4  A    between atoms: C_11  and  O_12
REMARK    5  A    between atoms: O_12  and  C_13
REMARK    6  A    between atoms: C_18  and  C_19
REMARK    7  A    between atoms: N_21  and  C_22
REMARK    8  A    between atoms: C_25  and  O_26
REMARK    9  A    between atoms: O_26  and  C_27
REMARK                            x       y       z     vdW  Elec       q    Type
REMARK                         _______ _______ _______ _____ _____    ______ ____
ROOT
ATOM      1  C   UNL     1      -6.215   3.529 122.960  0.00  0.00    +0.000 A 
ATOM      2  N   UNL     1      -5.528   4.615 123.278  0.00  0.00    +0.000 NA
ATOM      3  N   UNL     1      -5.577   4.784 124.651  0.00  0.00    +0.000 NA
ATOM      4  C   UNL     1      -6.245   3.773 125.184  0.00  0.00    +0.000 A 
ATOM      5  N   UNL     1      -6.424   3.474 126.504  0.00  0.00    +0.000 N 
ATOM      6  C   UNL     1      -6.159   2.180 127.101  0.00  0.00    +0.000 C 
ATOM      7  C   UNL     1      -7.356   1.959 128.000  0.00  0.00    +0.000 C 
ATOM      8  C   UNL     1      -7.621   3.346 128.602  0.00  0.00    +0.000 C 
ATOM      9  C   UNL     1      -7.199   4.309 127.433  0.00  0.00    +0.000 C 
ATOM     10  N   UNL     1      -6.679   2.967 124.133  0.00  0.00    +0.000 N 
ENDROOT
BRANCH  10  11
ATOM     11  C   UNL     1      -7.485   1.833 124.245  0.00  0.00    +0.000 A 
ATOM     12  C   UNL     1      -8.846   1.971 124.466  0.00  0.00    +0.000 A 
ATOM     13  C   UNL     1      -9.613   0.817 124.495  0.00  0.00    +0.000 A 
ATOM     14  C   UNL     1      -8.990  -0.417 124.314  0.00  0.00    +0.000 A 
ATOM     15  N   UNL     1      -7.660  -0.548 124.121  0.00  0.00    +0.000 NA
ATOM     16  C   UNL     1      -6.923   0.580 124.094  0.00  0.00    +0.000 A 
BRANCH  14  17
ATOM     17  O   UNL     1      -9.645  -1.614 124.293  0.00  0.00    +0.000 OA
ATOM     18  C   UNL     1      -9.112  -2.595 123.417  0.00  0.00    +0.000 C 
ENDBRANCH  14  17
ENDBRANCH  10  11
BRANCH   1  19
ATOM     19  C   UNL     1      -6.496   3.021 121.570  0.00  0.00    +0.000 C 
BRANCH  19  21
ATOM     20  C   UNL     1      -8.723   3.627 120.962  0.00  0.00    +0.000 C 
ATOM     21  O   UNL     1      -7.339   3.952 120.880  0.00  0.00    +0.000 OA
ENDBRANCH  19  21
ENDBRANCH   1  19
BRANCH   8  22
ATOM     22  O   UNL     1      -8.995   3.546 128.990  0.00  0.00    +0.000 OA
BRANCH  22  23
ATOM     23  C   UNL     1      -9.270   4.383 130.052  0.00  0.00    +0.000 A 
ATOM     24  C   UNL     1      -9.261   5.780 129.979  0.00  0.00    +0.000 A 
ATOM     25  C   UNL     1      -9.414   6.576 131.115  0.00  0.00    +0.000 A 
ATOM     26  C   UNL     1      -9.670   5.988 132.341  0.00  0.00    +0.000 A 
ATOM     27  C   UNL     1      -9.762   4.601 132.429  0.00  0.00    +0.000 A 
ATOM     28  C   UNL     1      -9.552   3.786 131.297  0.00  0.00    +0.000 A 
ATOM     29  C   UNL     1      -9.646   2.294 131.457  0.00  0.00    +0.000 C 
ENDBRANCH  22  23
ENDBRANCH   8  22
TORSDOF 6
ENDMDL
