MODEL 1
REMARK VINA RESULT:      -8.7      0.000      0.000
REMARK  Name = CHEMBL198964
REMARK  12 active torsions:
REMARK  status: ('A' for Active; 'I' for Inactive)
REMARK    1  A    between atoms: CD1_1  and  CG_2
REMARK    2  A    between atoms: CG_2  and  CD2_3
REMARK    3  A    between atoms: CG_2  and  CB_4
REMARK    4  A    between atoms: CB_4  and  CA_5
REMARK    5  A    between atoms: C_9  and  C_10
REMARK    6  A    between atoms: N_21  and  C_22
REMARK    7  A    between atoms: C_22  and  C_23
REMARK    8  A    between atoms: C_22  and  C_30
REMARK    9  A    between atoms: N_25  and  C_26
REMARK   10  A    between atoms: C_26  and  C_27
REMARK   11  A    between atoms: C_26  and  C_28
REMARK   12  A    between atoms: C_26  and  C_29
REMARK                            x       y       z     vdW  Elec       q    Type
REMARK                         _______ _______ _______ _____ _____    ______ ____
ROOT
ATOM      1  CA  LEU A   2      -4.823   2.776 127.521  0.00  0.00    +0.000 C 
ATOM      2  C   LEU A   2      -5.384   2.600 126.124  0.00  0.00    +0.000 C 
ATOM      3  O   LEU A   2      -5.101   3.250 125.124  0.00  0.00    +0.000 OA
ATOM      4  N   UNK A   1      -6.196   1.544 126.014  0.00  0.00    +0.000 N 
ATOM      5  C   UNK A   1      -6.313   0.535 127.042  0.00  0.00    +0.000 C 
ATOM      6  C   UNK A   1      -6.603   1.209 128.358  0.00  0.00    +0.000 C 
ATOM      7  O   UNK A   1      -7.350   0.678 129.181  0.00  0.00    +0.000 OA
ATOM      8  N   LEU A   2      -5.880   2.400 128.593  0.00  0.00    +0.000 N 
ATOM      9  H   UNK A   1      -6.486   1.403 125.058  0.00  0.00    +0.000 HD
ENDROOT
BRANCH   5  10
ATOM     10  C   UNK A   1      -7.404  -0.490 126.722  0.00  0.00    +0.000 C 
ATOM     11  C   UNK A   1      -6.693  -1.852 126.754  0.00  0.00    +0.000 C 
ATOM     12  C   UNK A   1      -6.397  -2.063 125.293  0.00  0.00    +0.000 A 
ATOM     13  C   UNK A   1      -5.386  -2.826 124.735  0.00  0.00    +0.000 A 
ATOM     14  C   UNK A   1      -5.250  -2.835 123.346  0.00  0.00    +0.000 A 
ATOM     15  C   UNK A   1      -6.115  -2.086 122.534  0.00  0.00    +0.000 A 
ATOM     16  C   UNK A   1      -7.098  -1.274 123.105  0.00  0.00    +0.000 A 
ATOM     17  C   UNK A   1      -7.203  -1.247 124.486  0.00  0.00    +0.000 A 
ATOM     18  C   UNK A   1      -8.100  -0.401 125.332  0.00  0.00    +0.000 C 
ENDBRANCH   5  10
BRANCH   1  19
ATOM     19  CB  LEU A   2      -4.339   4.203 127.449  0.00  0.00    +0.000 C 
BRANCH  19  21
ATOM     20  CD1 LEU A   2      -1.908   3.107 126.620  0.00  0.00    +0.000 C 
ATOM     21  CG  LEU A   2      -2.880   4.304 127.874  0.00  0.00    +0.000 C 
ATOM     22  CD2 LEU A   2      -2.346   6.051 128.604  0.00  0.00    +0.000 C 
ENDBRANCH  19  21
ENDBRANCH   1  19
BRANCH   8  23
ATOM     23  C   UNK A   0      -6.360   3.110 129.871  0.00  0.00    +0.000 C 
BRANCH  23  24
ATOM     24  C   UNK A   0      -5.162   3.711 130.663  0.00  0.00    +0.000 A 
ATOM     25  C   UNK A   0      -4.163   2.825 131.091  0.00  0.00    +0.000 A 
ATOM     26  C   UNK A   0      -3.088   3.264 131.852  0.00  0.00    +0.000 A 
ATOM     27  C   UNK A   0      -2.958   4.615 132.151  0.00  0.00    +0.000 A 
ATOM     28 CL   UNK A   0      -1.623   5.153 133.086  0.00  0.00    +0.000 Cl
ATOM     29  C   UNK A   0      -3.905   5.529 131.710  0.00  0.00    +0.000 A 
ATOM     30  C   UNK A   0      -5.017   5.073 131.004  0.00  0.00    +0.000 A 
ENDBRANCH  23  24
BRANCH  23  31
ATOM     31  C   UNK A   0      -7.435   4.270 129.822  0.00  0.00    +0.000 C 
ATOM     32  O   UNK A   0      -7.652   5.054 128.812  0.00  0.00    +0.000 OA
ATOM     33  N   UNK A   0      -8.264   4.160 130.834  0.00  0.00    +0.000 N 
ATOM     34  H   UNK A   0      -7.723   3.479 131.341  0.00  0.00    +0.000 HD
BRANCH  33  35
ATOM     35  C   UNK A   0      -9.549   4.838 131.570  0.00  0.00    +0.000 C 
ATOM     36  C   UNK A   0      -9.208   3.599 132.911  0.00  0.00    +0.000 C 
ATOM     37  C   UNK A   0      -9.136   6.201 131.971  0.00  0.00    +0.000 C 
ATOM     38  C   UNK A   0     -11.279   5.303 130.609  0.00  0.00    +0.000 C 
ENDBRANCH  33  35
ENDBRANCH  23  31
ENDBRANCH   8  23
TORSDOF 7
ENDMDL
MODEL 2
REMARK VINA RESULT:      -8.6      2.893      8.081
REMARK  Name = CHEMBL198964
REMARK  12 active torsions:
REMARK  status: ('A' for Active; 'I' for Inactive)
REMARK    1  A    between atoms: CD1_1  and  CG_2
REMARK    2  A    between atoms: CG_2  and  CD2_3
REMARK    3  A    between atoms: CG_2  and  CB_4
REMARK    4  A    between atoms: CB_4  and  CA_5
REMARK    5  A    between atoms: C_9  and  C_10
REMARK    6  A    between atoms: N_21  and  C_22
REMARK    7  A    between atoms: C_22  and  C_23
REMARK    8  A    between atoms: C_22  and  C_30
REMARK    9  A    between atoms: N_25  and  C_26
REMARK   10  A    between atoms: C_26  and  C_27
REMARK   11  A    between atoms: C_26  and  C_28
REMARK   12  A    between atoms: C_26  and  C_29
REMARK                            x       y       z     vdW  Elec       q    Type
REMARK                         _______ _______ _______ _____ _____    ______ ____
ROOT
ATOM      1  CA  LEU A   2      -6.749   1.432 129.476  0.00  0.00    +0.000 C 
ATOM      2  C   LEU A   2      -7.130   2.887 129.279  0.00  0.00    +0.000 C 
ATOM      3  O   LEU A   2      -8.114   3.463 129.730  0.00  0.00    +0.000 OA
ATOM      4  N   UNK A   1      -6.205   3.586 128.614  0.00  0.00    +0.000 N 
ATOM      5  C   UNK A   1      -4.879   3.078 128.350  0.00  0.00    +0.000 C 
ATOM      6  C   UNK A   1      -4.995   1.724 127.697  0.00  0.00    +0.000 C 
ATOM      7  O   UNK A   1      -4.194   1.379 126.828  0.00  0.00    +0.000 OA
ATOM      8  N   LEU A   2      -5.997   0.885 128.234  0.00  0.00    +0.000 N 
ATOM      9  H   UNK A   1      -6.447   4.565 128.572  0.00  0.00    +0.000 HD
ENDROOT
BRANCH   5  10
ATOM     10  C   UNK A   1      -4.066   4.024 127.461  0.00  0.00    +0.000 C 
ATOM     11  C   UNK A   1      -2.674   4.081 128.111  0.00  0.00    +0.000 C 
ATOM     12  C   UNK A   1      -2.787   5.335 128.936  0.00  0.00    +0.000 A 
ATOM     13  C   UNK A   1      -2.086   5.660 130.084  0.00  0.00    +0.000 A 
ATOM     14  C   UNK A   1      -2.393   6.857 130.734  0.00  0.00    +0.000 A 
ATOM     15  C   UNK A   1      -3.391   7.709 130.238  0.00  0.00    +0.000 A 
ATOM     16  C   UNK A   1      -4.133   7.350 129.110  0.00  0.00    +0.000 A 
ATOM     17  C   UNK A   1      -3.843   6.145 128.493  0.00  0.00    +0.000 A 
ATOM     18  C   UNK A   1      -4.546   5.499 127.341  0.00  0.00    +0.000 C 
ENDBRANCH   5  10
BRANCH   1  19
ATOM     19  CB  LEU A   2      -8.088   0.839 129.833  0.00  0.00    +0.000 C 
BRANCH  19  21
ATOM     20  CD1 LEU A   2      -9.863   1.508 131.882  0.00  0.00    +0.000 C 
ATOM     21  CG  LEU A   2      -8.190   0.589 131.332  0.00  0.00    +0.000 C 
ATOM     22  CD2 LEU A   2      -7.447  -1.129 131.940  0.00  0.00    +0.000 C 
ENDBRANCH  19  21
ENDBRANCH   1  19
BRANCH   8  23
ATOM     23  C   UNK A   0      -6.162  -0.400 127.404  0.00  0.00    +0.000 C 
BRANCH  23  24
ATOM     24  C   UNK A   0      -6.120  -1.664 128.311  0.00  0.00    +0.000 A 
ATOM     25  C   UNK A   0      -4.894  -1.986 128.910  0.00  0.00    +0.000 A 
ATOM     26  C   UNK A   0      -4.750  -3.127 129.688  0.00  0.00    +0.000 A 
ATOM     27  C   UNK A   0      -5.849  -3.940 129.934  0.00  0.00    +0.000 A 
ATOM     28 CL   UNK A   0      -5.667  -5.345 130.903  0.00  0.00    +0.000 Cl
ATOM     29  C   UNK A   0      -7.089  -3.632 129.393  0.00  0.00    +0.000 A 
ATOM     30  C   UNK A   0      -7.212  -2.523 128.558  0.00  0.00    +0.000 A 
ENDBRANCH  23  24
BRANCH  23  31
ATOM     31  C   UNK A   0      -7.412  -0.622 126.459  0.00  0.00    +0.000 C 
ATOM     32  O   UNK A   0      -8.510   0.068 126.487  0.00  0.00    +0.000 OA
ATOM     33  N   UNK A   0      -7.090  -1.415 125.464  0.00  0.00    +0.000 N 
ATOM     34  H   UNK A   0      -6.211  -1.717 125.849  0.00  0.00    +0.000 HD
BRANCH  33  35
ATOM     35  C   UNK A   0      -7.659  -2.170 124.137  0.00  0.00    +0.000 C 
ATOM     36  C   UNK A   0      -5.875  -2.579 123.824  0.00  0.00    +0.000 C 
ATOM     37  C   UNK A   0      -8.412  -3.352 124.614  0.00  0.00    +0.000 C 
ATOM     38  C   UNK A   0      -9.068  -1.373 122.909  0.00  0.00    +0.000 C 
ENDBRANCH  33  35
ENDBRANCH  23  31
ENDBRANCH   8  23
TORSDOF 7
ENDMDL
MODEL 3
REMARK VINA RESULT:      -8.5      3.344      7.523
REMARK  Name = CHEMBL198964
REMARK  12 active torsions:
REMARK  status: ('A' for Active; 'I' for Inactive)
REMARK    1  A    between atoms: CD1_1  and  CG_2
REMARK    2  A    between atoms: CG_2  and  CD2_3
REMARK    3  A    between atoms: CG_2  and  CB_4
REMARK    4  A    between atoms: CB_4  and  CA_5
REMARK    5  A    between atoms: C_9  and  C_10
REMARK    6  A    between atoms: N_21  and  C_22
REMARK    7  A    between atoms: C_22  and  C_23
REMARK    8  A    between atoms: C_22  and  C_30
REMARK    9  A    between atoms: N_25  and  C_26
REMARK   10  A    between atoms: C_26  and  C_27
REMARK   11  A    between atoms: C_26  and  C_28
REMARK   12  A    between atoms: C_26  and  C_29
REMARK                            x       y       z     vdW  Elec       q    Type
REMARK                         _______ _______ _______ _____ _____    ______ ____
ROOT
ATOM      1  CA  LEU A   2      -7.865   2.775 128.461  0.00  0.00    +0.000 C 
ATOM      2  C   LEU A   2      -7.930   4.202 127.952  0.00  0.00    +0.000 C 
ATOM      3  O   LEU A   2      -7.562   4.617 126.859  0.00  0.00    +0.000 OA
ATOM      4  N   UNK A   1      -8.553   5.032 128.795  0.00  0.00    +0.000 N 
ATOM      5  C   UNK A   1      -9.311   4.567 129.933  0.00  0.00    +0.000 C 
ATOM      6  C   UNK A   1      -8.449   3.639 130.750  0.00  0.00    +0.000 C 
ATOM      7  O   UNK A   1      -8.532   3.626 131.978  0.00  0.00    +0.000 OA
ATOM      8  N   LEU A   2      -7.653   2.746 129.997  0.00  0.00    +0.000 N 
ATOM      9  H   UNK A   1      -8.656   5.952 128.394  0.00  0.00    +0.000 HD
ENDROOT
BRANCH   5  10
ATOM     10  C   UNK A   1      -9.811   5.724 130.804  0.00  0.00    +0.000 C 
ATOM     11  C   UNK A   1     -11.341   5.573 130.825  0.00  0.00    +0.000 C 
ATOM     12  C   UNK A   1     -11.745   6.530 129.736  0.00  0.00    +0.000 A 
ATOM     13  C   UNK A   1     -12.890   6.495 128.960  0.00  0.00    +0.000 A 
ATOM     14  C   UNK A   1     -13.040   7.451 127.953  0.00  0.00    +0.000 A 
ATOM     15  C   UNK A   1     -12.052   8.422 127.731  0.00  0.00    +0.000 A 
ATOM     16  C   UNK A   1     -10.873   8.419 128.481  0.00  0.00    +0.000 A 
ATOM     17  C   UNK A   1     -10.720   7.445 129.454  0.00  0.00    +0.000 A 
ATOM     18  C   UNK A   1      -9.529   7.175 130.316  0.00  0.00    +0.000 C 
ENDBRANCH   5  10
BRANCH   1  19
ATOM     19  CB  LEU A   2      -6.788   2.210 127.569  0.00  0.00    +0.000 C 
BRANCH  19  21
ATOM     20  CD1 LEU A   2      -6.499   2.017 124.798  0.00  0.00    +0.000 C 
ATOM     21  CG  LEU A   2      -7.392   1.371 126.451  0.00  0.00    +0.000 C 
ATOM     22  CD2 LEU A   2      -7.898  -0.460 126.967  0.00  0.00    +0.000 C 
ENDBRANCH  19  21
ENDBRANCH   1  19
BRANCH   8  23
ATOM     23  C   UNK A   0      -6.683   1.959 130.896  0.00  0.00    +0.000 C 
BRANCH  23  24
ATOM     24  C   UNK A   0      -6.684   0.445 130.534  0.00  0.00    +0.000 A 
ATOM     25  C   UNK A   0      -7.881  -0.261 130.718  0.00  0.00    +0.000 A 
ATOM     26  C   UNK A   0      -7.957  -1.626 130.474  0.00  0.00    +0.000 A 
ATOM     27  C   UNK A   0      -6.848  -2.304 129.982  0.00  0.00    +0.000 A 
ATOM     28 CL   UNK A   0      -6.951  -3.990 129.677  0.00  0.00    +0.000 Cl
ATOM     29  C   UNK A   0      -5.658  -1.632 129.748  0.00  0.00    +0.000 A 
ATOM     30  C   UNK A   0      -5.567  -0.276 130.058  0.00  0.00    +0.000 A 
ENDBRANCH  23  24
BRANCH  23  31
ATOM     31  C   UNK A   0      -5.153   2.348 131.006  0.00  0.00    +0.000 C 
ATOM     32  O   UNK A   0      -4.404   2.744 130.023  0.00  0.00    +0.000 OA
ATOM     33  N   UNK A   0      -4.810   2.479 132.265  0.00  0.00    +0.000 N 
ATOM     34  H   UNK A   0      -5.644   2.064 132.647  0.00  0.00    +0.000 HD
BRANCH  33  35
ATOM     35  C   UNK A   0      -3.568   2.795 133.272  0.00  0.00    +0.000 C 
ATOM     36  C   UNK A   0      -4.883   2.867 134.582  0.00  0.00    +0.000 C 
ATOM     37  C   UNK A   0      -2.773   1.551 133.366  0.00  0.00    +0.000 C 
ATOM     38  C   UNK A   0      -2.069   4.096 132.831  0.00  0.00    +0.000 C 
ENDBRANCH  33  35
ENDBRANCH  23  31
ENDBRANCH   8  23
TORSDOF 7
ENDMDL
MODEL 4
REMARK VINA RESULT:      -8.5      3.265      8.339
REMARK  Name = CHEMBL198964
REMARK  12 active torsions:
REMARK  status: ('A' for Active; 'I' for Inactive)
REMARK    1  A    between atoms: CD1_1  and  CG_2
REMARK    2  A    between atoms: CG_2  and  CD2_3
REMARK    3  A    between atoms: CG_2  and  CB_4
REMARK    4  A    between atoms: CB_4  and  CA_5
REMARK    5  A    between atoms: C_9  and  C_10
REMARK    6  A    between atoms: N_21  and  C_22
REMARK    7  A    between atoms: C_22  and  C_23
REMARK    8  A    between atoms: C_22  and  C_30
REMARK    9  A    between atoms: N_25  and  C_26
REMARK   10  A    between atoms: C_26  and  C_27
REMARK   11  A    between atoms: C_26  and  C_28
REMARK   12  A    between atoms: C_26  and  C_29
REMARK                            x       y       z     vdW  Elec       q    Type
REMARK                         _______ _______ _______ _____ _____    ______ ____
ROOT
ATOM      1  CA  LEU A   2      -5.858   2.554 127.617  0.00  0.00    +0.000 C 
ATOM      2  C   LEU A   2      -5.584   2.370 129.097  0.00  0.00    +0.000 C 
ATOM      3  O   LEU A   2      -4.494   2.391 129.657  0.00  0.00    +0.000 OA
ATOM      4  N   UNK A   1      -6.699   2.274 129.828  0.00  0.00    +0.000 N 
ATOM      5  C   UNK A   1      -8.009   2.579 129.303  0.00  0.00    +0.000 C 
ATOM      6  C   UNK A   1      -8.221   1.798 128.031  0.00  0.00    +0.000 C 
ATOM      7  O   UNK A   1      -9.332   1.350 127.750  0.00  0.00    +0.000 OA
ATOM      8  N   LEU A   2      -7.097   1.731 127.177  0.00  0.00    +0.000 N 
ATOM      9  H   UNK A   1      -6.487   2.236 130.814  0.00  0.00    +0.000 HD
ENDROOT
BRANCH   5  10
ATOM     10  C   UNK A   1      -9.121   2.261 130.307  0.00  0.00    +0.000 C 
ATOM     11  C   UNK A   1      -9.928   3.564 130.432  0.00  0.00    +0.000 C 
ATOM     12  C   UNK A   1      -9.313   4.172 131.664  0.00  0.00    +0.000 A 
ATOM     13  C   UNK A   1      -9.255   5.512 132.008  0.00  0.00    +0.000 A 
ATOM     14  C   UNK A   1      -8.578   5.869 133.176  0.00  0.00    +0.000 A 
ATOM     15  C   UNK A   1      -7.967   4.894 133.979  0.00  0.00    +0.000 A 
ATOM     16  C   UNK A   1      -7.980   3.551 133.597  0.00  0.00    +0.000 A 
ATOM     17  C   UNK A   1      -8.627   3.212 132.420  0.00  0.00    +0.000 A 
ATOM     18  C   UNK A   1      -8.703   1.874 131.756  0.00  0.00    +0.000 C 
ENDBRANCH   5  10
BRANCH   1  19
ATOM     19  CB  LEU A   2      -4.510   2.203 127.038  0.00  0.00    +0.000 C 
BRANCH  19  21
ATOM     20  CD1 LEU A   2      -1.860   3.045 126.784  0.00  0.00    +0.000 C 
ATOM     21  CG  LEU A   2      -3.790   3.450 126.541  0.00  0.00    +0.000 C 
ATOM     22  CD2 LEU A   2      -4.695   4.405 125.077  0.00  0.00    +0.000 C 
ENDBRANCH  19  21
ENDBRANCH   1  19
BRANCH   8  23
ATOM     23  C   UNK A   0      -7.343   0.779 125.994  0.00  0.00    +0.000 C 
BRANCH  23  24
ATOM     24  C   UNK A   0      -7.554   1.570 124.670  0.00  0.00    +0.000 A 
ATOM     25  C   UNK A   0      -8.873   1.868 124.300  0.00  0.00    +0.000 A 
ATOM     26  C   UNK A   0      -9.157   2.521 123.108  0.00  0.00    +0.000 A 
ATOM     27  C   UNK A   0      -8.119   2.944 122.286  0.00  0.00    +0.000 A 
ATOM     28 CL   UNK A   0      -8.477   3.756 120.817  0.00  0.00    +0.000 Cl
ATOM     29  C   UNK A   0      -6.799   2.704 122.638  0.00  0.00    +0.000 A 
ATOM     30  C   UNK A   0      -6.522   1.989 123.802  0.00  0.00    +0.000 A 
ENDBRANCH  23  24
BRANCH  23  31
ATOM     31  C   UNK A   0      -6.315  -0.366 125.621  0.00  0.00    +0.000 C 
ATOM     32  O   UNK A   0      -5.256  -0.677 126.302  0.00  0.00    +0.000 OA
ATOM     33  N   UNK A   0      -6.818  -1.137 124.687  0.00  0.00    +0.000 N 
ATOM     34  H   UNK A   0      -7.588  -0.532 124.452  0.00  0.00    +0.000 HD
BRANCH  33  35
ATOM     35  C   UNK A   0      -6.521  -2.424 123.733  0.00  0.00    +0.000 C 
ATOM     36  C   UNK A   0      -8.323  -2.798 123.983  0.00  0.00    +0.000 C 
ATOM     37  C   UNK A   0      -6.259  -1.894 122.377  0.00  0.00    +0.000 C 
ATOM     38  C   UNK A   0      -4.885  -3.614 123.930  0.00  0.00    +0.000 C 
ENDBRANCH  33  35
ENDBRANCH  23  31
ENDBRANCH   8  23
TORSDOF 7
ENDMDL
MODEL 5
REMARK VINA RESULT:      -8.3      4.123      6.776
REMARK  Name = CHEMBL198964
REMARK  12 active torsions:
REMARK  status: ('A' for Active; 'I' for Inactive)
REMARK    1  A    between atoms: CD1_1  and  CG_2
REMARK    2  A    between atoms: CG_2  and  CD2_3
REMARK    3  A    between atoms: CG_2  and  CB_4
REMARK    4  A    between atoms: CB_4  and  CA_5
REMARK    5  A    between atoms: C_9  and  C_10
REMARK    6  A    between atoms: N_21  and  C_22
REMARK    7  A    between atoms: C_22  and  C_23
REMARK    8  A    between atoms: C_22  and  C_30
REMARK    9  A    between atoms: N_25  and  C_26
REMARK   10  A    between atoms: C_26  and  C_27
REMARK   11  A    between atoms: C_26  and  C_28
REMARK   12  A    between atoms: C_26  and  C_29
REMARK                            x       y       z     vdW  Elec       q    Type
REMARK                         _______ _______ _______ _____ _____    ______ ____
ROOT
ATOM      1  CA  LEU A   2      -6.709   1.710 132.308  0.00  0.00    +0.000 C 
ATOM      2  C   LEU A   2      -6.087   0.653 133.201  0.00  0.00    +0.000 C 
ATOM      3  O   LEU A   2      -6.392   0.387 134.358  0.00  0.00    +0.000 OA
ATOM      4  N   UNK A   1      -5.182  -0.101 132.569  0.00  0.00    +0.000 N 
ATOM      5  C   UNK A   1      -5.012  -0.083 131.134  0.00  0.00    +0.000 C 
ATOM      6  C   UNK A   1      -4.827   1.342 130.681  0.00  0.00    +0.000 C 
ATOM      7  O   UNK A   1      -4.065   1.608 129.752  0.00  0.00    +0.000 OA
ATOM      8  N   LEU A   2      -5.659   2.287 131.322  0.00  0.00    +0.000 N 
ATOM      9  H   UNK A   1      -4.848  -0.846 133.162  0.00  0.00    +0.000 HD
ENDROOT
BRANCH   5  10
ATOM     10  C   UNK A   1      -3.824  -0.938 130.684  0.00  0.00    +0.000 C 
ATOM     11  C   UNK A   1      -4.399  -1.893 129.626  0.00  0.00    +0.000 C 
ATOM     12  C   UNK A   1      -4.666  -3.121 130.453  0.00  0.00    +0.000 A 
ATOM     13  C   UNK A   1      -5.595  -4.119 130.214  0.00  0.00    +0.000 A 
ATOM     14  C   UNK A   1      -5.723  -5.147 131.150  0.00  0.00    +0.000 A 
ATOM     15  C   UNK A   1      -4.932  -5.167 132.308  0.00  0.00    +0.000 A 
ATOM     16  C   UNK A   1      -4.036  -4.129 132.572  0.00  0.00    +0.000 A 
ATOM     17  C   UNK A   1      -3.941  -3.097 131.653  0.00  0.00    +0.000 A 
ATOM     18  C   UNK A   1      -3.134  -1.841 131.748  0.00  0.00    +0.000 C 
ENDBRANCH   5  10
BRANCH   1  19
ATOM     19  CB  LEU A   2      -7.314   2.626 133.342  0.00  0.00    +0.000 C 
BRANCH  19  21
ATOM     20  CD1 LEU A   2      -9.321   4.537 133.686  0.00  0.00    +0.000 C 
ATOM     21  CG  LEU A   2      -8.830   2.672 133.206  0.00  0.00    +0.000 C 
ATOM     22  CD2 LEU A   2      -9.576   1.501 131.811  0.00  0.00    +0.000 C 
ENDBRANCH  19  21
ENDBRANCH   1  19
BRANCH   8  23
ATOM     23  C   UNK A   0      -5.288   3.727 130.928  0.00  0.00    +0.000 C 
BRANCH  23  24
ATOM     24  C   UNK A   0      -6.561   4.589 130.682  0.00  0.00    +0.000 A 
ATOM     25  C   UNK A   0      -6.636   5.827 131.336  0.00  0.00    +0.000 A 
ATOM     26  C   UNK A   0      -7.759   6.635 131.220  0.00  0.00    +0.000 A 
ATOM     27  C   UNK A   0      -8.809   6.248 130.395  0.00  0.00    +0.000 A 
ATOM     28 CL   UNK A   0     -10.190   7.256 130.250  0.00  0.00    +0.000 Cl
ATOM     29  C   UNK A   0      -8.753   5.049 129.699  0.00  0.00    +0.000 A 
ATOM     30  C   UNK A   0      -7.653   4.210 129.873  0.00  0.00    +0.000 A 
ENDBRANCH  23  24
BRANCH  23  31
ATOM     31  C   UNK A   0      -4.362   4.626 131.844  0.00  0.00    +0.000 C 
ATOM     32  O   UNK A   0      -4.239   4.513 133.131  0.00  0.00    +0.000 OA
ATOM     33  N   UNK A   0      -3.531   5.319 131.103  0.00  0.00    +0.000 N 
ATOM     34  H   UNK A   0      -3.987   5.130 130.226  0.00  0.00    +0.000 HD
BRANCH  33  35
ATOM     35  C   UNK A   0      -2.341   6.431 131.138  0.00  0.00    +0.000 C 
ATOM     36  C   UNK A   0      -2.371   6.260 129.289  0.00  0.00    +0.000 C 
ATOM     37  C   UNK A   0      -2.962   7.701 131.577  0.00  0.00    +0.000 C 
ATOM     38  C   UNK A   0      -0.786   6.372 132.446  0.00  0.00    +0.000 C 
ENDBRANCH  33  35
ENDBRANCH  23  31
ENDBRANCH   8  23
TORSDOF 7
ENDMDL
MODEL 6
REMARK VINA RESULT:      -8.2      2.615      5.305
REMARK  Name = CHEMBL198964
REMARK  12 active torsions:
REMARK  status: ('A' for Active; 'I' for Inactive)
REMARK    1  A    between atoms: CD1_1  and  CG_2
REMARK    2  A    between atoms: CG_2  and  CD2_3
REMARK    3  A    between atoms: CG_2  and  CB_4
REMARK    4  A    between atoms: CB_4  and  CA_5
REMARK    5  A    between atoms: C_9  and  C_10
REMARK    6  A    between atoms: N_21  and  C_22
REMARK    7  A    between atoms: C_22  and  C_23
REMARK    8  A    between atoms: C_22  and  C_30
REMARK    9  A    between atoms: N_25  and  C_26
REMARK   10  A    between atoms: C_26  and  C_27
REMARK   11  A    between atoms: C_26  and  C_28
REMARK   12  A    between atoms: C_26  and  C_29
REMARK                            x       y       z     vdW  Elec       q    Type
REMARK                         _______ _______ _______ _____ _____    ______ ____
ROOT
ATOM      1  CA  LEU A   2      -7.976   1.323 129.516  0.00  0.00    +0.000 C 
ATOM      2  C   LEU A   2      -7.265   0.191 128.801  0.00  0.00    +0.000 C 
ATOM      3  O   LEU A   2      -6.709  -0.775 129.310  0.00  0.00    +0.000 OA
ATOM      4  N   UNK A   1      -7.374   0.261 127.470  0.00  0.00    +0.000 N 
ATOM      5  C   UNK A   1      -8.289   1.161 126.806  0.00  0.00    +0.000 C 
ATOM      6  C   UNK A   1      -8.066   2.558 127.327  0.00  0.00    +0.000 C 
ATOM      7  O   UNK A   1      -8.171   3.528 126.577  0.00  0.00    +0.000 OA
ATOM      8  N   LEU A   2      -7.847   2.648 128.720  0.00  0.00    +0.000 N 
ATOM      9  H   UNK A   1      -6.965  -0.548 127.026  0.00  0.00    +0.000 HD
ENDROOT
BRANCH   5  10
ATOM     10  C   UNK A   1      -8.120   1.133 125.284  0.00  0.00    +0.000 C 
ATOM     11  C   UNK A   1      -9.244   0.216 124.776  0.00  0.00    +0.000 C 
ATOM     12  C   UNK A   1      -8.515  -1.095 124.643  0.00  0.00    +0.000 A 
ATOM     13  C   UNK A   1      -9.048  -2.371 124.702  0.00  0.00    +0.000 A 
ATOM     14  C   UNK A   1      -8.178  -3.459 124.617  0.00  0.00    +0.000 A 
ATOM     15  C   UNK A   1      -6.795  -3.265 124.480  0.00  0.00    +0.000 A 
ATOM     16  C   UNK A   1      -6.257  -1.976 124.477  0.00  0.00    +0.000 A 
ATOM     17  C   UNK A   1      -7.126  -0.904 124.595  0.00  0.00    +0.000 A 
ATOM     18  C   UNK A   1      -6.797   0.550 124.709  0.00  0.00    +0.000 C 
ENDBRANCH   5  10
BRANCH   1  19
ATOM     19  CB  LEU A   2      -7.341   1.232 130.881  0.00  0.00    +0.000 C 
BRANCH  19  21
ATOM     20  CD1 LEU A   2      -8.139  -0.907 132.489  0.00  0.00    +0.000 C 
ATOM     21  CG  LEU A   2      -8.393   0.990 131.955  0.00  0.00    +0.000 C 
ATOM     22  CD2 LEU A   2      -8.822   2.556 133.066  0.00  0.00    +0.000 C 
ENDBRANCH  19  21
ENDBRANCH   1  19
BRANCH   8  23
ATOM     23  C   UNK A   0      -7.460   4.077 129.139  0.00  0.00    +0.000 C 
BRANCH  23  24
ATOM     24  C   UNK A   0      -8.661   4.813 129.802  0.00  0.00    +0.000 A 
ATOM     25  C   UNK A   0      -9.842   4.081 129.987  0.00  0.00    +0.000 A 
ATOM     26  C   UNK A   0     -10.981   4.673 130.518  0.00  0.00    +0.000 A 
ATOM     27  C   UNK A   0     -10.942   5.999 130.933  0.00  0.00    +0.000 A 
ATOM     28 CL   UNK A   0     -12.350   6.722 131.596  0.00  0.00    +0.000 Cl
ATOM     29  C   UNK A   0      -9.779   6.744 130.805  0.00  0.00    +0.000 A 
ATOM     30  C   UNK A   0      -8.660   6.165 130.209  0.00  0.00    +0.000 A 
ENDBRANCH  23  24
BRANCH  23  31
ATOM     31  C   UNK A   0      -6.234   4.357 130.100  0.00  0.00    +0.000 C 
ATOM     32  O   UNK A   0      -6.287   4.397 131.396  0.00  0.00    +0.000 OA
ATOM     33  N   UNK A   0      -5.109   4.273 129.431  0.00  0.00    +0.000 N 
ATOM     34  H   UNK A   0      -5.528   4.266 128.516  0.00  0.00    +0.000 HD
BRANCH  33  35
ATOM     35  C   UNK A   0      -3.490   4.420 129.544  0.00  0.00    +0.000 C 
ATOM     36  C   UNK A   0      -3.458   2.874 128.515  0.00  0.00    +0.000 C 
ATOM     37  C   UNK A   0      -3.117   5.610 128.749  0.00  0.00    +0.000 C 
ATOM     38  C   UNK A   0      -2.521   4.878 131.271  0.00  0.00    +0.000 C 
ENDBRANCH  33  35
ENDBRANCH  23  31
ENDBRANCH   8  23
TORSDOF 7
ENDMDL
MODEL 7
REMARK VINA RESULT:      -8.0      3.117      7.729
REMARK  Name = CHEMBL198964
REMARK  12 active torsions:
REMARK  status: ('A' for Active; 'I' for Inactive)
REMARK    1  A    between atoms: CD1_1  and  CG_2
REMARK    2  A    between atoms: CG_2  and  CD2_3
REMARK    3  A    between atoms: CG_2  and  CB_4
REMARK    4  A    between atoms: CB_4  and  CA_5
REMARK    5  A    between atoms: C_9  and  C_10
REMARK    6  A    between atoms: N_21  and  C_22
REMARK    7  A    between atoms: C_22  and  C_23
REMARK    8  A    between atoms: C_22  and  C_30
REMARK    9  A    between atoms: N_25  and  C_26
REMARK   10  A    between atoms: C_26  and  C_27
REMARK   11  A    between atoms: C_26  and  C_28
REMARK   12  A    between atoms: C_26  and  C_29
REMARK                            x       y       z     vdW  Elec       q    Type
REMARK                         _______ _______ _______ _____ _____    ______ ____
ROOT
ATOM      1  CA  LEU A   2      -5.184   4.139 128.572  0.00  0.00    +0.000 C 
ATOM      2  C   LEU A   2      -5.419   4.220 130.068  0.00  0.00    +0.000 C 
ATOM      3  O   LEU A   2      -4.576   4.164 130.955  0.00  0.00    +0.000 OA
ATOM      4  N   UNK A   1      -6.692   4.478 130.385  0.00  0.00    +0.000 N 
ATOM      5  C   UNK A   1      -7.674   4.894 129.410  0.00  0.00    +0.000 C 
ATOM      6  C   UNK A   1      -7.671   3.916 128.264  0.00  0.00    +0.000 C 
ATOM      7  O   UNK A   1      -8.719   3.623 127.689  0.00  0.00    +0.000 OA
ATOM      8  N   LEU A   2      -6.391   3.475 127.858  0.00  0.00    +0.000 N 
ATOM      9  H   UNK A   1      -6.802   4.610 131.380  0.00  0.00    +0.000 HD
ENDROOT
BRANCH   5  10
ATOM     10  C   UNK A   1      -9.078   4.995 130.013  0.00  0.00    +0.000 C 
ATOM     11  C   UNK A   1      -9.013   6.192 130.975  0.00  0.00    +0.000 C 
ATOM     12  C   UNK A   1      -8.756   5.500 132.287  0.00  0.00    +0.000 A 
ATOM     13  C   UNK A   1      -8.134   6.017 133.410  0.00  0.00    +0.000 A 
ATOM     14  C   UNK A   1      -7.940   5.178 134.509  0.00  0.00    +0.000 A 
ATOM     15  C   UNK A   1      -8.362   3.840 134.474  0.00  0.00    +0.000 A 
ATOM     16  C   UNK A   1      -8.938   3.308 133.318  0.00  0.00    +0.000 A 
ATOM     17  C   UNK A   1      -9.095   4.141 132.223  0.00  0.00    +0.000 A 
ATOM     18  C   UNK A   1      -9.594   3.793 130.857  0.00  0.00    +0.000 C 
ENDBRANCH   5  10
BRANCH   1  19
ATOM     19  CB  LEU A   2      -3.847   3.442 128.538  0.00  0.00    +0.000 C 
BRANCH  19  21
ATOM     20  CD1 LEU A   2      -2.383   5.815 128.682  0.00  0.00    +0.000 C 
ATOM     21  CG  LEU A   2      -2.867   4.190 127.645  0.00  0.00    +0.000 C 
ATOM     22  CD2 LEU A   2      -1.736   3.047 126.510  0.00  0.00    +0.000 C 
ENDBRANCH  19  21
ENDBRANCH   1  19
BRANCH   8  23
ATOM     23  C   UNK A   0      -6.487   2.356 126.806  0.00  0.00    +0.000 C 
BRANCH  23  24
ATOM     24  C   UNK A   0      -6.262   2.914 125.370  0.00  0.00    +0.000 A 
ATOM     25  C   UNK A   0      -6.925   2.269 124.317  0.00  0.00    +0.000 A 
ATOM     26  C   UNK A   0      -6.738   2.663 122.999  0.00  0.00    +0.000 A 
ATOM     27  C   UNK A   0      -5.928   3.755 122.711  0.00  0.00    +0.000 A 
ATOM     28 CL   UNK A   0      -5.707   4.242 121.080  0.00  0.00    +0.000 Cl
ATOM     29  C   UNK A   0      -5.288   4.445 123.730  0.00  0.00    +0.000 A 
ATOM     30  C   UNK A   0      -5.425   4.003 125.045  0.00  0.00    +0.000 A 
ENDBRANCH  23  24
BRANCH  23  31
ATOM     31  C   UNK A   0      -5.578   1.063 126.884  0.00  0.00    +0.000 C 
ATOM     32  O   UNK A   0      -4.448   0.898 126.268  0.00  0.00    +0.000 OA
ATOM     33  N   UNK A   0      -5.978   0.289 127.864  0.00  0.00    +0.000 N 
ATOM     34  H   UNK A   0      -6.850   0.765 128.028  0.00  0.00    +0.000 HD
BRANCH  33  35
ATOM     35  C   UNK A   0      -5.712  -1.129 128.623  0.00  0.00    +0.000 C 
ATOM     36  C   UNK A   0      -7.522  -1.045 129.029  0.00  0.00    +0.000 C 
ATOM     37  C   UNK A   0      -5.437  -2.128 127.567  0.00  0.00    +0.000 C 
ATOM     38  C   UNK A   0      -4.104  -1.480 129.816  0.00  0.00    +0.000 C 
ENDBRANCH  33  35
ENDBRANCH  23  31
ENDBRANCH   8  23
TORSDOF 7
ENDMDL
MODEL 8
REMARK VINA RESULT:      -8.0      3.161      3.893
REMARK  Name = CHEMBL198964
REMARK  12 active torsions:
REMARK  status: ('A' for Active; 'I' for Inactive)
REMARK    1  A    between atoms: CD1_1  and  CG_2
REMARK    2  A    between atoms: CG_2  and  CD2_3
REMARK    3  A    between atoms: CG_2  and  CB_4
REMARK    4  A    between atoms: CB_4  and  CA_5
REMARK    5  A    between atoms: C_9  and  C_10
REMARK    6  A    between atoms: N_21  and  C_22
REMARK    7  A    between atoms: C_22  and  C_23
REMARK    8  A    between atoms: C_22  and  C_30
REMARK    9  A    between atoms: N_25  and  C_26
REMARK   10  A    between atoms: C_26  and  C_27
REMARK   11  A    between atoms: C_26  and  C_28
REMARK   12  A    between atoms: C_26  and  C_29
REMARK                            x       y       z     vdW  Elec       q    Type
REMARK                         _______ _______ _______ _____ _____    ______ ____
ROOT
ATOM      1  CA  LEU A   2      -4.811   2.987 129.781  0.00  0.00    +0.000 C 
ATOM      2  C   LEU A   2      -5.726   2.017 129.059  0.00  0.00    +0.000 C 
ATOM      3  O   LEU A   2      -5.838   1.865 127.848  0.00  0.00    +0.000 OA
ATOM      4  N   UNK A   1      -6.384   1.201 129.888  0.00  0.00    +0.000 N 
ATOM      5  C   UNK A   1      -6.059   1.080 131.291  0.00  0.00    +0.000 C 
ATOM      6  C   UNK A   1      -6.041   2.454 131.910  0.00  0.00    +0.000 C 
ATOM      7  O   UNK A   1      -6.436   2.626 133.062  0.00  0.00    +0.000 OA
ATOM      8  N   LEU A   2      -5.449   3.460 131.114  0.00  0.00    +0.000 N 
ATOM      9  H   UNK A   1      -6.919   0.514 129.378  0.00  0.00    +0.000 HD
ENDROOT
BRANCH   5  10
ATOM     10  C   UNK A   1      -7.048   0.179 132.036  0.00  0.00    +0.000 C 
ATOM     11  C   UNK A   1      -6.201  -0.993 132.560  0.00  0.00    +0.000 C 
ATOM     12  C   UNK A   1      -6.434  -2.024 131.488  0.00  0.00    +0.000 A 
ATOM     13  C   UNK A   1      -5.606  -3.072 131.127  0.00  0.00    +0.000 A 
ATOM     14  C   UNK A   1      -5.987  -3.881 130.054  0.00  0.00    +0.000 A 
ATOM     15  C   UNK A   1      -7.179  -3.635 129.356  0.00  0.00    +0.000 A 
ATOM     16  C   UNK A   1      -7.983  -2.542 129.689  0.00  0.00    +0.000 A 
ATOM     17  C   UNK A   1      -7.579  -1.727 130.733  0.00  0.00    +0.000 A 
ATOM     18  C   UNK A   1      -8.207  -0.460 131.219  0.00  0.00    +0.000 C 
ENDBRANCH   5  10
BRANCH   1  19
ATOM     19  CB  LEU A   2      -4.566   4.002 128.693  0.00  0.00    +0.000 C 
BRANCH  19  21
ATOM     20  CD1 LEU A   2      -2.612   2.914 127.021  0.00  0.00    +0.000 C 
ATOM     21  CG  LEU A   2      -3.074   4.202 128.462  0.00  0.00    +0.000 C 
ATOM     22  CD2 LEU A   2      -2.427   6.036 128.756  0.00  0.00    +0.000 C 
ENDBRANCH  19  21
ENDBRANCH   1  19
BRANCH   8  23
ATOM     23  C   UNK A   0      -5.626   4.854 131.741  0.00  0.00    +0.000 C 
BRANCH  23  24
ATOM     24  C   UNK A   0      -4.252   5.554 131.954  0.00  0.00    +0.000 A 
ATOM     25  C   UNK A   0      -3.131   4.730 132.133  0.00  0.00    +0.000 A 
ATOM     26  C   UNK A   0      -1.876   5.268 132.386  0.00  0.00    +0.000 A 
ATOM     27  C   UNK A   0      -1.704   6.647 132.405  0.00  0.00    +0.000 A 
ATOM     28 CL   UNK A   0      -0.149   7.304 132.711  0.00  0.00    +0.000 Cl
ATOM     29  C   UNK A   0      -2.782   7.494 132.191  0.00  0.00    +0.000 A 
ATOM     30  C   UNK A   0      -4.051   6.950 132.005  0.00  0.00    +0.000 A 
ENDBRANCH  23  24
BRANCH  23  31
ATOM     31  C   UNK A   0      -6.541   5.957 131.069  0.00  0.00    +0.000 C 
ATOM     32  O   UNK A   0      -6.115   6.979 130.392  0.00  0.00    +0.000 OA
ATOM     33  N   UNK A   0      -7.790   5.558 131.052  0.00  0.00    +0.000 N 
ATOM     34  H   UNK A   0      -7.662   4.780 131.678  0.00  0.00    +0.000 HD
BRANCH  33  35
ATOM     35  C   UNK A   0      -9.308   5.980 130.637  0.00  0.00    +0.000 C 
ATOM     36  C   UNK A   0      -9.485   4.192 130.167  0.00  0.00    +0.000 C 
ATOM     37  C   UNK A   0     -10.022   6.285 131.896  0.00  0.00    +0.000 C 
ATOM     38  C   UNK A   0      -9.760   7.670 129.601  0.00  0.00    +0.000 C 
ENDBRANCH  33  35
ENDBRANCH  23  31
ENDBRANCH   8  23
TORSDOF 7
ENDMDL
MODEL 9
REMARK VINA RESULT:      -7.7      1.644      2.277
REMARK  Name = CHEMBL198964
REMARK  12 active torsions:
REMARK  status: ('A' for Active; 'I' for Inactive)
REMARK    1  A    between atoms: CD1_1  and  CG_2
REMARK    2  A    between atoms: CG_2  and  CD2_3
REMARK    3  A    between atoms: CG_2  and  CB_4
REMARK    4  A    between atoms: CB_4  and  CA_5
REMARK    5  A    between atoms: C_9  and  C_10
REMARK    6  A    between atoms: N_21  and  C_22
REMARK    7  A    between atoms: C_22  and  C_23
REMARK    8  A    between atoms: C_22  and  C_30
REMARK    9  A    between atoms: N_25  and  C_26
REMARK   10  A    between atoms: C_26  and  C_27
REMARK   11  A    between atoms: C_26  and  C_28
REMARK   12  A    between atoms: C_26  and  C_29
REMARK                            x       y       z     vdW  Elec       q    Type
REMARK                         _______ _______ _______ _____ _____    ______ ____
ROOT
ATOM      1  CA  LEU A   2      -5.901   2.472 126.811  0.00  0.00    +0.000 C 
ATOM      2  C   LEU A   2      -6.776   1.564 125.968  0.00  0.00    +0.000 C 
ATOM      3  O   LEU A   2      -7.282   1.822 124.882  0.00  0.00    +0.000 OA
ATOM      4  N   UNK A   1      -6.889   0.331 126.471  0.00  0.00    +0.000 N 
ATOM      5  C   UNK A   1      -6.059  -0.155 127.549  0.00  0.00    +0.000 C 
ATOM      6  C   UNK A   1      -6.124   0.821 128.696  0.00  0.00    +0.000 C 
ATOM      7  O   UNK A   1      -6.102   0.421 129.860  0.00  0.00    +0.000 OA
ATOM      8  N   LEU A   2      -6.101   2.184 128.322  0.00  0.00    +0.000 N 
ATOM      9  H   UNK A   1      -7.405  -0.273 125.848  0.00  0.00    +0.000 HD
ENDROOT
BRANCH   5  10
ATOM     10  C   UNK A   1      -6.483  -1.549 128.020  0.00  0.00    +0.000 C 
ATOM     11  C   UNK A   1      -5.802  -2.522 127.044  0.00  0.00    +0.000 C 
ATOM     12  C   UNK A   1      -6.913  -2.776 126.060  0.00  0.00    +0.000 A 
ATOM     13  C   UNK A   1      -6.800  -3.155 124.734  0.00  0.00    +0.000 A 
ATOM     14  C   UNK A   1      -7.965  -3.275 123.975  0.00  0.00    +0.000 A 
ATOM     15  C   UNK A   1      -9.222  -3.014 124.542  0.00  0.00    +0.000 A 
ATOM     16  C   UNK A   1      -9.327  -2.578 125.864  0.00  0.00    +0.000 A 
ATOM     17  C   UNK A   1      -8.161  -2.430 126.598  0.00  0.00    +0.000 A 
ATOM     18  C   UNK A   1      -8.000  -1.897 127.986  0.00  0.00    +0.000 C 
ENDBRANCH   5  10
BRANCH   1  19
ATOM     19  CB  LEU A   2      -6.300   3.823 126.271  0.00  0.00    +0.000 C 
BRANCH  19  21
ATOM     20  CD1 LEU A   2      -3.511   3.958 126.321  0.00  0.00    +0.000 C 
ATOM     21  CG  LEU A   2      -5.206   4.397 125.381  0.00  0.00    +0.000 C 
ATOM     22  CD2 LEU A   2      -5.608   4.383 123.455  0.00  0.00    +0.000 C 
ENDBRANCH  19  21
ENDBRANCH   1  19
BRANCH   8  23
ATOM     23  C   UNK A   0      -6.344   3.105 129.531  0.00  0.00    +0.000 C 
BRANCH  23  24
ATOM     24  C   UNK A   0      -5.108   4.012 129.803  0.00  0.00    +0.000 A 
ATOM     25  C   UNK A   0      -4.157   3.546 130.721  0.00  0.00    +0.000 A 
ATOM     26  C   UNK A   0      -3.053   4.314 131.067  0.00  0.00    +0.000 A 
ATOM     27  C   UNK A   0      -2.845   5.544 130.454  0.00  0.00    +0.000 A 
ATOM     28 CL   UNK A   0      -1.475   6.485 130.881  0.00  0.00    +0.000 Cl
ATOM     29  C   UNK A   0      -3.743   6.021 129.510  0.00  0.00    +0.000 A 
ATOM     30  C   UNK A   0      -4.884   5.276 129.216  0.00  0.00    +0.000 A 
ENDBRANCH  23  24
BRANCH  23  31
ATOM     31  C   UNK A   0      -7.586   4.084 129.592  0.00  0.00    +0.000 C 
ATOM     32  O   UNK A   0      -8.621   4.037 128.812  0.00  0.00    +0.000 OA
ATOM     33  N   UNK A   0      -7.558   4.778 130.705  0.00  0.00    +0.000 N 
ATOM     34  H   UNK A   0      -6.618   4.529 130.963  0.00  0.00    +0.000 HD
BRANCH  33  35
ATOM     35  C   UNK A   0      -8.317   5.941 131.557  0.00  0.00    +0.000 C 
ATOM     36  C   UNK A   0      -6.693   6.101 132.444  0.00  0.00    +0.000 C 
ATOM     37  C   UNK A   0      -8.541   7.069 130.626  0.00  0.00    +0.000 C 
ATOM     38  C   UNK A   0     -10.207   5.751 132.282  0.00  0.00    +0.000 C 
ENDBRANCH  33  35
ENDBRANCH  23  31
ENDBRANCH   8  23
TORSDOF 7
ENDMDL
