MODEL 1
REMARK VINA RESULT:      -8.7      0.000      0.000
REMARK  Name = CHEMBL2113196
REMARK  15 active torsions:
REMARK  status: ('A' for Active; 'I' for Inactive)
REMARK    1  A    between atoms: C_1  and  N_2
REMARK    2  A    between atoms: N_2  and  C_3
REMARK    3  A    between atoms: N_2  and  C_4
REMARK    4  A    between atoms: C_4  and  C_5
REMARK    5  A    between atoms: C_5  and  C_6
REMARK    6  A    between atoms: C_6  and  O_7
REMARK    7  A    between atoms: O_7  and  C_8
REMARK    8  A    between atoms: C_11  and  S_12
REMARK    9  A    between atoms: S_12  and  N_15
REMARK   10  A    between atoms: N_15  and  C_16
REMARK   11  A    between atoms: N_15  and  C_35
REMARK   12  A    between atoms: C_16  and  C_17
REMARK   13  A    between atoms: N_19  and  N_20
REMARK   14  A    between atoms: N_24  and  C_25
REMARK   15  A    between atoms: C_25  and  C_26
REMARK                            x       y       z     vdW  Elec       q    Type
REMARK                         _______ _______ _______ _____ _____    ______ ____
ROOT
ATOM      1  N   UNL     1      -8.100   1.776 124.002  0.00  0.00    +0.000 N 
ENDROOT
BRANCH   1   2
ATOM      2  C   UNL     1      -7.833   2.427 122.670  0.00  0.00    +0.000 A 
ATOM      3  C   UNL     1      -6.491   2.670 122.299  0.00  0.00    +0.000 A 
ATOM      4  C   UNL     1      -6.144   3.491 121.208  0.00  0.00    +0.000 A 
ATOM      5  C   UNL     1      -7.139   4.008 120.389  0.00  0.00    +0.000 A 
ATOM      6 CL   UNL     1      -6.715   4.883 118.968  0.00  0.00    +0.000 Cl
ATOM      7  C   UNL     1      -8.473   3.782 120.711  0.00  0.00    +0.000 A 
ATOM      8  C   UNL     1      -8.814   3.019 121.854  0.00  0.00    +0.000 A 
ENDBRANCH   1   2
BRANCH   1   9
ATOM      9  S   UNL     1      -8.586   0.068 123.983  0.00  0.00    +0.000 S 
ATOM     10  O   UNL     1      -7.531  -0.616 123.254  0.00  0.00    +0.000 OA
ATOM     11  O   UNL     1      -9.940   0.001 123.457  0.00  0.00    +0.000 OA
BRANCH   9  15
ATOM     12  C   UNL     1      -8.082  -2.623 127.722  0.00  0.00    +0.000 A 
ATOM     13  C   UNL     1      -7.627  -1.305 127.788  0.00  0.00    +0.000 A 
ATOM     14  C   UNL     1      -7.847  -0.416 126.693  0.00  0.00    +0.000 A 
ATOM     15  C   UNL     1      -8.657  -0.806 125.606  0.00  0.00    +0.000 A 
ATOM     16  C   UNL     1      -9.343  -1.988 125.771  0.00  0.00    +0.000 A 
ATOM     17  C   UNL     1      -8.865  -2.965 126.648  0.00  0.00    +0.000 A 
BRANCH  12  18
ATOM     18  O   UNL     1      -7.963  -3.460 128.792  0.00  0.00    +0.000 OA
BRANCH  18  19
ATOM     19  C   UNL     1      -7.247  -2.969 129.936  0.00  0.00    +0.000 C 
BRANCH  19  20
ATOM     20  C   UNL     1      -6.014  -3.839 130.105  0.00  0.00    +0.000 C 
BRANCH  20  21
ATOM     21  C   UNL     1      -5.069  -3.287 131.178  0.00  0.00    +0.000 C 
BRANCH  21  23
ATOM     22  C   UNL     1      -3.588  -3.643 129.318  0.00  0.00    +0.000 C 
ATOM     23  N   UNL     1      -3.745  -2.989 130.614  0.00  0.00    +0.000 NA
ATOM     24  C   UNL     1      -3.570  -1.546 130.486  0.00  0.00    +0.000 C 
ENDBRANCH  21  23
ENDBRANCH  20  21
ENDBRANCH  19  20
ENDBRANCH  18  19
ENDBRANCH  12  18
ENDBRANCH   9  15
ENDBRANCH   1   9
BRANCH   1  25
ATOM     25  C   UNL     1      -8.388   2.798 125.099  0.00  0.00    +0.000 C 
BRANCH  25  26
ATOM     26  C   UNL     1      -7.322   3.327 126.061  0.00  0.00    +0.000 C 
ATOM     27  O   UNL     1      -6.170   2.926 125.889  0.00  0.00    +0.000 OA
ATOM     28  N   UNL     1      -7.741   4.233 127.098  0.00  0.00    +0.000 N 
ATOM     29  H   UNL     1      -8.737   4.454 127.180  0.00  0.00    +0.000 HD
BRANCH  28  30
ATOM     30  N   UNL     1      -7.032   4.438 128.423  0.00  0.00    +0.000 NA
ATOM     31  C   UNL     1      -7.437   3.654 129.427  0.00  0.00    +0.000 C 
ATOM     32  C   UNL     1      -8.880   3.399 129.581  0.00  0.00    +0.000 C 
ATOM     33  O   UNL     1      -9.273   2.661 128.676  0.00  0.00    +0.000 OA
ATOM     34  N   UNL     1      -9.172   3.326 130.938  0.00  0.00    +0.000 N 
ATOM     35  C   UNL     1      -8.214   2.399 131.317  0.00  0.00    +0.000 A 
ATOM     36  C   UNL     1      -8.647   1.452 132.255  0.00  0.00    +0.000 A 
ATOM     37  C   UNL     1      -7.884   0.344 132.433  0.00  0.00    +0.000 A 
ATOM     38  C   UNL     1      -6.726   0.258 131.645  0.00  0.00    +0.000 A 
ATOM     39  C   UNL     1      -6.287   1.301 130.686  0.00  0.00    +0.000 A 
ATOM     40  C   UNL     1      -7.055   2.457 130.485  0.00  0.00    +0.000 A 
BRANCH  34  41
ATOM     41  C   UNL     1      -9.193   4.358 132.050  0.00  0.00    +0.000 C 
BRANCH  41  42
ATOM     42  C   UNL     1      -9.955   5.604 131.686  0.00  0.00    +0.000 C 
ATOM     43  N   UNL     1     -11.260   5.305 131.369  0.00  0.00    +0.000 N 
ATOM     44  O   UNL     1      -9.469   6.677 131.618  0.00  0.00    +0.000 OA
ATOM     45  H   UNL     1     -11.520   4.383 131.081  0.00  0.00    +0.000 HD
ATOM     46  H   UNL     1     -11.927   6.032 131.176  0.00  0.00    +0.000 HD
ENDBRANCH  41  42
ENDBRANCH  34  41
ENDBRANCH  28  30
ENDBRANCH  25  26
ENDBRANCH   1  25
TORSDOF 13
ENDMDL
MODEL 2
REMARK VINA RESULT:      -8.7      2.846      4.047
REMARK  Name = CHEMBL2113196
REMARK  15 active torsions:
REMARK  status: ('A' for Active; 'I' for Inactive)
REMARK    1  A    between atoms: C_1  and  N_2
REMARK    2  A    between atoms: N_2  and  C_3
REMARK    3  A    between atoms: N_2  and  C_4
REMARK    4  A    between atoms: C_4  and  C_5
REMARK    5  A    between atoms: C_5  and  C_6
REMARK    6  A    between atoms: C_6  and  O_7
REMARK    7  A    between atoms: O_7  and  C_8
REMARK    8  A    between atoms: C_11  and  S_12
REMARK    9  A    between atoms: S_12  and  N_15
REMARK   10  A    between atoms: N_15  and  C_16
REMARK   11  A    between atoms: N_15  and  C_35
REMARK   12  A    between atoms: C_16  and  C_17
REMARK   13  A    between atoms: N_19  and  N_20
REMARK   14  A    between atoms: N_24  and  C_25
REMARK   15  A    between atoms: C_25  and  C_26
REMARK                            x       y       z     vdW  Elec       q    Type
REMARK                         _______ _______ _______ _____ _____    ______ ____
ROOT
ATOM      1  N   UNL     1      -7.412   0.490 123.995  0.00  0.00    +0.000 N 
ENDROOT
BRANCH   1   2
ATOM      2  C   UNL     1      -6.455  -0.663 123.850  0.00  0.00    +0.000 A 
ATOM      3  C   UNL     1      -6.452  -1.385 122.636  0.00  0.00    +0.000 A 
ATOM      4  C   UNL     1      -5.789  -2.619 122.490  0.00  0.00    +0.000 A 
ATOM      5  C   UNL     1      -5.015  -3.115 123.531  0.00  0.00    +0.000 A 
ATOM      6 CL   UNL     1      -4.080  -4.542 123.304  0.00  0.00    +0.000 Cl
ATOM      7  C   UNL     1      -4.979  -2.428 124.740  0.00  0.00    +0.000 A 
ATOM      8  C   UNL     1      -5.711  -1.227 124.903  0.00  0.00    +0.000 A 
ENDBRANCH   1   2
BRANCH   1   9
ATOM      9  S   UNL     1      -8.916   0.185 124.889  0.00  0.00    +0.000 S 
ATOM     10  O   UNL     1      -9.770  -0.531 123.956  0.00  0.00    +0.000 OA
ATOM     11  O   UNL     1      -9.386   1.459 125.410  0.00  0.00    +0.000 OA
BRANCH   9  15
ATOM     12  C   UNL     1      -7.859  -2.851 128.226  0.00  0.00    +0.000 A 
ATOM     13  C   UNL     1      -7.772  -1.490 128.518  0.00  0.00    +0.000 A 
ATOM     14  C   UNL     1      -8.178  -0.522 127.550  0.00  0.00    +0.000 A 
ATOM     15  C   UNL     1      -8.813  -0.927 126.357  0.00  0.00    +0.000 A 
ATOM     16  C   UNL     1      -9.168  -2.255 126.295  0.00  0.00    +0.000 A 
ATOM     17  C   UNL     1      -8.482  -3.205 127.055  0.00  0.00    +0.000 A 
BRANCH  12  18
ATOM     18  O   UNL     1      -7.563  -3.791 129.169  0.00  0.00    +0.000 OA
BRANCH  18  19
ATOM     19  C   UNL     1      -7.052  -3.323 130.427  0.00  0.00    +0.000 C 
BRANCH  19  20
ATOM     20  C   UNL     1      -5.880  -4.215 130.798  0.00  0.00    +0.000 C 
BRANCH  20  21
ATOM     21  C   UNL     1      -4.630  -3.886 129.974  0.00  0.00    +0.000 C 
BRANCH  21  23
ATOM     22  C   UNL     1      -3.362  -2.009 130.782  0.00  0.00    +0.000 C 
ATOM     23  N   UNL     1      -3.523  -3.459 130.841  0.00  0.00    +0.000 NA
ATOM     24  C   UNL     1      -3.768  -3.892 132.214  0.00  0.00    +0.000 C 
ENDBRANCH  21  23
ENDBRANCH  20  21
ENDBRANCH  19  20
ENDBRANCH  18  19
ENDBRANCH  12  18
ENDBRANCH   9  15
ENDBRANCH   1   9
BRANCH   1  25
ATOM     25  C   UNL     1      -7.175   1.575 122.946  0.00  0.00    +0.000 C 
BRANCH  25  26
ATOM     26  C   UNL     1      -7.010   3.058 123.289  0.00  0.00    +0.000 C 
ATOM     27  O   UNL     1      -6.331   3.735 122.516  0.00  0.00    +0.000 OA
ATOM     28  N   UNL     1      -7.641   3.546 124.487  0.00  0.00    +0.000 N 
ATOM     29  H   UNL     1      -8.136   2.878 125.085  0.00  0.00    +0.000 HD
BRANCH  28  30
ATOM     30  N   UNL     1      -7.192   4.753 125.286  0.00  0.00    +0.000 NA
ATOM     31  C   UNL     1      -6.466   4.492 126.378  0.00  0.00    +0.000 C 
ATOM     32  C   UNL     1      -6.863   3.356 127.229  0.00  0.00    +0.000 C 
ATOM     33  O   UNL     1      -6.613   2.296 126.653  0.00  0.00    +0.000 OA
ATOM     34  N   UNL     1      -6.618   3.693 128.555  0.00  0.00    +0.000 N 
ATOM     35  C   UNL     1      -5.298   4.101 128.435  0.00  0.00    +0.000 A 
ATOM     36  C   UNL     1      -4.461   3.707 129.488  0.00  0.00    +0.000 A 
ATOM     37  C   UNL     1      -3.120   3.792 129.294  0.00  0.00    +0.000 A 
ATOM     38  C   UNL     1      -2.706   4.267 128.041  0.00  0.00    +0.000 A 
ATOM     39  C   UNL     1      -3.628   4.704 126.965  0.00  0.00    +0.000 A 
ATOM     40  C   UNL     1      -5.017   4.630 127.140  0.00  0.00    +0.000 A 
BRANCH  34  41
ATOM     41  C   UNL     1      -7.259   4.685 129.507  0.00  0.00    +0.000 C 
BRANCH  41  42
ATOM     42  C   UNL     1      -8.741   4.836 129.293  0.00  0.00    +0.000 C 
ATOM     43  N   UNL     1      -9.437   3.858 129.967  0.00  0.00    +0.000 N 
ATOM     44  O   UNL     1      -9.225   5.646 128.584  0.00  0.00    +0.000 OA
ATOM     45  H   UNL     1      -8.991   3.003 130.232  0.00  0.00    +0.000 HD
ATOM     46  H   UNL     1     -10.441   3.859 129.992  0.00  0.00    +0.000 HD
ENDBRANCH  41  42
ENDBRANCH  34  41
ENDBRANCH  28  30
ENDBRANCH  25  26
ENDBRANCH   1  25
TORSDOF 13
ENDMDL
MODEL 3
REMARK VINA RESULT:      -8.6      4.475      8.635
REMARK  Name = CHEMBL2113196
REMARK  15 active torsions:
REMARK  status: ('A' for Active; 'I' for Inactive)
REMARK    1  A    between atoms: C_1  and  N_2
REMARK    2  A    between atoms: N_2  and  C_3
REMARK    3  A    between atoms: N_2  and  C_4
REMARK    4  A    between atoms: C_4  and  C_5
REMARK    5  A    between atoms: C_5  and  C_6
REMARK    6  A    between atoms: C_6  and  O_7
REMARK    7  A    between atoms: O_7  and  C_8
REMARK    8  A    between atoms: C_11  and  S_12
REMARK    9  A    between atoms: S_12  and  N_15
REMARK   10  A    between atoms: N_15  and  C_16
REMARK   11  A    between atoms: N_15  and  C_35
REMARK   12  A    between atoms: C_16  and  C_17
REMARK   13  A    between atoms: N_19  and  N_20
REMARK   14  A    between atoms: N_24  and  C_25
REMARK   15  A    between atoms: C_25  and  C_26
REMARK                            x       y       z     vdW  Elec       q    Type
REMARK                         _______ _______ _______ _____ _____    ______ ____
ROOT
ATOM      1  N   UNL     1     -10.031   4.768 131.337  0.00  0.00    +0.000 N 
ENDROOT
BRANCH   1   2
ATOM      2  C   UNL     1     -10.866   5.876 130.752  0.00  0.00    +0.000 A 
ATOM      3  C   UNL     1     -10.284   6.706 129.767  0.00  0.00    +0.000 A 
ATOM      4  C   UNL     1     -10.880   7.910 129.345  0.00  0.00    +0.000 A 
ATOM      5  C   UNL     1     -12.134   8.265 129.822  0.00  0.00    +0.000 A 
ATOM      6 CL   UNL     1     -12.933   9.655 129.194  0.00  0.00    +0.000 Cl
ATOM      7  C   UNL     1     -12.749   7.469 130.783  0.00  0.00    +0.000 A 
ATOM      8  C   UNL     1     -12.108   6.299 131.259  0.00  0.00    +0.000 A 
ENDBRANCH   1   2
BRANCH   1   9
ATOM      9  S   UNL     1      -8.896   5.206 132.631  0.00  0.00    +0.000 S 
ATOM     10  O   UNL     1      -8.777   4.010 133.448  0.00  0.00    +0.000 OA
ATOM     11  O   UNL     1      -9.392   6.420 133.259  0.00  0.00    +0.000 OA
BRANCH   9  15
ATOM     12  C   UNL     1      -4.739   7.016 131.675  0.00  0.00    +0.000 A 
ATOM     13  C   UNL     1      -4.857   6.176 132.782  0.00  0.00    +0.000 A 
ATOM     14  C   UNL     1      -6.096   5.523 133.058  0.00  0.00    +0.000 A 
ATOM     15  C   UNL     1      -7.162   5.594 132.137  0.00  0.00    +0.000 A 
ATOM     16  C   UNL     1      -6.856   6.154 130.917  0.00  0.00    +0.000 A 
ATOM     17  C   UNL     1      -5.797   7.058 130.803  0.00  0.00    +0.000 A 
BRANCH  12  18
ATOM     18  O   UNL     1      -3.539   7.574 131.343  0.00  0.00    +0.000 OA
BRANCH  18  19
ATOM     19  C   UNL     1      -2.358   6.970 131.892  0.00  0.00    +0.000 C 
BRANCH  19  20
ATOM     20  C   UNL     1      -1.849   5.966 130.872  0.00  0.00    +0.000 C 
BRANCH  20  21
ATOM     21  C   UNL     1      -2.023   6.475 129.436  0.00  0.00    +0.000 C 
BRANCH  21  23
ATOM     22  C   UNL     1      -3.221   4.389 129.421  0.00  0.00    +0.000 C 
ATOM     23  N   UNL     1      -2.681   5.465 128.594  0.00  0.00    +0.000 NA
ATOM     24  C   UNL     1      -3.741   6.087 127.806  0.00  0.00    +0.000 C 
ENDBRANCH  21  23
ENDBRANCH  20  21
ENDBRANCH  19  20
ENDBRANCH  18  19
ENDBRANCH  12  18
ENDBRANCH   9  15
ENDBRANCH   1   9
BRANCH   1  25
ATOM     25  C   UNL     1      -9.934   3.562 130.405  0.00  0.00    +0.000 C 
BRANCH  25  26
ATOM     26  C   UNL     1      -8.709   3.264 129.535  0.00  0.00    +0.000 C 
ATOM     27  O   UNL     1      -8.651   3.832 128.444  0.00  0.00    +0.000 OA
ATOM     28  N   UNL     1      -7.731   2.339 130.045  0.00  0.00    +0.000 N 
ATOM     29  H   UNL     1      -7.912   1.884 130.944  0.00  0.00    +0.000 HD
BRANCH  28  30
ATOM     30  N   UNL     1      -6.787   1.507 129.200  0.00  0.00    +0.000 NA
ATOM     31  C   UNL     1      -7.063   0.201 129.132  0.00  0.00    +0.000 C 
ATOM     32  C   UNL     1      -7.494  -0.489 130.360  0.00  0.00    +0.000 C 
ATOM     33  O   UNL     1      -8.634  -0.133 130.662  0.00  0.00    +0.000 OA
ATOM     34  N   UNL     1      -6.970  -1.777 130.348  0.00  0.00    +0.000 N 
ATOM     35  C   UNL     1      -7.396  -2.173 129.090  0.00  0.00    +0.000 A 
ATOM     36  C   UNL     1      -7.849  -3.497 129.010  0.00  0.00    +0.000 A 
ATOM     37  C   UNL     1      -8.564  -3.855 127.913  0.00  0.00    +0.000 A 
ATOM     38  C   UNL     1      -8.783  -2.847 126.962  0.00  0.00    +0.000 A 
ATOM     39  C   UNL     1      -8.256  -1.464 127.072  0.00  0.00    +0.000 A 
ATOM     40  C   UNL     1      -7.513  -1.069 128.192  0.00  0.00    +0.000 A 
BRANCH  34  41
ATOM     41  C   UNL     1      -5.561  -2.324 130.485  0.00  0.00    +0.000 C 
BRANCH  41  42
ATOM     42  C   UNL     1      -4.576  -1.301 130.982  0.00  0.00    +0.000 C 
ATOM     43  N   UNL     1      -3.753  -0.876 129.963  0.00  0.00    +0.000 N 
ATOM     44  O   UNL     1      -4.485  -0.967 132.110  0.00  0.00    +0.000 OA
ATOM     45  H   UNL     1      -3.617  -1.438 129.147  0.00  0.00    +0.000 HD
ATOM     46  H   UNL     1      -3.087  -0.138 130.107  0.00  0.00    +0.000 HD
ENDBRANCH  41  42
ENDBRANCH  34  41
ENDBRANCH  28  30
ENDBRANCH  25  26
ENDBRANCH   1  25
TORSDOF 13
ENDMDL
MODEL 4
REMARK VINA RESULT:      -8.3      3.735      6.369
REMARK  Name = CHEMBL2113196
REMARK  15 active torsions:
REMARK  status: ('A' for Active; 'I' for Inactive)
REMARK    1  A    between atoms: C_1  and  N_2
REMARK    2  A    between atoms: N_2  and  C_3
REMARK    3  A    between atoms: N_2  and  C_4
REMARK    4  A    between atoms: C_4  and  C_5
REMARK    5  A    between atoms: C_5  and  C_6
REMARK    6  A    between atoms: C_6  and  O_7
REMARK    7  A    between atoms: O_7  and  C_8
REMARK    8  A    between atoms: C_11  and  S_12
REMARK    9  A    between atoms: S_12  and  N_15
REMARK   10  A    between atoms: N_15  and  C_16
REMARK   11  A    between atoms: N_15  and  C_35
REMARK   12  A    between atoms: C_16  and  C_17
REMARK   13  A    between atoms: N_19  and  N_20
REMARK   14  A    between atoms: N_24  and  C_25
REMARK   15  A    between atoms: C_25  and  C_26
REMARK                            x       y       z     vdW  Elec       q    Type
REMARK                         _______ _______ _______ _____ _____    ______ ____
ROOT
ATOM      1  N   UNL     1      -7.772   0.567 124.341  0.00  0.00    +0.000 N 
ENDROOT
BRANCH   1   2
ATOM      2  C   UNL     1      -6.746  -0.512 124.113  0.00  0.00    +0.000 A 
ATOM      3  C   UNL     1      -6.853  -1.304 122.948  0.00  0.00    +0.000 A 
ATOM      4  C   UNL     1      -6.111  -2.487 122.767  0.00  0.00    +0.000 A 
ATOM      5  C   UNL     1      -5.157  -2.855 123.705  0.00  0.00    +0.000 A 
ATOM      6 CL   UNL     1      -4.141  -4.214 123.413  0.00  0.00    +0.000 Cl
ATOM      7  C   UNL     1      -5.009  -2.096 124.862  0.00  0.00    +0.000 A 
ATOM      8  C   UNL     1      -5.814  -0.950 125.072  0.00  0.00    +0.000 A 
ENDBRANCH   1   2
BRANCH   1   9
ATOM      9  S   UNL     1      -7.380   2.193 123.744  0.00  0.00    +0.000 S 
ATOM     10  O   UNL     1      -8.614   2.950 123.877  0.00  0.00    +0.000 OA
ATOM     11  O   UNL     1      -6.803   2.049 122.418  0.00  0.00    +0.000 OA
BRANCH   9  15
ATOM     12  C   UNL     1      -4.973   4.822 126.705  0.00  0.00    +0.000 A 
ATOM     13  C   UNL     1      -4.780   3.441 126.738  0.00  0.00    +0.000 A 
ATOM     14  C   UNL     1      -5.430   2.604 125.782  0.00  0.00    +0.000 A 
ATOM     15  C   UNL     1      -6.144   3.169 124.704  0.00  0.00    +0.000 A 
ATOM     16  C   UNL     1      -6.005   4.529 124.549  0.00  0.00    +0.000 A 
ATOM     17  C   UNL     1      -5.675   5.334 125.642  0.00  0.00    +0.000 A 
BRANCH  12  18
ATOM     18  O   UNL     1      -4.290   5.646 127.550  0.00  0.00    +0.000 OA
BRANCH  18  19
ATOM     19  C   UNL     1      -2.945   5.275 127.887  0.00  0.00    +0.000 C 
BRANCH  19  20
ATOM     20  C   UNL     1      -2.291   6.485 128.532  0.00  0.00    +0.000 C 
BRANCH  20  21
ATOM     21  C   UNL     1      -3.236   7.189 129.512  0.00  0.00    +0.000 C 
BRANCH  21  23
ATOM     22  C   UNL     1      -1.460   6.501 130.981  0.00  0.00    +0.000 C 
ATOM     23  N   UNL     1      -2.862   6.903 130.905  0.00  0.00    +0.000 NA
ATOM     24  C   UNL     1      -3.105   8.077 131.738  0.00  0.00    +0.000 C 
ENDBRANCH  21  23
ENDBRANCH  20  21
ENDBRANCH  19  20
ENDBRANCH  18  19
ENDBRANCH  12  18
ENDBRANCH   9  15
ENDBRANCH   1   9
BRANCH   1  25
ATOM     25  C   UNL     1      -8.745   0.214 125.464  0.00  0.00    +0.000 C 
BRANCH  25  26
ATOM     26  C   UNL     1      -8.369   0.249 126.947  0.00  0.00    +0.000 C 
ATOM     27  O   UNL     1      -8.054  -0.822 127.467  0.00  0.00    +0.000 OA
ATOM     28  N   UNL     1      -8.426   1.518 127.626  0.00  0.00    +0.000 N 
ATOM     29  H   UNL     1      -8.756   2.335 127.105  0.00  0.00    +0.000 HD
BRANCH  28  30
ATOM     30  N   UNL     1      -8.634   1.707 129.116  0.00  0.00    +0.000 NA
ATOM     31  C   UNL     1      -8.796   2.969 129.525  0.00  0.00    +0.000 C 
ATOM     32  C   UNL     1      -7.950   4.016 128.925  0.00  0.00    +0.000 C 
ATOM     33  O   UNL     1      -8.294   4.214 127.759  0.00  0.00    +0.000 OA
ATOM     34  N   UNL     1      -7.650   4.955 129.905  0.00  0.00    +0.000 N 
ATOM     35  C   UNL     1      -8.935   5.213 130.358  0.00  0.00    +0.000 A 
ATOM     36  C   UNL     1      -9.199   6.559 130.648  0.00  0.00    +0.000 A 
ATOM     37  C   UNL     1     -10.497   6.933 130.788  0.00  0.00    +0.000 A 
ATOM     38  C   UNL     1     -11.452   5.919 130.621  0.00  0.00    +0.000 A 
ATOM     39  C   UNL     1     -11.127   4.498 130.347  0.00  0.00    +0.000 A 
ATOM     40  C   UNL     1      -9.795   4.085 130.201  0.00  0.00    +0.000 A 
BRANCH  34  41
ATOM     41  C   UNL     1      -6.788   4.912 131.152  0.00  0.00    +0.000 C 
BRANCH  41  42
ATOM     42  C   UNL     1      -5.484   4.190 130.944  0.00  0.00    +0.000 C 
ATOM     43  N   UNL     1      -4.517   4.666 131.800  0.00  0.00    +0.000 N 
ATOM     44  O   UNL     1      -5.308   3.375 130.109  0.00  0.00    +0.000 OA
ATOM     45  H   UNL     1      -4.597   5.576 132.208  0.00  0.00    +0.000 HD
ATOM     46  H   UNL     1      -3.608   4.241 131.845  0.00  0.00    +0.000 HD
ENDBRANCH  41  42
ENDBRANCH  34  41
ENDBRANCH  28  30
ENDBRANCH  25  26
ENDBRANCH   1  25
TORSDOF 13
ENDMDL
MODEL 5
REMARK VINA RESULT:      -8.2      3.803      8.574
REMARK  Name = CHEMBL2113196
REMARK  15 active torsions:
REMARK  status: ('A' for Active; 'I' for Inactive)
REMARK    1  A    between atoms: C_1  and  N_2
REMARK    2  A    between atoms: N_2  and  C_3
REMARK    3  A    between atoms: N_2  and  C_4
REMARK    4  A    between atoms: C_4  and  C_5
REMARK    5  A    between atoms: C_5  and  C_6
REMARK    6  A    between atoms: C_6  and  O_7
REMARK    7  A    between atoms: O_7  and  C_8
REMARK    8  A    between atoms: C_11  and  S_12
REMARK    9  A    between atoms: S_12  and  N_15
REMARK   10  A    between atoms: N_15  and  C_16
REMARK   11  A    between atoms: N_15  and  C_35
REMARK   12  A    between atoms: C_16  and  C_17
REMARK   13  A    between atoms: N_19  and  N_20
REMARK   14  A    between atoms: N_24  and  C_25
REMARK   15  A    between atoms: C_25  and  C_26
REMARK                            x       y       z     vdW  Elec       q    Type
REMARK                         _______ _______ _______ _____ _____    ______ ____
ROOT
ATOM      1  N   UNL     1     -10.023   4.601 131.426  0.00  0.00    +0.000 N 
ENDROOT
BRANCH   1   2
ATOM      2  C   UNL     1     -10.789   5.720 130.770  0.00  0.00    +0.000 A 
ATOM      3  C   UNL     1     -10.167   6.432 129.720  0.00  0.00    +0.000 A 
ATOM      4  C   UNL     1     -10.684   7.642 129.217  0.00  0.00    +0.000 A 
ATOM      5  C   UNL     1     -11.903   8.118 129.680  0.00  0.00    +0.000 A 
ATOM      6 CL   UNL     1     -12.613   9.511 128.959  0.00  0.00    +0.000 Cl
ATOM      7  C   UNL     1     -12.556   7.440 130.704  0.00  0.00    +0.000 A 
ATOM      8  C   UNL     1     -11.990   6.265 131.258  0.00  0.00    +0.000 A 
ENDBRANCH   1   2
BRANCH   1   9
ATOM      9  S   UNL     1      -8.773   5.057 132.602  0.00  0.00    +0.000 S 
ATOM     10  O   UNL     1      -8.474   3.833 133.328  0.00  0.00    +0.000 OA
ATOM     11  O   UNL     1      -9.270   6.197 133.355  0.00  0.00    +0.000 OA
BRANCH   9  15
ATOM     12  C   UNL     1      -5.034   6.198 130.115  0.00  0.00    +0.000 A 
ATOM     13  C   UNL     1      -5.818   7.225 130.641  0.00  0.00    +0.000 A 
ATOM     14  C   UNL     1      -6.923   6.919 131.491  0.00  0.00    +0.000 A 
ATOM     15  C   UNL     1      -7.141   5.597 131.932  0.00  0.00    +0.000 A 
ATOM     16  C   UNL     1      -6.135   4.702 131.648  0.00  0.00    +0.000 A 
ATOM     17  C   UNL     1      -5.278   4.926 130.567  0.00  0.00    +0.000 A 
BRANCH  12  18
ATOM     18  O   UNL     1      -3.920   6.474 129.377  0.00  0.00    +0.000 OA
BRANCH  18  19
ATOM     19  C   UNL     1      -2.874   5.490 129.371  0.00  0.00    +0.000 C 
BRANCH  19  20
ATOM     20  C   UNL     1      -2.460   5.280 127.924  0.00  0.00    +0.000 C 
BRANCH  20  21
ATOM     21  C   UNL     1      -3.541   4.546 127.123  0.00  0.00    +0.000 C 
BRANCH  21  23
ATOM     22  C   UNL     1      -1.747   3.019 126.636  0.00  0.00    +0.000 C 
ATOM     23  N   UNL     1      -3.176   3.137 126.912  0.00  0.00    +0.000 NA
ATOM     24  C   UNL     1      -3.540   2.347 128.084  0.00  0.00    +0.000 C 
ENDBRANCH  21  23
ENDBRANCH  20  21
ENDBRANCH  19  20
ENDBRANCH  18  19
ENDBRANCH  12  18
ENDBRANCH   9  15
ENDBRANCH   1   9
BRANCH   1  25
ATOM     25  C   UNL     1     -10.097   3.302 130.626  0.00  0.00    +0.000 C 
BRANCH  25  26
ATOM     26  C   UNL     1      -8.872   2.619 130.011  0.00  0.00    +0.000 C 
ATOM     27  O   UNL     1      -8.308   1.767 130.697  0.00  0.00    +0.000 OA
ATOM     28  N   UNL     1      -8.464   3.031 128.693  0.00  0.00    +0.000 N 
ATOM     29  H   UNL     1      -8.978   3.791 128.239  0.00  0.00    +0.000 HD
BRANCH  28  30
ATOM     30  N   UNL     1      -7.058   2.922 128.137  0.00  0.00    +0.000 NA
ATOM     31  C   UNL     1      -6.967   2.560 126.853  0.00  0.00    +0.000 C 
ATOM     32  C   UNL     1      -7.866   1.504 126.356  0.00  0.00    +0.000 C 
ATOM     33  O   UNL     1      -9.018   1.935 126.286  0.00  0.00    +0.000 OA
ATOM     34  N   UNL     1      -7.175   0.742 125.421  0.00  0.00    +0.000 N 
ATOM     35  C   UNL     1      -6.714   1.764 124.606  0.00  0.00    +0.000 A 
ATOM     36  C   UNL     1      -6.752   1.485 123.232  0.00  0.00    +0.000 A 
ATOM     37  C   UNL     1      -6.621   2.528 122.372  0.00  0.00    +0.000 A 
ATOM     38  C   UNL     1      -6.462   3.794 122.957  0.00  0.00    +0.000 A 
ATOM     39  C   UNL     1      -6.394   4.039 124.418  0.00  0.00    +0.000 A 
ATOM     40  C   UNL     1      -6.524   2.980 125.327  0.00  0.00    +0.000 A 
BRANCH  34  41
ATOM     41  C   UNL     1      -6.020  -0.235 125.532  0.00  0.00    +0.000 C 
BRANCH  41  42
ATOM     42  C   UNL     1      -6.116  -1.130 126.738  0.00  0.00    +0.000 C 
ATOM     43  N   UNL     1      -5.144  -0.817 127.660  0.00  0.00    +0.000 N 
ATOM     44  O   UNL     1      -6.881  -2.023 126.836  0.00  0.00    +0.000 OA
ATOM     45  H   UNL     1      -4.314  -0.331 127.385  0.00  0.00    +0.000 HD
ATOM     46  H   UNL     1      -5.114  -1.269 128.557  0.00  0.00    +0.000 HD
ENDBRANCH  41  42
ENDBRANCH  34  41
ENDBRANCH  28  30
ENDBRANCH  25  26
ENDBRANCH   1  25
TORSDOF 13
ENDMDL
MODEL 6
REMARK VINA RESULT:      -8.1      4.551      8.779
REMARK  Name = CHEMBL2113196
REMARK  15 active torsions:
REMARK  status: ('A' for Active; 'I' for Inactive)
REMARK    1  A    between atoms: C_1  and  N_2
REMARK    2  A    between atoms: N_2  and  C_3
REMARK    3  A    between atoms: N_2  and  C_4
REMARK    4  A    between atoms: C_4  and  C_5
REMARK    5  A    between atoms: C_5  and  C_6
REMARK    6  A    between atoms: C_6  and  O_7
REMARK    7  A    between atoms: O_7  and  C_8
REMARK    8  A    between atoms: C_11  and  S_12
REMARK    9  A    between atoms: S_12  and  N_15
REMARK   10  A    between atoms: N_15  and  C_16
REMARK   11  A    between atoms: N_15  and  C_35
REMARK   12  A    between atoms: C_16  and  C_17
REMARK   13  A    between atoms: N_19  and  N_20
REMARK   14  A    between atoms: N_24  and  C_25
REMARK   15  A    between atoms: C_25  and  C_26
REMARK                            x       y       z     vdW  Elec       q    Type
REMARK                         _______ _______ _______ _____ _____    ______ ____
ROOT
ATOM      1  N   UNL     1     -10.083   4.827 131.340  0.00  0.00    +0.000 N 
ENDROOT
BRANCH   1   2
ATOM      2  C   UNL     1     -10.910   5.929 130.733  0.00  0.00    +0.000 A 
ATOM      3  C   UNL     1     -10.331   6.718 129.714  0.00  0.00    +0.000 A 
ATOM      4  C   UNL     1     -10.915   7.918 129.263  0.00  0.00    +0.000 A 
ATOM      5  C   UNL     1     -12.156   8.308 129.747  0.00  0.00    +0.000 A 
ATOM      6 CL   UNL     1     -12.943   9.690 129.087  0.00  0.00    +0.000 Cl
ATOM      7  C   UNL     1     -12.768   7.553 130.742  0.00  0.00    +0.000 A 
ATOM      8  C   UNL     1     -12.138   6.388 131.245  0.00  0.00    +0.000 A 
ENDBRANCH   1   2
BRANCH   1   9
ATOM      9  S   UNL     1      -8.980   5.275 132.657  0.00  0.00    +0.000 S 
ATOM     10  O   UNL     1      -8.876   4.083 133.484  0.00  0.00    +0.000 OA
ATOM     11  O   UNL     1      -9.491   6.491 133.267  0.00  0.00    +0.000 OA
BRANCH   9  15
ATOM     12  C   UNL     1      -4.767   5.735 130.781  0.00  0.00    +0.000 A 
ATOM     13  C   UNL     1      -5.642   6.820 130.719  0.00  0.00    +0.000 A 
ATOM     14  C   UNL     1      -6.913   6.753 131.366  0.00  0.00    +0.000 A 
ATOM     15  C   UNL     1      -7.235   5.662 132.200  0.00  0.00    +0.000 A 
ATOM     16  C   UNL     1      -6.197   4.804 132.481  0.00  0.00    +0.000 A 
ATOM     17  C   UNL     1      -5.116   4.692 131.602  0.00  0.00    +0.000 A 
BRANCH  12  18
ATOM     18  O   UNL     1      -3.514   5.813 130.250  0.00  0.00    +0.000 OA
BRANCH  18  19
ATOM     19  C   UNL     1      -2.429   5.310 131.044  0.00  0.00    +0.000 C 
BRANCH  19  20
ATOM     20  C   UNL     1      -1.521   6.486 131.364  0.00  0.00    +0.000 C 
BRANCH  20  21
ATOM     21  C   UNL     1      -1.832   7.089 132.738  0.00  0.00    +0.000 C 
BRANCH  21  23
ATOM     22  C   UNL     1      -2.180   9.460 132.939  0.00  0.00    +0.000 C 
ATOM     23  N   UNL     1      -1.180   8.396 132.901  0.00  0.00    +0.000 NA
ATOM     24  C   UNL     1      -0.376   8.404 134.119  0.00  0.00    +0.000 C 
ENDBRANCH  21  23
ENDBRANCH  20  21
ENDBRANCH  19  20
ENDBRANCH  18  19
ENDBRANCH  12  18
ENDBRANCH   9  15
ENDBRANCH   1   9
BRANCH   1  25
ATOM     25  C   UNL     1      -9.961   3.618 130.415  0.00  0.00    +0.000 C 
BRANCH  25  26
ATOM     26  C   UNL     1      -8.708   3.310 129.591  0.00  0.00    +0.000 C 
ATOM     27  O   UNL     1      -8.636   3.825 128.475  0.00  0.00    +0.000 OA
ATOM     28  N   UNL     1      -7.721   2.436 130.169  0.00  0.00    +0.000 N 
ATOM     29  H   UNL     1      -7.913   2.021 131.085  0.00  0.00    +0.000 HD
BRANCH  28  30
ATOM     30  N   UNL     1      -6.735   1.589 129.389  0.00  0.00    +0.000 NA
ATOM     31  C   UNL     1      -7.015   0.283 129.321  0.00  0.00    +0.000 C 
ATOM     32  C   UNL     1      -7.519  -0.389 130.531  0.00  0.00    +0.000 C 
ATOM     33  O   UNL     1      -8.672  -0.023 130.763  0.00  0.00    +0.000 OA
ATOM     34  N   UNL     1      -7.004  -1.680 130.565  0.00  0.00    +0.000 N 
ATOM     35  C   UNL     1      -7.360  -2.089 129.289  0.00  0.00    +0.000 A 
ATOM     36  C   UNL     1      -7.816  -3.412 129.199  0.00  0.00    +0.000 A 
ATOM     37  C   UNL     1      -8.470  -3.779 128.067  0.00  0.00    +0.000 A 
ATOM     38  C   UNL     1      -8.628  -2.781 127.094  0.00  0.00    +0.000 A 
ATOM     39  C   UNL     1      -8.100  -1.401 127.217  0.00  0.00    +0.000 A 
ATOM     40  C   UNL     1      -7.419  -0.996 128.373  0.00  0.00    +0.000 A 
BRANCH  34  41
ATOM     41  C   UNL     1      -5.609  -2.233 130.787  0.00  0.00    +0.000 C 
BRANCH  41  42
ATOM     42  C   UNL     1      -4.574  -1.160 130.996  0.00  0.00    +0.000 C 
ATOM     43  N   UNL     1      -3.762  -1.039 129.892  0.00  0.00    +0.000 N 
ATOM     44  O   UNL     1      -4.443  -0.558 132.003  0.00  0.00    +0.000 OA
ATOM     45  H   UNL     1      -3.667  -1.793 129.241  0.00  0.00    +0.000 HD
ATOM     46  H   UNL     1      -3.066  -0.317 129.835  0.00  0.00    +0.000 HD
ENDBRANCH  41  42
ENDBRANCH  34  41
ENDBRANCH  28  30
ENDBRANCH  25  26
ENDBRANCH   1  25
TORSDOF 13
ENDMDL
MODEL 7
REMARK VINA RESULT:      -8.1      1.941      2.770
REMARK  Name = CHEMBL2113196
REMARK  15 active torsions:
REMARK  status: ('A' for Active; 'I' for Inactive)
REMARK    1  A    between atoms: C_1  and  N_2
REMARK    2  A    between atoms: N_2  and  C_3
REMARK    3  A    between atoms: N_2  and  C_4
REMARK    4  A    between atoms: C_4  and  C_5
REMARK    5  A    between atoms: C_5  and  C_6
REMARK    6  A    between atoms: C_6  and  O_7
REMARK    7  A    between atoms: O_7  and  C_8
REMARK    8  A    between atoms: C_11  and  S_12
REMARK    9  A    between atoms: S_12  and  N_15
REMARK   10  A    between atoms: N_15  and  C_16
REMARK   11  A    between atoms: N_15  and  C_35
REMARK   12  A    between atoms: C_16  and  C_17
REMARK   13  A    between atoms: N_19  and  N_20
REMARK   14  A    between atoms: N_24  and  C_25
REMARK   15  A    between atoms: C_25  and  C_26
REMARK                            x       y       z     vdW  Elec       q    Type
REMARK                         _______ _______ _______ _____ _____    ______ ____
ROOT
ATOM      1  N   UNL     1      -8.153   0.271 125.605  0.00  0.00    +0.000 N 
ENDROOT
BRANCH   1   2
ATOM      2  C   UNL     1      -8.208   1.023 124.302  0.00  0.00    +0.000 A 
ATOM      3  C   UNL     1      -7.032   1.657 123.843  0.00  0.00    +0.000 A 
ATOM      4  C   UNL     1      -7.036   2.585 122.783  0.00  0.00    +0.000 A 
ATOM      5  C   UNL     1      -8.209   2.825 122.080  0.00  0.00    +0.000 A 
ATOM      6 CL   UNL     1      -8.186   3.839 120.689  0.00  0.00    +0.000 Cl
ATOM      7  C   UNL     1      -9.388   2.211 122.489  0.00  0.00    +0.000 A 
ATOM      8  C   UNL     1      -9.389   1.337 123.604  0.00  0.00    +0.000 A 
ENDBRANCH   1   2
BRANCH   1   9
ATOM      9  S   UNL     1      -8.342  -1.493 125.529  0.00  0.00    +0.000 S 
ATOM     10  O   UNL     1      -7.601  -1.900 124.346  0.00  0.00    +0.000 OA
ATOM     11  O   UNL     1      -9.764  -1.788 125.584  0.00  0.00    +0.000 OA
BRANCH   9  15
ATOM     12  C   UNL     1      -6.602  -3.230 129.457  0.00  0.00    +0.000 A 
ATOM     13  C   UNL     1      -7.854  -3.674 129.035  0.00  0.00    +0.000 A 
ATOM     14  C   UNL     1      -8.386  -3.236 127.784  0.00  0.00    +0.000 A 
ATOM     15  C   UNL     1      -7.592  -2.481 126.895  0.00  0.00    +0.000 A 
ATOM     16  C   UNL     1      -6.263  -2.373 127.233  0.00  0.00    +0.000 A 
ATOM     17  C   UNL     1      -5.861  -2.496 128.565  0.00  0.00    +0.000 A 
BRANCH  12  18
ATOM     18  O   UNL     1      -6.038  -3.708 130.604  0.00  0.00    +0.000 OA
BRANCH  18  19
ATOM     19  C   UNL     1      -6.832  -3.659 131.798  0.00  0.00    +0.000 C 
BRANCH  19  20
ATOM     20  C   UNL     1      -6.241  -2.580 132.690  0.00  0.00    +0.000 C 
BRANCH  20  21
ATOM     21  C   UNL     1      -7.329  -1.785 133.421  0.00  0.00    +0.000 C 
BRANCH  21  23
ATOM     22  C   UNL     1      -6.010   0.045 132.588  0.00  0.00    +0.000 C 
ATOM     23  N   UNL     1      -7.351  -0.385 132.974  0.00  0.00    +0.000 NA
ATOM     24  C   UNL     1      -8.280  -0.233 131.858  0.00  0.00    +0.000 C 
ENDBRANCH  21  23
ENDBRANCH  20  21
ENDBRANCH  19  20
ENDBRANCH  18  19
ENDBRANCH  12  18
ENDBRANCH   9  15
ENDBRANCH   1   9
BRANCH   1  25
ATOM     25  C   UNL     1      -8.439   1.171 126.805  0.00  0.00    +0.000 C 
BRANCH  25  26
ATOM     26  C   UNL     1      -7.460   2.232 127.316  0.00  0.00    +0.000 C 
ATOM     27  O   UNL     1      -6.306   1.863 127.536  0.00  0.00    +0.000 OA
ATOM     28  N   UNL     1      -7.959   3.568 127.513  0.00  0.00    +0.000 N 
ATOM     29  H   UNL     1      -8.954   3.746 127.348  0.00  0.00    +0.000 HD
BRANCH  28  30
ATOM     30  N   UNL     1      -7.380   4.587 128.474  0.00  0.00    +0.000 NA
ATOM     31  C   UNL     1      -7.890   4.579 129.710  0.00  0.00    +0.000 C 
ATOM     32  C   UNL     1      -9.344   4.403 129.867  0.00  0.00    +0.000 C 
ATOM     33  O   UNL     1      -9.657   3.243 129.591  0.00  0.00    +0.000 OA
ATOM     34  N   UNL     1      -9.768   5.175 130.943  0.00  0.00    +0.000 N 
ATOM     35  C   UNL     1      -8.862   4.734 131.896  0.00  0.00    +0.000 A 
ATOM     36  C   UNL     1      -9.398   4.556 133.179  0.00  0.00    +0.000 A 
ATOM     37  C   UNL     1      -8.669   3.838 134.073  0.00  0.00    +0.000 A 
ATOM     38  C   UNL     1      -7.442   3.339 133.611  0.00  0.00    +0.000 A 
ATOM     39  C   UNL     1      -6.899   3.580 132.252  0.00  0.00    +0.000 A 
ATOM     40  C   UNL     1      -7.628   4.319 131.311  0.00  0.00    +0.000 A 
BRANCH  34  41
ATOM     41  C   UNL     1      -9.882   6.672 131.161  0.00  0.00    +0.000 C 
BRANCH  41  42
ATOM     42  C   UNL     1     -10.431   7.403 129.967  0.00  0.00    +0.000 C 
ATOM     43  N   UNL     1     -11.807   7.366 129.958  0.00  0.00    +0.000 N 
ATOM     44  O   UNL     1      -9.760   7.881 129.121  0.00  0.00    +0.000 OA
ATOM     45  H   UNL     1     -12.303   6.658 130.461  0.00  0.00    +0.000 HD
ATOM     46  H   UNL     1     -12.336   7.871 129.269  0.00  0.00    +0.000 HD
ENDBRANCH  41  42
ENDBRANCH  34  41
ENDBRANCH  28  30
ENDBRANCH  25  26
ENDBRANCH   1  25
TORSDOF 13
ENDMDL
MODEL 8
REMARK VINA RESULT:      -8.0      4.397      8.348
REMARK  Name = CHEMBL2113196
REMARK  15 active torsions:
REMARK  status: ('A' for Active; 'I' for Inactive)
REMARK    1  A    between atoms: C_1  and  N_2
REMARK    2  A    between atoms: N_2  and  C_3
REMARK    3  A    between atoms: N_2  and  C_4
REMARK    4  A    between atoms: C_4  and  C_5
REMARK    5  A    between atoms: C_5  and  C_6
REMARK    6  A    between atoms: C_6  and  O_7
REMARK    7  A    between atoms: O_7  and  C_8
REMARK    8  A    between atoms: C_11  and  S_12
REMARK    9  A    between atoms: S_12  and  N_15
REMARK   10  A    between atoms: N_15  and  C_16
REMARK   11  A    between atoms: N_15  and  C_35
REMARK   12  A    between atoms: C_16  and  C_17
REMARK   13  A    between atoms: N_19  and  N_20
REMARK   14  A    between atoms: N_24  and  C_25
REMARK   15  A    between atoms: C_25  and  C_26
REMARK                            x       y       z     vdW  Elec       q    Type
REMARK                         _______ _______ _______ _____ _____    ______ ____
ROOT
ATOM      1  N   UNL     1      -9.721   5.324 131.516  0.00  0.00    +0.000 N 
ENDROOT
BRANCH   1   2
ATOM      2  C   UNL     1     -10.483   6.480 130.924  0.00  0.00    +0.000 A 
ATOM      3  C   UNL     1     -11.782   6.748 131.411  0.00  0.00    +0.000 A 
ATOM      4  C   UNL     1     -12.666   7.630 130.762  0.00  0.00    +0.000 A 
ATOM      5  C   UNL     1     -12.234   8.355 129.660  0.00  0.00    +0.000 A 
ATOM      6 CL   UNL     1     -13.259   9.548 128.957  0.00  0.00    +0.000 Cl
ATOM      7  C   UNL     1     -10.957   8.133 129.154  0.00  0.00    +0.000 A 
ATOM      8  C   UNL     1     -10.101   7.187 129.769  0.00  0.00    +0.000 A 
ENDBRANCH   1   2
BRANCH   1   9
ATOM      9  S   UNL     1      -9.910   3.743 130.730  0.00  0.00    +0.000 S 
ATOM     10  O   UNL     1     -11.147   3.845 129.973  0.00  0.00    +0.000 OA
ATOM     11  O   UNL     1      -9.820   2.723 131.763  0.00  0.00    +0.000 OA
BRANCH   9  15
ATOM     12  C   UNL     1      -7.362   2.816 126.973  0.00  0.00    +0.000 A 
ATOM     13  C   UNL     1      -7.036   3.939 127.733  0.00  0.00    +0.000 A 
ATOM     14  C   UNL     1      -7.735   4.209 128.949  0.00  0.00    +0.000 A 
ATOM     15  C   UNL     1      -8.646   3.269 129.473  0.00  0.00    +0.000 A 
ATOM     16  C   UNL     1      -8.661   2.043 128.847  0.00  0.00    +0.000 A 
ATOM     17  C   UNL     1      -8.254   1.926 127.516  0.00  0.00    +0.000 A 
BRANCH  12  18
ATOM     18  O   UNL     1      -6.645   2.492 125.858  0.00  0.00    +0.000 OA
BRANCH  18  19
ATOM     19  C   UNL     1      -6.057   3.572 125.117  0.00  0.00    +0.000 C 
BRANCH  19  20
ATOM     20  C   UNL     1      -6.613   3.505 123.704  0.00  0.00    +0.000 C 
BRANCH  20  21
ATOM     21  C   UNL     1      -7.474   2.254 123.489  0.00  0.00    +0.000 C 
BRANCH  21  23
ATOM     22  C   UNL     1      -8.661   3.247 121.649  0.00  0.00    +0.000 C 
ATOM     23  N   UNL     1      -8.796   2.609 122.955  0.00  0.00    +0.000 NA
ATOM     24  C   UNL     1      -9.632   1.416 122.860  0.00  0.00    +0.000 C 
ENDBRANCH  21  23
ENDBRANCH  20  21
ENDBRANCH  19  20
ENDBRANCH  18  19
ENDBRANCH  12  18
ENDBRANCH   9  15
ENDBRANCH   1   9
BRANCH   1  25
ATOM     25  C   UNL     1      -9.309   5.583 132.964  0.00  0.00    +0.000 C 
BRANCH  25  26
ATOM     26  C   UNL     1      -8.099   4.920 133.628  0.00  0.00    +0.000 C 
ATOM     27  O   UNL     1      -8.010   5.026 134.852  0.00  0.00    +0.000 OA
ATOM     28  N   UNL     1      -7.154   4.242 132.781  0.00  0.00    +0.000 N 
ATOM     29  H   UNL     1      -7.302   4.265 131.768  0.00  0.00    +0.000 HD
BRANCH  28  30
ATOM     30  N   UNL     1      -5.692   4.010 133.107  0.00  0.00    +0.000 NA
ATOM     31  C   UNL     1      -4.867   5.027 132.837  0.00  0.00    +0.000 C 
ATOM     32  C   UNL     1      -5.064   5.777 131.584  0.00  0.00    +0.000 C 
ATOM     33  O   UNL     1      -6.088   6.459 131.662  0.00  0.00    +0.000 OA
ATOM     34  N   UNL     1      -3.818   6.148 131.092  0.00  0.00    +0.000 N 
ATOM     35  C   UNL     1      -3.302   6.741 132.235  0.00  0.00    +0.000 A 
ATOM     36  C   UNL     1      -2.560   7.909 132.009  0.00  0.00    +0.000 A 
ATOM     37  C   UNL     1      -2.297   8.705 133.077  0.00  0.00    +0.000 A 
ATOM     38  C   UNL     1      -2.806   8.273 134.310  0.00  0.00    +0.000 A 
ATOM     39  C   UNL     1      -3.559   7.011 134.509  0.00  0.00    +0.000 A 
ATOM     40  C   UNL     1      -3.843   6.169 133.425  0.00  0.00    +0.000 A 
BRANCH  34  41
ATOM     41  C   UNL     1      -2.666   5.365 130.492  0.00  0.00    +0.000 C 
BRANCH  41  42
ATOM     42  C   UNL     1      -2.634   5.420 128.989  0.00  0.00    +0.000 C 
ATOM     43  N   UNL     1      -2.438   6.710 128.549  0.00  0.00    +0.000 N 
ATOM     44  O   UNL     1      -2.821   4.487 128.291  0.00  0.00    +0.000 OA
ATOM     45  H   UNL     1      -2.656   7.490 129.136  0.00  0.00    +0.000 HD
ATOM     46  H   UNL     1      -2.315   6.913 127.573  0.00  0.00    +0.000 HD
ENDBRANCH  41  42
ENDBRANCH  34  41
ENDBRANCH  28  30
ENDBRANCH  25  26
ENDBRANCH   1  25
TORSDOF 13
ENDMDL
MODEL 9
REMARK VINA RESULT:      -8.0      4.516      9.050
REMARK  Name = CHEMBL2113196
REMARK  15 active torsions:
REMARK  status: ('A' for Active; 'I' for Inactive)
REMARK    1  A    between atoms: C_1  and  N_2
REMARK    2  A    between atoms: N_2  and  C_3
REMARK    3  A    between atoms: N_2  and  C_4
REMARK    4  A    between atoms: C_4  and  C_5
REMARK    5  A    between atoms: C_5  and  C_6
REMARK    6  A    between atoms: C_6  and  O_7
REMARK    7  A    between atoms: O_7  and  C_8
REMARK    8  A    between atoms: C_11  and  S_12
REMARK    9  A    between atoms: S_12  and  N_15
REMARK   10  A    between atoms: N_15  and  C_16
REMARK   11  A    between atoms: N_15  and  C_35
REMARK   12  A    between atoms: C_16  and  C_17
REMARK   13  A    between atoms: N_19  and  N_20
REMARK   14  A    between atoms: N_24  and  C_25
REMARK   15  A    between atoms: C_25  and  C_26
REMARK                            x       y       z     vdW  Elec       q    Type
REMARK                         _______ _______ _______ _____ _____    ______ ____
ROOT
ATOM      1  N   UNL     1      -9.174   5.274 130.574  0.00  0.00    +0.000 N 
ENDROOT
BRANCH   1   2
ATOM      2  C   UNL     1     -10.282   6.171 130.090  0.00  0.00    +0.000 A 
ATOM      3  C   UNL     1      -9.958   7.213 129.192  0.00  0.00    +0.000 A 
ATOM      4  C   UNL     1     -10.858   8.250 128.880  0.00  0.00    +0.000 A 
ATOM      5  C   UNL     1     -12.153   8.215 129.379  0.00  0.00    +0.000 A 
ATOM      6 CL   UNL     1     -13.302   9.395 128.877  0.00  0.00    +0.000 Cl
ATOM      7  C   UNL     1     -12.519   7.199 130.256  0.00  0.00    +0.000 A 
ATOM      8  C   UNL     1     -11.583   6.201 130.624  0.00  0.00    +0.000 A 
ENDBRANCH   1   2
BRANCH   1   9
ATOM      9  S   UNL     1      -9.081   4.977 132.322  0.00  0.00    +0.000 S 
ATOM     10  O   UNL     1      -9.773   3.714 132.527  0.00  0.00    +0.000 OA
ATOM     11  O   UNL     1      -9.592   6.157 132.999  0.00  0.00    +0.000 OA
BRANCH   9  15
ATOM     12  C   UNL     1      -4.585   4.765 133.426  0.00  0.00    +0.000 A 
ATOM     13  C   UNL     1      -5.414   5.595 134.180  0.00  0.00    +0.000 A 
ATOM     14  C   UNL     1      -6.820   5.619 133.935  0.00  0.00    +0.000 A 
ATOM     15  C   UNL     1      -7.405   4.697 133.043  0.00  0.00    +0.000 A 
ATOM     16  C   UNL     1      -6.576   3.693 132.597  0.00  0.00    +0.000 A 
ATOM     17  C   UNL     1      -5.192   3.883 132.567  0.00  0.00    +0.000 A 
BRANCH  12  18
ATOM     18  O   UNL     1      -3.254   4.660 133.706  0.00  0.00    +0.000 OA
BRANCH  18  19
ATOM     19  C   UNL     1      -2.355   4.537 132.594  0.00  0.00    +0.000 C 
BRANCH  19  20
ATOM     20  C   UNL     1      -2.251   5.905 131.943  0.00  0.00    +0.000 C 
BRANCH  20  21
ATOM     21  C   UNL     1      -2.334   5.818 130.415  0.00  0.00    +0.000 C 
BRANCH  21  23
ATOM     22  C   UNL     1      -3.618   7.824 130.742  0.00  0.00    +0.000 C 
ATOM     23  N   UNL     1      -3.430   6.649 129.897  0.00  0.00    +0.000 NA
ATOM     24  C   UNL     1      -3.147   7.046 128.521  0.00  0.00    +0.000 C 
ENDBRANCH  21  23
ENDBRANCH  20  21
ENDBRANCH  19  20
ENDBRANCH  18  19
ENDBRANCH  12  18
ENDBRANCH   9  15
ENDBRANCH   1   9
BRANCH   1  25
ATOM     25  C   UNL     1      -8.032   5.168 129.566  0.00  0.00    +0.000 C 
BRANCH  25  26
ATOM     26  C   UNL     1      -7.972   4.102 128.469  0.00  0.00    +0.000 C 
ATOM     27  O   UNL     1      -8.715   3.128 128.599  0.00  0.00    +0.000 OA
ATOM     28  N   UNL     1      -7.048   4.304 127.384  0.00  0.00    +0.000 N 
ATOM     29  H   UNL     1      -6.439   5.127 127.409  0.00  0.00    +0.000 HD
BRANCH  28  30
ATOM     30  N   UNL     1      -6.438   3.206 126.534  0.00  0.00    +0.000 NA
ATOM     31  C   UNL     1      -6.777   3.215 125.241  0.00  0.00    +0.000 C 
ATOM     32  C   UNL     1      -8.176   3.508 124.884  0.00  0.00    +0.000 C 
ATOM     33  O   UNL     1      -8.419   4.698 125.088  0.00  0.00    +0.000 OA
ATOM     34  N   UNL     1      -8.519   2.737 123.779  0.00  0.00    +0.000 N 
ATOM     35  C   UNL     1      -7.460   3.067 122.947  0.00  0.00    +0.000 A 
ATOM     36  C   UNL     1      -7.801   3.245 121.600  0.00  0.00    +0.000 A 
ATOM     37  C   UNL     1      -6.900   3.867 120.796  0.00  0.00    +0.000 A 
ATOM     38  C   UNL     1      -5.706   4.275 121.409  0.00  0.00    +0.000 A 
ATOM     39  C   UNL     1      -5.372   4.037 122.834  0.00  0.00    +0.000 A 
ATOM     40  C   UNL     1      -6.282   3.395 123.685  0.00  0.00    +0.000 A 
BRANCH  34  41
ATOM     41  C   UNL     1      -8.735   1.249 123.581  0.00  0.00    +0.000 C 
BRANCH  41  42
ATOM     42  C   UNL     1     -10.177   0.887 123.345  0.00  0.00    +0.000 C 
ATOM     43  N   UNL     1     -10.307   0.096 122.226  0.00  0.00    +0.000 N 
ATOM     44  O   UNL     1     -11.073   1.291 123.998  0.00  0.00    +0.000 OA
ATOM     45  H   UNL     1      -9.602   0.093 121.516  0.00  0.00    +0.000 HD
ATOM     46  H   UNL     1     -11.195  -0.297 121.969  0.00  0.00    +0.000 HD
ENDBRANCH  41  42
ENDBRANCH  34  41
ENDBRANCH  28  30
ENDBRANCH  25  26
ENDBRANCH   1  25
TORSDOF 13
ENDMDL
