MODEL 1
REMARK VINA RESULT:      -8.7      0.000      0.000
REMARK  Name = CHEMBL2037496
REMARK  12 active torsions:
REMARK  status: ('A' for Active; 'I' for Inactive)
REMARK    1  A    between atoms: C_1  and  C_2
REMARK    2  A    between atoms: C_5  and  C_6
REMARK    3  A    between atoms: C_6  and  C_7
REMARK    4  A    between atoms: C_6  and  N_12
REMARK    5  A    between atoms: N_9  and  C_10
REMARK    6  A    between atoms: N_9  and  C_11
REMARK    7  A    between atoms: CA_15  and  C_16
REMARK    8  A    between atoms: CA_28  and  C_29
REMARK    9  A    between atoms: C_29  and  C_30
REMARK   10  A    between atoms: C_30  and  C_31
REMARK   11  A    between atoms: C_30  and  C_32
REMARK   12  A    between atoms: C_30  and  C_33
REMARK                            x       y       z     vdW  Elec       q    Type
REMARK                         _______ _______ _______ _____ _____    ______ ____
ROOT
ATOM      1  N   UNL     1      -6.146   2.921 130.032  0.00  0.00    +0.000 N 
ATOM      2  C   UNL     1      -6.528   1.632 129.615  0.00  0.00    +0.000 C 
ATOM      3  O   UNL     1      -7.682   1.247 129.768  0.00  0.00    +0.000 OA
ATOM      4  CA  UNL     1      -5.301   0.640 129.361  0.00  0.00    +0.000 C 
ATOM      5  N   UNL     1      -4.411   1.157 128.416  0.00  0.00    +0.000 N 
ATOM      6  C   UNL     1      -4.119   2.456 128.464  0.00  0.00    +0.000 C 
ATOM      7  O   UNL     1      -3.552   2.768 127.449  0.00  0.00    +0.000 OA
ATOM      8  CA  UNL     1      -4.691   3.287 129.730  0.00  0.00    +0.000 C 
ATOM      9  H   UNL     1      -4.340   0.840 127.453  0.00  0.00    +0.000 HD
ENDROOT
BRANCH   4  10
ATOM     10  C   UNL     1      -5.686  -0.703 128.839  0.00  0.00    +0.000 C 
ATOM     11  C   UNL     1      -6.502  -1.492 129.852  0.00  0.00    +0.000 C 
ATOM     12  C   UNL     1      -7.378  -2.253 128.931  0.00  0.00    +0.000 A 
ATOM     13  C   UNL     1      -8.170  -3.329 129.248  0.00  0.00    +0.000 A 
ATOM     14  C   UNL     1      -8.930  -3.883 128.224  0.00  0.00    +0.000 A 
ATOM     15  C   UNL     1      -8.929  -3.327 126.931  0.00  0.00    +0.000 A 
ATOM     16  C   UNL     1      -8.160  -2.211 126.635  0.00  0.00    +0.000 A 
ATOM     17  C   UNL     1      -7.371  -1.711 127.640  0.00  0.00    +0.000 A 
ATOM     18  C   UNL     1      -6.489  -0.533 127.536  0.00  0.00    +0.000 C 
ENDBRANCH   4  10
BRANCH   1  19
ATOM     19  C   UNL     1      -7.194   3.738 130.929  0.00  0.00    +0.000 C 
BRANCH  19  24
ATOM     20  C   UNL     1     -10.867   7.953 129.135  0.00  0.00    +0.000 C 
ATOM     21  C   UNL     1      -9.831   6.923 129.482  0.00  0.00    +0.000 A 
ATOM     22  C   UNL     1      -9.078   7.136 130.612  0.00  0.00    +0.000 A 
ATOM     23  C   UNL     1      -8.059   6.240 130.971  0.00  0.00    +0.000 A 
ATOM     24  C   UNL     1      -7.925   5.016 130.287  0.00  0.00    +0.000 A 
ATOM     25  C   UNL     1      -8.650   4.964 129.090  0.00  0.00    +0.000 A 
ATOM     26  N   UNL     1      -9.579   5.882 128.670  0.00  0.00    +0.000 NA
ENDBRANCH  19  24
BRANCH  19  27
ATOM     27  C   UNL     1      -6.832   4.105 132.479  0.00  0.00    +0.000 C 
ATOM     28  O   UNL     1      -5.745   4.667 132.695  0.00  0.00    +0.000 OA
ATOM     29  N   UNL     1      -7.641   3.859 133.582  0.00  0.00    +0.000 N 
ATOM     30  C   UNL     1      -9.010   3.492 133.574  0.00  0.00    +0.000 C 
ATOM     31  C   UNL     1      -7.221   4.253 134.903  0.00  0.00    +0.000 C 
ENDBRANCH  19  27
ENDBRANCH   1  19
BRANCH   8  32
ATOM     32  C   UNL     1      -4.678   4.759 129.394  0.00  0.00    +0.000 C 
BRANCH  32  33
ATOM     33  C   UNL     1      -3.565   5.635 129.946  0.00  0.00    +0.000 C 
ATOM     34  C   UNL     1      -4.349   6.930 130.194  0.00  0.00    +0.000 C 
ATOM     35  C   UNL     1      -2.720   4.791 131.005  0.00  0.00    +0.000 C 
ATOM     36  C   UNL     1      -2.460   6.099 129.000  0.00  0.00    +0.000 C 
ENDBRANCH  32  33
ENDBRANCH   8  32
TORSDOF 6
ENDMDL
MODEL 2
REMARK VINA RESULT:      -8.6      2.901      7.537
REMARK  Name = CHEMBL2037496
REMARK  12 active torsions:
REMARK  status: ('A' for Active; 'I' for Inactive)
REMARK    1  A    between atoms: C_1  and  C_2
REMARK    2  A    between atoms: C_5  and  C_6
REMARK    3  A    between atoms: C_6  and  C_7
REMARK    4  A    between atoms: C_6  and  N_12
REMARK    5  A    between atoms: N_9  and  C_10
REMARK    6  A    between atoms: N_9  and  C_11
REMARK    7  A    between atoms: CA_15  and  C_16
REMARK    8  A    between atoms: CA_28  and  C_29
REMARK    9  A    between atoms: C_29  and  C_30
REMARK   10  A    between atoms: C_30  and  C_31
REMARK   11  A    between atoms: C_30  and  C_32
REMARK   12  A    between atoms: C_30  and  C_33
REMARK                            x       y       z     vdW  Elec       q    Type
REMARK                         _______ _______ _______ _____ _____    ______ ____
ROOT
ATOM      1  N   UNL     1      -7.854   3.613 129.737  0.00  0.00    +0.000 N 
ATOM      2  C   UNL     1      -8.884   4.563 129.604  0.00  0.00    +0.000 C 
ATOM      3  O   UNL     1      -8.947   5.273 128.607  0.00  0.00    +0.000 OA
ATOM      4  CA  UNL     1      -9.631   4.909 130.975  0.00  0.00    +0.000 C 
ATOM      5  N   UNL     1     -10.169   3.763 131.568  0.00  0.00    +0.000 N 
ATOM      6  C   UNL     1      -9.447   2.644 131.555  0.00  0.00    +0.000 C 
ATOM      7  O   UNL     1     -10.150   1.720 131.875  0.00  0.00    +0.000 OA
ATOM      8  CA  UNL     1      -7.929   2.759 131.005  0.00  0.00    +0.000 C 
ATOM      9  H   UNL     1     -11.156   3.519 131.564  0.00  0.00    +0.000 HD
ENDROOT
BRANCH   4  10
ATOM     10  C   UNL     1     -10.779   5.851 130.835  0.00  0.00    +0.000 C 
ATOM     11  C   UNL     1     -10.331   7.219 130.344  0.00  0.00    +0.000 C 
ATOM     12  C   UNL     1     -11.523   7.604 129.553  0.00  0.00    +0.000 A 
ATOM     13  C   UNL     1     -11.819   8.853 129.063  0.00  0.00    +0.000 A 
ATOM     14  C   UNL     1     -12.990   8.985 128.325  0.00  0.00    +0.000 A 
ATOM     15  C   UNL     1     -13.807   7.873 128.045  0.00  0.00    +0.000 A 
ATOM     16  C   UNL     1     -13.472   6.609 128.507  0.00  0.00    +0.000 A 
ATOM     17  C   UNL     1     -12.344   6.504 129.282  0.00  0.00    +0.000 A 
ATOM     18  C   UNL     1     -11.813   5.256 129.862  0.00  0.00    +0.000 C 
ENDBRANCH   4  10
BRANCH   1  19
ATOM     19  C   UNL     1      -6.653   3.685 128.677  0.00  0.00    +0.000 C 
BRANCH  19  24
ATOM     20  C   UNL     1      -1.903   6.132 131.115  0.00  0.00    +0.000 C 
ATOM     21  C   UNL     1      -3.120   5.626 130.393  0.00  0.00    +0.000 A 
ATOM     22  C   UNL     1      -2.953   4.568 129.533  0.00  0.00    +0.000 A 
ATOM     23  C   UNL     1      -4.036   4.075 128.788  0.00  0.00    +0.000 A 
ATOM     24  C   UNL     1      -5.341   4.531 129.057  0.00  0.00    +0.000 A 
ATOM     25  C   UNL     1      -5.376   5.685 129.851  0.00  0.00    +0.000 A 
ATOM     26  N   UNL     1      -4.309   6.244 130.507  0.00  0.00    +0.000 NA
ENDBRANCH  19  24
BRANCH  19  27
ATOM     27  C   UNL     1      -6.971   3.953 127.098  0.00  0.00    +0.000 C 
ATOM     28  O   UNL     1      -6.450   4.951 126.571  0.00  0.00    +0.000 OA
ATOM     29  N   UNL     1      -7.761   3.154 126.282  0.00  0.00    +0.000 N 
ATOM     30  C   UNL     1      -8.230   1.846 126.560  0.00  0.00    +0.000 C 
ATOM     31  C   UNL     1      -7.948   3.483 124.891  0.00  0.00    +0.000 C 
ENDBRANCH  19  27
ENDBRANCH   1  19
BRANCH   8  32
ATOM     32  C   UNL     1      -7.441   1.382 130.628  0.00  0.00    +0.000 C 
BRANCH  32  33
ATOM     33  C   UNL     1      -6.078   0.918 131.117  0.00  0.00    +0.000 C 
ATOM     34  C   UNL     1      -6.507   0.073 132.324  0.00  0.00    +0.000 C 
ATOM     35  C   UNL     1      -5.210   0.452 129.862  0.00  0.00    +0.000 C 
ATOM     36  C   UNL     1      -5.141   1.942 131.752  0.00  0.00    +0.000 C 
ENDBRANCH  32  33
ENDBRANCH   8  32
TORSDOF 6
ENDMDL
MODEL 3
REMARK VINA RESULT:      -8.6      1.993      2.564
REMARK  Name = CHEMBL2037496
REMARK  12 active torsions:
REMARK  status: ('A' for Active; 'I' for Inactive)
REMARK    1  A    between atoms: C_1  and  C_2
REMARK    2  A    between atoms: C_5  and  C_6
REMARK    3  A    between atoms: C_6  and  C_7
REMARK    4  A    between atoms: C_6  and  N_12
REMARK    5  A    between atoms: N_9  and  C_10
REMARK    6  A    between atoms: N_9  and  C_11
REMARK    7  A    between atoms: CA_15  and  C_16
REMARK    8  A    between atoms: CA_28  and  C_29
REMARK    9  A    between atoms: C_29  and  C_30
REMARK   10  A    between atoms: C_30  and  C_31
REMARK   11  A    between atoms: C_30  and  C_32
REMARK   12  A    between atoms: C_30  and  C_33
REMARK                            x       y       z     vdW  Elec       q    Type
REMARK                         _______ _______ _______ _____ _____    ______ ____
ROOT
ATOM      1  N   UNL     1      -6.633   3.147 128.937  0.00  0.00    +0.000 N 
ATOM      2  C   UNL     1      -7.118   2.084 128.152  0.00  0.00    +0.000 C 
ATOM      3  O   UNL     1      -8.289   1.731 128.241  0.00  0.00    +0.000 OA
ATOM      4  CA  UNL     1      -5.972   1.165 127.521  0.00  0.00    +0.000 C 
ATOM      5  N   UNL     1      -5.086   1.914 126.742  0.00  0.00    +0.000 N 
ATOM      6  C   UNL     1      -4.705   3.110 127.186  0.00  0.00    +0.000 C 
ATOM      7  O   UNL     1      -4.158   3.704 126.294  0.00  0.00    +0.000 OA
ATOM      8  CA  UNL     1      -5.169   3.515 128.683  0.00  0.00    +0.000 C 
ATOM      9  H   UNL     1      -5.074   1.922 125.725  0.00  0.00    +0.000 HD
ENDROOT
BRANCH   4  10
ATOM     10  C   UNL     1      -6.468   0.085 126.619  0.00  0.00    +0.000 C 
ATOM     11  C   UNL     1      -6.812   0.617 125.236  0.00  0.00    +0.000 C 
ATOM     12  C   UNL     1      -6.460  -0.567 124.418  0.00  0.00    +0.000 A 
ATOM     13  C   UNL     1      -6.786  -0.786 123.102  0.00  0.00    +0.000 A 
ATOM     14  C   UNL     1      -6.333  -1.965 122.522  0.00  0.00    +0.000 A 
ATOM     15  C   UNL     1      -5.527  -2.869 123.239  0.00  0.00    +0.000 A 
ATOM     16  C   UNL     1      -5.165  -2.614 124.554  0.00  0.00    +0.000 A 
ATOM     17  C   UNL     1      -5.667  -1.474 125.131  0.00  0.00    +0.000 A 
ATOM     18  C   UNL     1      -5.400  -1.018 126.508  0.00  0.00    +0.000 C 
ENDBRANCH   4  10
BRANCH   1  19
ATOM     19  C   UNL     1      -7.587   3.682 130.109  0.00  0.00    +0.000 C 
BRANCH  19  24
ATOM     20  C   UNL     1     -11.449   8.069 129.536  0.00  0.00    +0.000 C 
ATOM     21  C   UNL     1     -10.359   7.038 129.609  0.00  0.00    +0.000 A 
ATOM     22  C   UNL     1      -9.740   6.854 130.822  0.00  0.00    +0.000 A 
ATOM     23  C   UNL     1      -8.680   5.942 130.952  0.00  0.00    +0.000 A 
ATOM     24  C   UNL     1      -8.369   5.069 129.891  0.00  0.00    +0.000 A 
ATOM     25  C   UNL     1      -8.970   5.428 128.679  0.00  0.00    +0.000 A 
ATOM     26  N   UNL     1      -9.935   6.388 128.511  0.00  0.00    +0.000 NA
ENDBRANCH  19  24
BRANCH  19  27
ATOM     27  C   UNL     1      -7.079   3.642 131.660  0.00  0.00    +0.000 C 
ATOM     28  O   UNL     1      -6.020   4.234 131.931  0.00  0.00    +0.000 OA
ATOM     29  N   UNL     1      -7.734   3.017 132.714  0.00  0.00    +0.000 N 
ATOM     30  C   UNL     1      -9.063   2.524 132.723  0.00  0.00    +0.000 C 
ATOM     31  C   UNL     1      -7.196   3.072 134.050  0.00  0.00    +0.000 C 
ENDBRANCH  19  27
ENDBRANCH   1  19
BRANCH   8  32
ATOM     32  C   UNL     1      -5.069   5.013 128.837  0.00  0.00    +0.000 C 
BRANCH  32  33
ATOM     33  C   UNL     1      -3.825   5.612 129.475  0.00  0.00    +0.000 C 
ATOM     34  C   UNL     1      -4.424   6.895 130.065  0.00  0.00    +0.000 C 
ATOM     35  C   UNL     1      -3.038   4.459 130.250  0.00  0.00    +0.000 C 
ATOM     36  C   UNL     1      -2.724   6.152 128.566  0.00  0.00    +0.000 C 
ENDBRANCH  32  33
ENDBRANCH   8  32
TORSDOF 6
ENDMDL
MODEL 4
REMARK VINA RESULT:      -8.5      2.174      7.384
REMARK  Name = CHEMBL2037496
REMARK  12 active torsions:
REMARK  status: ('A' for Active; 'I' for Inactive)
REMARK    1  A    between atoms: C_1  and  C_2
REMARK    2  A    between atoms: C_5  and  C_6
REMARK    3  A    between atoms: C_6  and  C_7
REMARK    4  A    between atoms: C_6  and  N_12
REMARK    5  A    between atoms: N_9  and  C_10
REMARK    6  A    between atoms: N_9  and  C_11
REMARK    7  A    between atoms: CA_15  and  C_16
REMARK    8  A    between atoms: CA_28  and  C_29
REMARK    9  A    between atoms: C_29  and  C_30
REMARK   10  A    between atoms: C_30  and  C_31
REMARK   11  A    between atoms: C_30  and  C_32
REMARK   12  A    between atoms: C_30  and  C_33
REMARK                            x       y       z     vdW  Elec       q    Type
REMARK                         _______ _______ _______ _____ _____    ______ ____
ROOT
ATOM      1  N   UNL     1      -7.435   2.869 130.376  0.00  0.00    +0.000 N 
ATOM      2  C   UNL     1      -8.544   3.540 129.826  0.00  0.00    +0.000 C 
ATOM      3  O   UNL     1      -8.758   3.497 128.619  0.00  0.00    +0.000 OA
ATOM      4  CA  UNL     1      -9.180   4.645 130.790  0.00  0.00    +0.000 C 
ATOM      5  N   UNL     1      -9.568   4.095 132.014  0.00  0.00    +0.000 N 
ATOM      6  C   UNL     1      -8.766   3.201 132.590  0.00  0.00    +0.000 C 
ATOM      7  O   UNL     1      -9.362   2.660 133.486  0.00  0.00    +0.000 OA
ATOM      8  CA  UNL     1      -7.322   2.962 131.900  0.00  0.00    +0.000 C 
ATOM      9  H   UNL     1     -10.529   3.895 132.281  0.00  0.00    +0.000 HD
ENDROOT
BRANCH   4  10
ATOM     10  C   UNL     1     -10.405   5.305 130.253  0.00  0.00    +0.000 C 
ATOM     11  C   UNL     1     -11.253   5.911 131.361  0.00  0.00    +0.000 C 
ATOM     12  C   UNL     1     -11.811   7.079 130.641  0.00  0.00    +0.000 A 
ATOM     13  C   UNL     1     -12.852   7.878 131.046  0.00  0.00    +0.000 A 
ATOM     14  C   UNL     1     -13.201   8.938 130.217  0.00  0.00    +0.000 A 
ATOM     15  C   UNL     1     -12.479   9.213 129.040  0.00  0.00    +0.000 A 
ATOM     16  C   UNL     1     -11.400   8.426 128.665  0.00  0.00    +0.000 A 
ATOM     17  C   UNL     1     -11.104   7.349 129.463  0.00  0.00    +0.000 A 
ATOM     18  C   UNL     1      -9.998   6.397 129.247  0.00  0.00    +0.000 C 
ENDBRANCH   4  10
BRANCH   1  19
ATOM     19  C   UNL     1      -6.352   2.286 129.349  0.00  0.00    +0.000 C 
BRANCH  19  24
ATOM     20  C   UNL     1      -2.340   6.434 128.260  0.00  0.00    +0.000 C 
ATOM     21  C   UNL     1      -3.382   5.359 128.384  0.00  0.00    +0.000 A 
ATOM     22  C   UNL     1      -2.956   4.102 128.740  0.00  0.00    +0.000 A 
ATOM     23  C   UNL     1      -3.866   3.037 128.828  0.00  0.00    +0.000 A 
ATOM     24  C   UNL     1      -5.250   3.286 128.742  0.00  0.00    +0.000 A 
ATOM     25  C   UNL     1      -5.558   4.563 128.258  0.00  0.00    +0.000 A 
ATOM     26  N   UNL     1      -4.668   5.589 128.067  0.00  0.00    +0.000 NA
ENDBRANCH  19  24
BRANCH  19  27
ATOM     27  C   UNL     1      -6.820   1.282 128.148  0.00  0.00    +0.000 C 
ATOM     28  O   UNL     1      -6.541   1.615 126.983  0.00  0.00    +0.000 OA
ATOM     29  N   UNL     1      -7.490   0.077 128.312  0.00  0.00    +0.000 N 
ATOM     30  C   UNL     1      -7.674  -0.643 129.520  0.00  0.00    +0.000 C 
ATOM     31  C   UNL     1      -7.829  -0.736 127.172  0.00  0.00    +0.000 C 
ENDBRANCH  19  27
ENDBRANCH   1  19
BRANCH   8  32
ATOM     32  C   UNL     1      -6.767   1.640 132.372  0.00  0.00    +0.000 C 
BRANCH  32  33
ATOM     33  C   UNL     1      -5.323   1.568 132.843  0.00  0.00    +0.000 C 
ATOM     34  C   UNL     1      -5.538   1.635 134.361  0.00  0.00    +0.000 C 
ATOM     35  C   UNL     1      -4.568   0.431 132.016  0.00  0.00    +0.000 C 
ATOM     36  C   UNL     1      -4.409   2.765 132.589  0.00  0.00    +0.000 C 
ENDBRANCH  32  33
ENDBRANCH   8  32
TORSDOF 6
ENDMDL
MODEL 5
REMARK VINA RESULT:      -8.5      4.025      7.149
REMARK  Name = CHEMBL2037496
REMARK  12 active torsions:
REMARK  status: ('A' for Active; 'I' for Inactive)
REMARK    1  A    between atoms: C_1  and  C_2
REMARK    2  A    between atoms: C_5  and  C_6
REMARK    3  A    between atoms: C_6  and  C_7
REMARK    4  A    between atoms: C_6  and  N_12
REMARK    5  A    between atoms: N_9  and  C_10
REMARK    6  A    between atoms: N_9  and  C_11
REMARK    7  A    between atoms: CA_15  and  C_16
REMARK    8  A    between atoms: CA_28  and  C_29
REMARK    9  A    between atoms: C_29  and  C_30
REMARK   10  A    between atoms: C_30  and  C_31
REMARK   11  A    between atoms: C_30  and  C_32
REMARK   12  A    between atoms: C_30  and  C_33
REMARK                            x       y       z     vdW  Elec       q    Type
REMARK                         _______ _______ _______ _____ _____    ______ ____
ROOT
ATOM      1  N   UNL     1      -7.073  -0.271 126.977  0.00  0.00    +0.000 N 
ATOM      2  C   UNL     1      -6.752  -0.446 128.337  0.00  0.00    +0.000 C 
ATOM      3  O   UNL     1      -6.522   0.524 129.050  0.00  0.00    +0.000 OA
ATOM      4  CA  UNL     1      -6.306  -1.935 128.713  0.00  0.00    +0.000 C 
ATOM      5  N   UNL     1      -7.292  -2.866 128.375  0.00  0.00    +0.000 N 
ATOM      6  C   UNL     1      -7.935  -2.717 127.218  0.00  0.00    +0.000 C 
ATOM      7  O   UNL     1      -8.897  -3.440 127.207  0.00  0.00    +0.000 OA
ATOM      8  CA  UNL     1      -7.389  -1.564 126.222  0.00  0.00    +0.000 C 
ATOM      9  H   UNL     1      -7.914  -3.318 129.040  0.00  0.00    +0.000 HD
ENDROOT
BRANCH   4  10
ATOM     10  C   UNL     1      -6.044  -2.156 130.165  0.00  0.00    +0.000 C 
ATOM     11  C   UNL     1      -7.320  -2.083 130.989  0.00  0.00    +0.000 C 
ATOM     12  C   UNL     1      -6.992  -3.065 132.048  0.00  0.00    +0.000 A 
ATOM     13  C   UNL     1      -7.660  -3.254 133.232  0.00  0.00    +0.000 A 
ATOM     14  C   UNL     1      -7.187  -4.252 134.078  0.00  0.00    +0.000 A 
ATOM     15  C   UNL     1      -6.102  -5.068 133.708  0.00  0.00    +0.000 A 
ATOM     16  C   UNL     1      -5.464  -4.897 132.488  0.00  0.00    +0.000 A 
ATOM     17  C   UNL     1      -5.905  -3.872 131.690  0.00  0.00    +0.000 A 
ATOM     18  C   UNL     1      -5.370  -3.526 130.359  0.00  0.00    +0.000 C 
ENDBRANCH   4  10
BRANCH   1  19
ATOM     19  C   UNL     1      -6.870   1.196 126.364  0.00  0.00    +0.000 C 
BRANCH  19  24
ATOM     20  C   UNL     1      -8.686   3.501 121.277  0.00  0.00    +0.000 C 
ATOM     21  C   UNL     1      -8.326   2.799 122.555  0.00  0.00    +0.000 A 
ATOM     22  C   UNL     1      -7.154   2.083 122.578  0.00  0.00    +0.000 A 
ATOM     23  C   UNL     1      -6.778   1.362 123.722  0.00  0.00    +0.000 A 
ATOM     24  C   UNL     1      -7.500   1.521 124.922  0.00  0.00    +0.000 A 
ATOM     25  C   UNL     1      -8.732   2.165 124.750  0.00  0.00    +0.000 A 
ATOM     26  N   UNL     1      -9.163   2.789 123.607  0.00  0.00    +0.000 NA
ENDBRANCH  19  24
BRANCH  19  27
ATOM     27  C   UNL     1      -5.407   1.918 126.436  0.00  0.00    +0.000 C 
ATOM     28  O   UNL     1      -4.409   1.210 126.221  0.00  0.00    +0.000 OA
ATOM     29  N   UNL     1      -5.177   3.262 126.700  0.00  0.00    +0.000 N 
ATOM     30  C   UNL     1      -6.132   4.310 126.706  0.00  0.00    +0.000 C 
ATOM     31  C   UNL     1      -3.835   3.789 126.713  0.00  0.00    +0.000 C 
ENDBRANCH  19  27
ENDBRANCH   1  19
BRANCH   8  32
ATOM     32  C   UNL     1      -8.471  -1.227 125.225  0.00  0.00    +0.000 C 
BRANCH  32  33
ATOM     33  C   UNL     1      -8.504  -1.956 123.891  0.00  0.00    +0.000 C 
ATOM     34  C   UNL     1      -9.370  -0.983 123.081  0.00  0.00    +0.000 C 
ATOM     35  C   UNL     1      -7.031  -2.467 123.546  0.00  0.00    +0.000 C 
ATOM     36  C   UNL     1      -9.292  -3.260 123.789  0.00  0.00    +0.000 C 
ENDBRANCH  32  33
ENDBRANCH   8  32
TORSDOF 6
ENDMDL
MODEL 6
REMARK VINA RESULT:      -8.4      2.374      7.927
REMARK  Name = CHEMBL2037496
REMARK  12 active torsions:
REMARK  status: ('A' for Active; 'I' for Inactive)
REMARK    1  A    between atoms: C_1  and  C_2
REMARK    2  A    between atoms: C_5  and  C_6
REMARK    3  A    between atoms: C_6  and  C_7
REMARK    4  A    between atoms: C_6  and  N_12
REMARK    5  A    between atoms: N_9  and  C_10
REMARK    6  A    between atoms: N_9  and  C_11
REMARK    7  A    between atoms: CA_15  and  C_16
REMARK    8  A    between atoms: CA_28  and  C_29
REMARK    9  A    between atoms: C_29  and  C_30
REMARK   10  A    between atoms: C_30  and  C_31
REMARK   11  A    between atoms: C_30  and  C_32
REMARK   12  A    between atoms: C_30  and  C_33
REMARK                            x       y       z     vdW  Elec       q    Type
REMARK                         _______ _______ _______ _____ _____    ______ ____
ROOT
ATOM      1  N   UNL     1      -7.502   2.506 130.243  0.00  0.00    +0.000 N 
ATOM      2  C   UNL     1      -8.603   3.212 129.721  0.00  0.00    +0.000 C 
ATOM      3  O   UNL     1      -8.910   3.097 128.540  0.00  0.00    +0.000 OA
ATOM      4  CA  UNL     1      -9.092   4.427 130.639  0.00  0.00    +0.000 C 
ATOM      5  N   UNL     1      -9.421   3.995 131.926  0.00  0.00    +0.000 N 
ATOM      6  C   UNL     1      -8.638   3.091 132.513  0.00  0.00    +0.000 C 
ATOM      7  O   UNL     1      -9.198   2.660 133.487  0.00  0.00    +0.000 OA
ATOM      8  CA  UNL     1      -7.269   2.702 131.743  0.00  0.00    +0.000 C 
ATOM      9  H   UNL     1     -10.370   3.884 132.274  0.00  0.00    +0.000 HD
ENDROOT
BRANCH   4  10
ATOM     10  C   UNL     1     -10.308   5.131 130.140  0.00  0.00    +0.000 C 
ATOM     11  C   UNL     1     -11.148   5.686 131.280  0.00  0.00    +0.000 C 
ATOM     12  C   UNL     1     -11.691   6.898 130.625  0.00  0.00    +0.000 A 
ATOM     13  C   UNL     1     -12.722   7.687 131.073  0.00  0.00    +0.000 A 
ATOM     14  C   UNL     1     -13.056   8.796 130.304  0.00  0.00    +0.000 A 
ATOM     15  C   UNL     1     -12.331   9.125 129.144  0.00  0.00    +0.000 A 
ATOM     16  C   UNL     1     -11.262   8.346 128.726  0.00  0.00    +0.000 A 
ATOM     17  C   UNL     1     -10.980   7.223 129.463  0.00  0.00    +0.000 A 
ATOM     18  C   UNL     1      -9.887   6.270 129.194  0.00  0.00    +0.000 C 
ENDBRANCH   4  10
BRANCH   1  19
ATOM     19  C   UNL     1      -6.539   1.775 129.191  0.00  0.00    +0.000 C 
BRANCH  19  24
ATOM     20  C   UNL     1      -6.183  -3.984 130.285  0.00  0.00    +0.000 C 
ATOM     21  C   UNL     1      -6.258  -2.546 129.854  0.00  0.00    +0.000 A 
ATOM     22  C   UNL     1      -7.493  -1.944 129.867  0.00  0.00    +0.000 A 
ATOM     23  C   UNL     1      -7.647  -0.619 129.432  0.00  0.00    +0.000 A 
ATOM     24  C   UNL     1      -6.510   0.169 129.161  0.00  0.00    +0.000 A 
ATOM     25  C   UNL     1      -5.328  -0.575 129.058  0.00  0.00    +0.000 A 
ATOM     26  N   UNL     1      -5.179  -1.900 129.382  0.00  0.00    +0.000 NA
ENDBRANCH  19  24
BRANCH  19  27
ATOM     27  C   UNL     1      -5.007   2.299 128.983  0.00  0.00    +0.000 C 
ATOM     28  O   UNL     1      -4.316   2.466 130.003  0.00  0.00    +0.000 OA
ATOM     29  N   UNL     1      -4.396   2.560 127.763  0.00  0.00    +0.000 N 
ATOM     30  C   UNL     1      -4.864   2.194 126.475  0.00  0.00    +0.000 C 
ATOM     31  C   UNL     1      -3.024   2.997 127.706  0.00  0.00    +0.000 C 
ENDBRANCH  19  27
ENDBRANCH   1  19
BRANCH   8  32
ATOM     32  C   UNL     1      -6.767   1.382 132.277  0.00  0.00    +0.000 C 
BRANCH  32  33
ATOM     33  C   UNL     1      -5.577   1.369 133.223  0.00  0.00    +0.000 C 
ATOM     34  C   UNL     1      -4.803   0.171 132.656  0.00  0.00    +0.000 C 
ATOM     35  C   UNL     1      -5.053   2.865 133.413  0.00  0.00    +0.000 C 
ATOM     36  C   UNL     1      -5.801   0.956 134.676  0.00  0.00    +0.000 C 
ENDBRANCH  32  33
ENDBRANCH   8  32
TORSDOF 6
ENDMDL
MODEL 7
REMARK VINA RESULT:      -8.3      2.427      7.399
REMARK  Name = CHEMBL2037496
REMARK  12 active torsions:
REMARK  status: ('A' for Active; 'I' for Inactive)
REMARK    1  A    between atoms: C_1  and  C_2
REMARK    2  A    between atoms: C_5  and  C_6
REMARK    3  A    between atoms: C_6  and  C_7
REMARK    4  A    between atoms: C_6  and  N_12
REMARK    5  A    between atoms: N_9  and  C_10
REMARK    6  A    between atoms: N_9  and  C_11
REMARK    7  A    between atoms: CA_15  and  C_16
REMARK    8  A    between atoms: CA_28  and  C_29
REMARK    9  A    between atoms: C_29  and  C_30
REMARK   10  A    between atoms: C_30  and  C_31
REMARK   11  A    between atoms: C_30  and  C_32
REMARK   12  A    between atoms: C_30  and  C_33
REMARK                            x       y       z     vdW  Elec       q    Type
REMARK                         _______ _______ _______ _____ _____    ______ ____
ROOT
ATOM      1  N   UNL     1      -6.689   3.807 131.140  0.00  0.00    +0.000 N 
ATOM      2  C   UNL     1      -7.258   5.083 130.971  0.00  0.00    +0.000 C 
ATOM      3  O   UNL     1      -6.543   6.077 130.905  0.00  0.00    +0.000 OA
ATOM      4  CA  UNL     1      -8.820   5.149 131.304  0.00  0.00    +0.000 C 
ATOM      5  N   UNL     1      -9.547   4.241 130.529  0.00  0.00    +0.000 N 
ATOM      6  C   UNL     1      -9.037   3.027 130.328  0.00  0.00    +0.000 C 
ATOM      7  O   UNL     1      -9.658   2.480 129.453  0.00  0.00    +0.000 OA
ATOM      8  CA  UNL     1      -7.694   2.653 131.151  0.00  0.00    +0.000 C 
ATOM      9  H   UNL     1     -10.121   4.493 129.729  0.00  0.00    +0.000 HD
ENDROOT
BRANCH   4  10
ATOM     10  C   UNL     1      -9.454   6.474 131.049  0.00  0.00    +0.000 C 
ATOM     11  C   UNL     1      -9.435   6.836 129.571  0.00  0.00    +0.000 C 
ATOM     12  C   UNL     1     -10.699   7.604 129.485  0.00  0.00    +0.000 A 
ATOM     13  C   UNL     1     -11.108   8.404 128.446  0.00  0.00    +0.000 A 
ATOM     14  C   UNL     1     -12.349   9.020 128.568  0.00  0.00    +0.000 A 
ATOM     15  C   UNL     1     -13.173   8.786 129.685  0.00  0.00    +0.000 A 
ATOM     16  C   UNL     1     -12.768   7.939 130.705  0.00  0.00    +0.000 A 
ATOM     17  C   UNL     1     -11.518   7.384 130.599  0.00  0.00    +0.000 A 
ATOM     18  C   UNL     1     -10.903   6.456 131.567  0.00  0.00    +0.000 C 
ENDBRANCH   4  10
BRANCH   1  19
ATOM     19  C   UNL     1      -5.127   3.746 131.498  0.00  0.00    +0.000 C 
BRANCH  19  24
ATOM     20  C   UNL     1      -2.158   3.589 126.434  0.00  0.00    +0.000 C 
ATOM     21  C   UNL     1      -2.814   3.528 127.784  0.00  0.00    +0.000 A 
ATOM     22  C   UNL     1      -2.630   4.597 128.628  0.00  0.00    +0.000 A 
ATOM     23  C   UNL     1      -3.172   4.587 129.923  0.00  0.00    +0.000 A 
ATOM     24  C   UNL     1      -4.070   3.569 130.302  0.00  0.00    +0.000 A 
ATOM     25  C   UNL     1      -4.083   2.481 129.421  0.00  0.00    +0.000 A 
ATOM     26  N   UNL     1      -3.474   2.431 128.193  0.00  0.00    +0.000 NA
ENDBRANCH  19  24
BRANCH  19  27
ATOM     27  C   UNL     1      -4.610   2.835 132.751  0.00  0.00    +0.000 C 
ATOM     28  O   UNL     1      -3.556   2.194 132.595  0.00  0.00    +0.000 OA
ATOM     29  N   UNL     1      -5.234   2.723 133.987  0.00  0.00    +0.000 N 
ATOM     30  C   UNL     1      -6.269   3.544 134.500  0.00  0.00    +0.000 C 
ATOM     31  C   UNL     1      -4.664   1.902 135.026  0.00  0.00    +0.000 C 
ENDBRANCH  19  27
ENDBRANCH   1  19
BRANCH   8  32
ATOM     32  C   UNL     1      -7.017   1.485 130.476  0.00  0.00    +0.000 C 
BRANCH  32  33
ATOM     33  C   UNL     1      -6.965   0.144 131.191  0.00  0.00    +0.000 C 
ATOM     34  C   UNL     1      -8.197  -0.531 130.572  0.00  0.00    +0.000 C 
ATOM     35  C   UNL     1      -5.460  -0.385 131.185  0.00  0.00    +0.000 C 
ATOM     36  C   UNL     1      -7.282   0.097 132.684  0.00  0.00    +0.000 C 
ENDBRANCH  32  33
ENDBRANCH   8  32
TORSDOF 6
ENDMDL
MODEL 8
REMARK VINA RESULT:      -8.3      2.624      7.624
REMARK  Name = CHEMBL2037496
REMARK  12 active torsions:
REMARK  status: ('A' for Active; 'I' for Inactive)
REMARK    1  A    between atoms: C_1  and  C_2
REMARK    2  A    between atoms: C_5  and  C_6
REMARK    3  A    between atoms: C_6  and  C_7
REMARK    4  A    between atoms: C_6  and  N_12
REMARK    5  A    between atoms: N_9  and  C_10
REMARK    6  A    between atoms: N_9  and  C_11
REMARK    7  A    between atoms: CA_15  and  C_16
REMARK    8  A    between atoms: CA_28  and  C_29
REMARK    9  A    between atoms: C_29  and  C_30
REMARK   10  A    between atoms: C_30  and  C_31
REMARK   11  A    between atoms: C_30  and  C_32
REMARK   12  A    between atoms: C_30  and  C_33
REMARK                            x       y       z     vdW  Elec       q    Type
REMARK                         _______ _______ _______ _____ _____    ______ ____
ROOT
ATOM      1  N   UNL     1      -7.727   3.366 129.821  0.00  0.00    +0.000 N 
ATOM      2  C   UNL     1      -8.694   4.377 129.667  0.00  0.00    +0.000 C 
ATOM      3  O   UNL     1      -8.779   5.000 128.614  0.00  0.00    +0.000 OA
ATOM      4  CA  UNL     1      -9.314   4.899 131.046  0.00  0.00    +0.000 C 
ATOM      5  N   UNL     1      -9.887   3.855 131.777  0.00  0.00    +0.000 N 
ATOM      6  C   UNL     1      -9.249   2.687 131.822  0.00  0.00    +0.000 C 
ATOM      7  O   UNL     1      -9.990   1.852 132.272  0.00  0.00    +0.000 OA
ATOM      8  CA  UNL     1      -7.771   2.636 131.165  0.00  0.00    +0.000 C 
ATOM      9  H   UNL     1     -10.886   3.688 131.861  0.00  0.00    +0.000 HD
ENDROOT
BRANCH   4  10
ATOM     10  C   UNL     1     -10.399   5.911 130.894  0.00  0.00    +0.000 C 
ATOM     11  C   UNL     1      -9.914   7.156 130.167  0.00  0.00    +0.000 C 
ATOM     12  C   UNL     1     -11.159   7.534 129.459  0.00  0.00    +0.000 A 
ATOM     13  C   UNL     1     -11.421   8.726 128.830  0.00  0.00    +0.000 A 
ATOM     14  C   UNL     1     -12.657   8.860 128.208  0.00  0.00    +0.000 A 
ATOM     15  C   UNL     1     -13.579   7.796 128.179  0.00  0.00    +0.000 A 
ATOM     16  C   UNL     1     -13.284   6.581 128.780  0.00  0.00    +0.000 A 
ATOM     17  C   UNL     1     -12.085   6.483 129.438  0.00  0.00    +0.000 A 
ATOM     18  C   UNL     1     -11.580   5.283 130.132  0.00  0.00    +0.000 C 
ENDBRANCH   4  10
BRANCH   1  19
ATOM     19  C   UNL     1      -6.604   3.252 128.682  0.00  0.00    +0.000 C 
BRANCH  19  24
ATOM     20  C   UNL     1      -6.387  -0.795 124.432  0.00  0.00    +0.000 C 
ATOM     21  C   UNL     1      -6.494   0.127 125.613  0.00  0.00    +0.000 A 
ATOM     22  C   UNL     1      -5.326   0.499 126.235  0.00  0.00    +0.000 A 
ATOM     23  C   UNL     1      -5.352   1.319 127.373  0.00  0.00    +0.000 A 
ATOM     24  C   UNL     1      -6.559   1.926 127.776  0.00  0.00    +0.000 A 
ATOM     25  C   UNL     1      -7.690   1.382 127.156  0.00  0.00    +0.000 A 
ATOM     26  N   UNL     1      -7.688   0.499 126.106  0.00  0.00    +0.000 NA
ENDBRANCH  19  24
BRANCH  19  27
ATOM     27  C   UNL     1      -5.062   3.678 129.008  0.00  0.00    +0.000 C 
ATOM     28  O   UNL     1      -4.543   3.205 130.034  0.00  0.00    +0.000 OA
ATOM     29  N   UNL     1      -4.267   4.512 128.232  0.00  0.00    +0.000 N 
ATOM     30  C   UNL     1      -4.522   4.946 126.907  0.00  0.00    +0.000 C 
ATOM     31  C   UNL     1      -2.907   4.795 128.613  0.00  0.00    +0.000 C 
ENDBRANCH  19  27
ENDBRANCH   1  19
BRANCH   8  32
ATOM     32  C   UNL     1      -7.409   1.197 130.886  0.00  0.00    +0.000 C 
BRANCH  32  33
ATOM     33  C   UNL     1      -6.384   0.505 131.770  0.00  0.00    +0.000 C 
ATOM     34  C   UNL     1      -7.317  -0.361 132.627  0.00  0.00    +0.000 C 
ATOM     35  C   UNL     1      -5.165   0.018 130.862  0.00  0.00    +0.000 C 
ATOM     36  C   UNL     1      -5.648   1.331 132.822  0.00  0.00    +0.000 C 
ENDBRANCH  32  33
ENDBRANCH   8  32
TORSDOF 6
ENDMDL
MODEL 9
REMARK VINA RESULT:      -8.3      3.675      5.078
REMARK  Name = CHEMBL2037496
REMARK  12 active torsions:
REMARK  status: ('A' for Active; 'I' for Inactive)
REMARK    1  A    between atoms: C_1  and  C_2
REMARK    2  A    between atoms: C_5  and  C_6
REMARK    3  A    between atoms: C_6  and  C_7
REMARK    4  A    between atoms: C_6  and  N_12
REMARK    5  A    between atoms: N_9  and  C_10
REMARK    6  A    between atoms: N_9  and  C_11
REMARK    7  A    between atoms: CA_15  and  C_16
REMARK    8  A    between atoms: CA_28  and  C_29
REMARK    9  A    between atoms: C_29  and  C_30
REMARK   10  A    between atoms: C_30  and  C_31
REMARK   11  A    between atoms: C_30  and  C_32
REMARK   12  A    between atoms: C_30  and  C_33
REMARK                            x       y       z     vdW  Elec       q    Type
REMARK                         _______ _______ _______ _____ _____    ______ ____
ROOT
ATOM      1  N   UNL     1      -7.117   3.887 128.969  0.00  0.00    +0.000 N 
ATOM      2  C   UNL     1      -7.408   4.144 127.616  0.00  0.00    +0.000 C 
ATOM      3  O   UNL     1      -8.570   4.265 127.243  0.00  0.00    +0.000 OA
ATOM      4  CA  UNL     1      -6.197   3.833 126.620  0.00  0.00    +0.000 C 
ATOM      5  N   UNL     1      -5.052   4.556 126.965  0.00  0.00    +0.000 N 
ATOM      6  C   UNL     1      -4.740   4.674 128.254  0.00  0.00    +0.000 C 
ATOM      7  O   UNL     1      -3.890   5.518 128.377  0.00  0.00    +0.000 OA
ATOM      8  CA  UNL     1      -5.625   3.814 129.301  0.00  0.00    +0.000 C 
ATOM      9  H   UNL     1      -4.715   5.377 126.468  0.00  0.00    +0.000 HD
ENDROOT
BRANCH   4  10
ATOM     10  C   UNL     1      -6.462   4.179 125.194  0.00  0.00    +0.000 C 
ATOM     11  C   UNL     1      -5.256   4.832 124.536  0.00  0.00    +0.000 C 
ATOM     12  C   UNL     1      -5.420   4.327 123.153  0.00  0.00    +0.000 A 
ATOM     13  C   UNL     1      -4.769   4.774 122.029  0.00  0.00    +0.000 A 
ATOM     14  C   UNL     1      -5.063   4.139 120.828  0.00  0.00    +0.000 A 
ATOM     15  C   UNL     1      -5.950   3.046 120.778  0.00  0.00    +0.000 A 
ATOM     16  C   UNL     1      -6.565   2.574 121.928  0.00  0.00    +0.000 A 
ATOM     17  C   UNL     1      -6.309   3.247 123.096  0.00  0.00    +0.000 A 
ATOM     18  C   UNL     1      -6.854   2.905 124.424  0.00  0.00    +0.000 C 
ENDBRANCH   4  10
BRANCH   1  19
ATOM     19  C   UNL     1      -8.351   3.509 129.921  0.00  0.00    +0.000 C 
BRANCH  19  24
ATOM     20  C   UNL     1     -12.200   7.933 130.237  0.00  0.00    +0.000 C 
ATOM     21  C   UNL     1     -11.187   6.826 130.307  0.00  0.00    +0.000 A 
ATOM     22  C   UNL     1     -11.658   5.535 130.320  0.00  0.00    +0.000 A 
ATOM     23  C   UNL     1     -10.772   4.452 130.433  0.00  0.00    +0.000 A 
ATOM     24  C   UNL     1      -9.383   4.667 130.340  0.00  0.00    +0.000 A 
ATOM     25  C   UNL     1      -9.018   6.014 130.455  0.00  0.00    +0.000 A 
ATOM     26  N   UNL     1      -9.876   7.085 130.450  0.00  0.00    +0.000 NA
ENDBRANCH  19  24
BRANCH  19  27
ATOM     27  C   UNL     1      -8.113   2.564 131.232  0.00  0.00    +0.000 C 
ATOM     28  O   UNL     1      -8.296   3.078 132.348  0.00  0.00    +0.000 OA
ATOM     29  N   UNL     1      -7.740   1.226 131.212  0.00  0.00    +0.000 N 
ATOM     30  C   UNL     1      -7.739   0.354 130.094  0.00  0.00    +0.000 C 
ATOM     31  C   UNL     1      -7.585   0.488 132.440  0.00  0.00    +0.000 C 
ENDBRANCH  19  27
ENDBRANCH   1  19
BRANCH   8  32
ATOM     32  C   UNL     1      -5.461   4.405 130.680  0.00  0.00    +0.000 C 
BRANCH  32  33
ATOM     33  C   UNL     1      -4.445   3.795 131.633  0.00  0.00    +0.000 C 
ATOM     34  C   UNL     1      -4.363   2.376 131.055  0.00  0.00    +0.000 C 
ATOM     35  C   UNL     1      -3.249   4.831 131.844  0.00  0.00    +0.000 C 
ATOM     36  C   UNL     1      -4.861   3.536 133.079  0.00  0.00    +0.000 C 
ENDBRANCH  32  33
ENDBRANCH   8  32
TORSDOF 6
ENDMDL
