MODEL 1
REMARK VINA RESULT:     -10.9      0.000      0.000
REMARK  Name = CHEMBL4474284
REMARK  26 active torsions:
REMARK  status: ('A' for Active; 'I' for Inactive)
REMARK    1  A    between atoms: C_1  and  C_2
REMARK    2  A    between atoms: C_2  and  C_3
REMARK    3  A    between atoms: C_3  and  C_4
REMARK    4  A    between atoms: C_3  and  C_5
REMARK    5  A    between atoms: C_9  and  C_10
REMARK    6  A    between atoms: C_10  and  C_11
REMARK    7  A    between atoms: C_14  and  O_15
REMARK    8  A    between atoms: C_21  and  N_22
REMARK    9  A    between atoms: C_27  and  C_28
REMARK   10  A    between atoms: N_30  and  C_31
REMARK   11  A    between atoms: N_30  and  C_47
REMARK   12  A    between atoms: C_31  and  C_32
REMARK   13  A    between atoms: N_34  and  C_35
REMARK   14  A    between atoms: C_35  and  C_36
REMARK   15  A    between atoms: C_35  and  C_40
REMARK   16  A    between atoms: C_36  and  C_37
REMARK   17  A    between atoms: C_37  and  C_38
REMARK   18  A    between atoms: C_37  and  C_39
REMARK   19  A    between atoms: N_42  and  C_43
REMARK   20  A    between atoms: C_43  and  C_44
REMARK   21  A    between atoms: C_47  and  C_48
REMARK   22  A    between atoms: C_58  and  C_59
REMARK   23  A    between atoms: C_59  and  C_60
REMARK   24  A    between atoms: C_66  and  C_67
REMARK   25  A    between atoms: C_67  and  C_68
REMARK   26  A    between atoms: C_68  and  C_69
REMARK                            x       y       z     vdW  Elec       q    Type
REMARK                         _______ _______ _______ _____ _____    ______ ____
ROOT
ATOM      1  C   UNL     1      -5.830   3.306 134.063  0.00  0.00    +0.000 C 
ATOM      2  N   UNL     1      -5.504   1.696 135.486  0.00  0.00    +0.000 N 
ATOM      3  C   UNL     1      -5.075   0.131 136.818  0.00  0.00    +0.000 C 
ATOM      4  O   UNL     1      -5.829  -0.818 137.772  0.00  0.00    +0.000 OA
ATOM      5  C   UNL     1      -4.020  -1.698 136.803  0.00  0.00    +0.000 C 
ATOM      6  N   UNL     1      -4.131  -3.001 135.819  0.00  0.00    +0.000 N 
ATOM      7  C   UNL     1      -5.155  -3.088 134.947  0.00  0.00    +0.000 C 
ATOM      8  O   UNL     1      -5.232  -3.944 134.071  0.00  0.00    +0.000 OA
ATOM      9  C   UNL     1      -6.264  -2.062 134.917  0.00  0.00    +0.000 C 
ATOM     10  C   UNL     1      -6.084  -0.874 134.091  0.00  0.00    +0.000 C 
ATOM     11  S   UNL     1      -6.668  -2.014 133.077  0.00  0.00    +0.000 S 
ATOM     12  S   UNL     1      -6.387  -0.194 131.482  0.00  0.00    +0.000 S 
ATOM     13  C   UNL     1      -7.659  -0.899 129.401  0.00  0.00    +0.000 C 
ATOM     14  C   UNL     1      -7.515  -0.289 128.039  0.00  0.00    +0.000 C 
ATOM     15  N   UNL     1      -8.314   0.757 128.329  0.00  0.00    +0.000 N 
ATOM     16  C   UNL     1      -8.078   1.466 129.404  0.00  0.00    +0.000 C 
ATOM     17  O   UNL     1      -8.979   2.244 129.651  0.00  0.00    +0.000 OA
ATOM     18  C   UNL     1      -6.724   1.452 130.236  0.00  0.00    +0.000 C 
ATOM     19  N   UNL     1      -5.528   2.178 130.488  0.00  0.00    +0.000 N 
ATOM     20  C   UNL     1      -5.835   3.341 130.913  0.00  0.00    +0.000 C 
ATOM     21  O   UNL     1      -4.531   3.881 131.240  0.00  0.00    +0.000 OA
ATOM     22  C   UNL     1      -7.930   4.193 131.089  0.00  0.00    +0.000 C 
ATOM     23  N   UNL     1      -8.176   4.665 132.865  0.00  0.00    +0.000 N 
ATOM     24  C   UNL     1      -7.113   4.778 133.893  0.00  0.00    +0.000 C 
ATOM     25  O   UNL     1      -7.030   5.960 134.272  0.00  0.00    +0.000 OA
ATOM     26  H   UNL     1      -5.757   1.105 136.735  0.00  0.00    +0.000 HD
ATOM     27  H   UNL     1      -3.473  -3.847 135.694  0.00  0.00    +0.000 HD
ATOM     28  H   UNL     1      -9.158   0.799 127.823  0.00  0.00    +0.000 HD
ATOM     29  H   UNL     1      -4.664   2.247 129.969  0.00  0.00    +0.000 HD
ATOM     30  H   UNL     1      -8.471   3.878 133.400  0.00  0.00    +0.000 HD
ENDROOT
BRANCH   9  31
ATOM     31  N   UNL     1      -6.165  -1.152 135.857  0.00  0.00    +0.000 NA
ATOM     32  H   UNL     1      -6.526  -0.416 135.266  0.00  0.00    +0.000 HD
ATOM     33  H   UNL     1      -5.169  -0.920 135.831  0.00  0.00    +0.000 HD
ENDBRANCH   9  31
BRANCH  14  34
ATOM     34  C   UNL     1      -7.877  -1.293 126.845  0.00  0.00    +0.000 C 
ATOM     35  O   UNL     1      -7.959  -2.469 127.202  0.00  0.00    +0.000 OA
ATOM     36  N   UNL     1      -8.047  -0.874 125.466  0.00  0.00    +0.000 N 
BRANCH  36  37
ATOM     37  C   UNL     1      -7.871   0.547 124.859  0.00  0.00    +0.000 C 
BRANCH  37  38
ATOM     38  C   UNL     1      -6.682   1.394 125.344  0.00  0.00    +0.000 C 
ATOM     39  O   UNL     1      -5.548   1.018 125.113  0.00  0.00    +0.000 OA
ATOM     40  N   UNL     1      -6.696   2.710 125.647  0.00  0.00    +0.000 N 
ATOM     41  H   UNL     1      -7.539   3.156 125.906  0.00  0.00    +0.000 HD
BRANCH  40  42
ATOM     42  C   UNL     1      -5.540   3.626 125.449  0.00  0.00    +0.000 C 
BRANCH  42  43
ATOM     43  C   UNL     1      -5.358   4.625 126.543  0.00  0.00    +0.000 C 
ATOM     44  O   UNL     1      -6.385   4.932 127.139  0.00  0.00    +0.000 OA
ATOM     45  N   UNL     1      -4.120   5.200 126.787  0.00  0.00    +0.000 N 
ATOM     46  H   UNL     1      -3.302   4.993 126.233  0.00  0.00    +0.000 HD
BRANCH  45  47
ATOM     47  C   UNL     1      -3.959   6.107 127.909  0.00  0.00    +0.000 C 
BRANCH  47  48
ATOM     48  C   UNL     1      -2.724   5.825 128.774  0.00  0.00    +0.000 C 
ATOM     49  N   UNL     1      -2.607   4.562 129.326  0.00  0.00    +0.000 N 
ATOM     50  O   UNL     1      -1.849   6.672 128.944  0.00  0.00    +0.000 OA
ATOM     51  H   UNL     1      -3.206   3.773 129.152  0.00  0.00    +0.000 HD
ATOM     52  H   UNL     1      -1.764   4.331 129.842  0.00  0.00    +0.000 HD
ENDBRANCH  47  48
ENDBRANCH  45  47
ENDBRANCH  42  43
BRANCH  42  53
ATOM     53  C   UNL     1      -5.933   4.639 124.488  0.00  0.00    +0.000 C 
BRANCH  53  54
ATOM     54  C   UNL     1      -5.621   4.135 122.857  0.00  0.00    +0.000 C 
ATOM     55  C   UNL     1      -6.515   3.549 121.947  0.00  0.00    +0.000 C 
ATOM     56  C   UNL     1      -4.289   5.027 121.597  0.00  0.00    +0.000 C 
ENDBRANCH  53  54
ENDBRANCH  42  53
ENDBRANCH  40  42
ENDBRANCH  37  38
ENDBRANCH  36  37
BRANCH  36  57
ATOM     57  C   UNL     1      -8.350  -1.932 124.495  0.00  0.00    +0.000 C 
BRANCH  57  58
ATOM     58  C   UNL     1      -7.147  -2.757 124.110  0.00  0.00    +0.000 A 
ATOM     59  C   UNL     1      -6.065  -2.167 123.451  0.00  0.00    +0.000 A 
ATOM     60  C   UNL     1      -4.924  -2.897 123.155  0.00  0.00    +0.000 A 
ATOM     61  C   UNL     1      -4.858  -4.223 123.517  0.00  0.00    +0.000 A 
ATOM     62  F   UNL     1      -3.769  -4.933 123.218  0.00  0.00    +0.000 F 
ATOM     63  C   UNL     1      -5.909  -4.824 124.181  0.00  0.00    +0.000 A 
ATOM     64  C   UNL     1      -7.051  -4.093 124.477  0.00  0.00    +0.000 A 
ENDBRANCH  57  58
ENDBRANCH  36  57
ENDBRANCH  14  34
BRANCH   1  65
ATOM     65  C   UNL     1      -5.876   4.986 132.384  0.00  0.00    +0.000 C 
ATOM     66  C   UNL     1      -5.804   6.815 131.287  0.00  0.00    +0.000 C 
BRANCH  65  68
ATOM     67  C   UNL     1      -3.044   7.128 132.415  0.00  0.00    +0.000 C 
ATOM     68  C   UNL     1      -4.811   6.604 131.969  0.00  0.00    +0.000 C 
ENDBRANCH  65  68
ENDBRANCH   1  65
BRANCH  18  69
ATOM     69  C   UNL     1      -7.610   1.304 132.055  0.00  0.00    +0.000 C 
BRANCH  69  70
ATOM     70  C   UNL     1      -8.824   0.856 132.197  0.00  0.00    +0.000 C 
ATOM     71  N   UNL     1      -8.775   1.826 132.923  0.00  0.00    +0.000 N 
ATOM     72  O   UNL     1      -9.643   0.130 131.814  0.00  0.00    +0.000 OA
ATOM     73  H   UNL     1      -8.315   2.842 132.858  0.00  0.00    +0.000 HD
ATOM     74  H   UNL     1      -9.603   1.963 133.481  0.00  0.00    +0.000 HD
ENDBRANCH  69  70
ENDBRANCH  18  69
BRANCH   5  75
ATOM     75  C   UNL     1      -3.188  -0.706 136.323  0.00  0.00    +0.000 C 
BRANCH  75  76
ATOM     76  C   UNL     1      -1.985  -1.561 136.046  0.00  0.00    +0.000 A 
ATOM     77  C   UNL     1      -1.129  -2.147 137.027  0.00  0.00    +0.000 A 
ATOM     78  C   UNL     1      -0.006  -2.838 136.640  0.00  0.00    +0.000 A 
ATOM     79  C   UNL     1       0.287  -2.883 135.294  0.00  0.00    +0.000 A 
ATOM     80  C   UNL     1      -0.452  -2.156 134.374  0.00  0.00    +0.000 A 
ATOM     81  C   UNL     1      -1.551  -1.451 134.755  0.00  0.00    +0.000 A 
BRANCH  79  82
ATOM     82  O   UNL     1       1.298  -3.620 134.771  0.00  0.00    +0.000 OA
ATOM     83  H   UNL     1       1.857  -4.023 135.452  0.00  0.00    +0.000 HD
ENDBRANCH  79  82
ENDBRANCH  75  76
ENDBRANCH   5  75
BRANCH  22  84
ATOM     84  C   UNL     1      -8.818   5.075 130.306  0.00  0.00    +0.000 C 
BRANCH  84  85
ATOM     85  C   UNL     1     -10.193   4.650 130.600  0.00  0.00    +0.000 C 
BRANCH  85  86
ATOM     86  C   UNL     1     -11.308   5.472 130.381  0.00  0.00    +0.000 C 
ATOM     87  N   UNL     1     -11.685   5.893 131.585  0.00  0.00    +0.000 N 
ATOM     88  O   UNL     1     -11.723   5.746 129.272  0.00  0.00    +0.000 OA
ATOM     89  H   UNL     1     -11.257   5.589 132.452  0.00  0.00    +0.000 HD
ATOM     90  H   UNL     1     -12.412   6.550 131.578  0.00  0.00    +0.000 HD
ENDBRANCH  85  86
ENDBRANCH  84  85
ENDBRANCH  22  84
TORSDOF 22
ENDMDL
MODEL 2
REMARK VINA RESULT:     -10.8      3.322      8.190
REMARK  Name = CHEMBL4474284
REMARK  26 active torsions:
REMARK  status: ('A' for Active; 'I' for Inactive)
REMARK    1  A    between atoms: C_1  and  C_2
REMARK    2  A    between atoms: C_2  and  C_3
REMARK    3  A    between atoms: C_3  and  C_4
REMARK    4  A    between atoms: C_3  and  C_5
REMARK    5  A    between atoms: C_9  and  C_10
REMARK    6  A    between atoms: C_10  and  C_11
REMARK    7  A    between atoms: C_14  and  O_15
REMARK    8  A    between atoms: C_21  and  N_22
REMARK    9  A    between atoms: C_27  and  C_28
REMARK   10  A    between atoms: N_30  and  C_31
REMARK   11  A    between atoms: N_30  and  C_47
REMARK   12  A    between atoms: C_31  and  C_32
REMARK   13  A    between atoms: N_34  and  C_35
REMARK   14  A    between atoms: C_35  and  C_36
REMARK   15  A    between atoms: C_35  and  C_40
REMARK   16  A    between atoms: C_36  and  C_37
REMARK   17  A    between atoms: C_37  and  C_38
REMARK   18  A    between atoms: C_37  and  C_39
REMARK   19  A    between atoms: N_42  and  C_43
REMARK   20  A    between atoms: C_43  and  C_44
REMARK   21  A    between atoms: C_47  and  C_48
REMARK   22  A    between atoms: C_58  and  C_59
REMARK   23  A    between atoms: C_59  and  C_60
REMARK   24  A    between atoms: C_66  and  C_67
REMARK   25  A    between atoms: C_67  and  C_68
REMARK   26  A    between atoms: C_68  and  C_69
REMARK                            x       y       z     vdW  Elec       q    Type
REMARK                         _______ _______ _______ _____ _____    ______ ____
ROOT
ATOM      1  C   UNL     1      -5.487  -2.595 128.306  0.00  0.00    +0.000 C 
ATOM      2  N   UNL     1      -4.563  -3.109 130.205  0.00  0.00    +0.000 N 
ATOM      3  C   UNL     1      -3.773  -3.667 132.068  0.00  0.00    +0.000 C 
ATOM      4  O   UNL     1      -2.581  -3.303 132.978  0.00  0.00    +0.000 OA
ATOM      5  C   UNL     1      -4.447  -3.887 134.057  0.00  0.00    +0.000 C 
ATOM      6  N   UNL     1      -5.211  -2.843 135.060  0.00  0.00    +0.000 N 
ATOM      7  C   UNL     1      -5.320  -1.547 134.708  0.00  0.00    +0.000 C 
ATOM      8  O   UNL     1      -6.007  -0.732 135.319  0.00  0.00    +0.000 OA
ATOM      9  C   UNL     1      -4.672  -1.003 133.457  0.00  0.00    +0.000 C 
ATOM     10  C   UNL     1      -5.418  -1.071 132.206  0.00  0.00    +0.000 C 
ATOM     11  S   UNL     1      -5.925   0.301 132.931  0.00  0.00    +0.000 S 
ATOM     12  S   UNL     1      -7.338   0.374 130.948  0.00  0.00    +0.000 S 
ATOM     13  C   UNL     1      -8.297   2.723 130.870  0.00  0.00    +0.000 C 
ATOM     14  C   UNL     1      -9.471   3.162 130.047  0.00  0.00    +0.000 C 
ATOM     15  N   UNL     1      -8.743   3.284 128.920  0.00  0.00    +0.000 N 
ATOM     16  C   UNL     1      -7.993   2.285 128.529  0.00  0.00    +0.000 C 
ATOM     17  O   UNL     1      -7.246   2.596 127.620  0.00  0.00    +0.000 OA
ATOM     18  C   UNL     1      -8.111   0.788 129.049  0.00  0.00    +0.000 C 
ATOM     19  N   UNL     1      -8.589  -0.507 128.709  0.00  0.00    +0.000 N 
ATOM     20  C   UNL     1      -8.036  -0.876 127.620  0.00  0.00    +0.000 C 
ATOM     21  O   UNL     1      -8.521  -2.236 127.499  0.00  0.00    +0.000 OA
ATOM     22  C   UNL     1      -6.647   0.371 126.333  0.00  0.00    +0.000 C 
ATOM     23  N   UNL     1      -5.052  -0.563 126.192  0.00  0.00    +0.000 N 
ATOM     24  C   UNL     1      -4.839  -1.985 126.560  0.00  0.00    +0.000 C 
ATOM     25  O   UNL     1      -4.551  -2.636 125.541  0.00  0.00    +0.000 OA
ATOM     26  H   UNL     1      -3.417  -3.409 130.960  0.00  0.00    +0.000 HD
ATOM     27  H   UNL     1      -5.718  -3.011 135.997  0.00  0.00    +0.000 HD
ATOM     28  H   UNL     1      -8.658   4.200 128.567  0.00  0.00    +0.000 HD
ATOM     29  H   UNL     1      -9.514  -0.912 128.750  0.00  0.00    +0.000 HD
ATOM     30  H   UNL     1      -4.465  -0.376 126.974  0.00  0.00    +0.000 HD
ENDROOT
BRANCH   9  31
ATOM     31  N   UNL     1      -3.945  -1.887 132.814  0.00  0.00    +0.000 NA
ATOM     32  H   UNL     1      -3.592  -1.206 132.155  0.00  0.00    +0.000 HD
ATOM     33  H   UNL     1      -4.641  -2.352 132.225  0.00  0.00    +0.000 HD
ENDBRANCH   9  31
BRANCH  14  34
ATOM     34  C   UNL     1     -10.252   4.419 130.661  0.00  0.00    +0.000 C 
ATOM     35  O   UNL     1     -11.437   4.467 130.330  0.00  0.00    +0.000 OA
ATOM     36  N   UNL     1      -9.622   5.429 131.490  0.00  0.00    +0.000 N 
BRANCH  36  37
ATOM     37  C   UNL     1      -8.126   5.551 131.898  0.00  0.00    +0.000 C 
BRANCH  37  38
ATOM     38  C   UNL     1      -7.145   6.140 130.870  0.00  0.00    +0.000 C 
ATOM     39  O   UNL     1      -7.116   7.344 130.696  0.00  0.00    +0.000 OA
ATOM     40  N   UNL     1      -6.017   5.562 130.404  0.00  0.00    +0.000 N 
ATOM     41  H   UNL     1      -5.910   4.579 130.429  0.00  0.00    +0.000 HD
BRANCH  40  42
ATOM     42  C   UNL     1      -4.798   6.313 129.999  0.00  0.00    +0.000 C 
BRANCH  42  43
ATOM     43  C   UNL     1      -4.159   5.810 128.749  0.00  0.00    +0.000 C 
ATOM     44  O   UNL     1      -4.294   6.537 127.770  0.00  0.00    +0.000 OA
ATOM     45  N   UNL     1      -3.532   4.573 128.713  0.00  0.00    +0.000 N 
ATOM     46  H   UNL     1      -3.500   3.954 129.510  0.00  0.00    +0.000 HD
BRANCH  45  47
ATOM     47  C   UNL     1      -2.850   4.148 127.505  0.00  0.00    +0.000 C 
BRANCH  47  48
ATOM     48  C   UNL     1      -3.711   3.300 126.560  0.00  0.00    +0.000 C 
ATOM     49  N   UNL     1      -4.684   3.955 125.826  0.00  0.00    +0.000 N 
ATOM     50  O   UNL     1      -3.527   2.092 126.430  0.00  0.00    +0.000 OA
ATOM     51  H   UNL     1      -4.834   4.948 125.777  0.00  0.00    +0.000 HD
ATOM     52  H   UNL     1      -5.217   3.426 125.143  0.00  0.00    +0.000 HD
ENDBRANCH  47  48
ENDBRANCH  45  47
ENDBRANCH  42  43
BRANCH  42  53
ATOM     53  C   UNL     1      -3.700   5.862 130.832  0.00  0.00    +0.000 C 
BRANCH  53  54
ATOM     54  C   UNL     1      -3.542   6.824 132.268  0.00  0.00    +0.000 C 
ATOM     55  C   UNL     1      -3.486   6.386 133.600  0.00  0.00    +0.000 C 
ATOM     56  C   UNL     1      -2.530   8.591 132.381  0.00  0.00    +0.000 C 
ENDBRANCH  53  54
ENDBRANCH  42  53
ENDBRANCH  40  42
ENDBRANCH  37  38
ENDBRANCH  36  37
BRANCH  36  57
ATOM     57  C   UNL     1     -10.482   6.529 131.946  0.00  0.00    +0.000 C 
BRANCH  57  58
ATOM     58  C   UNL     1     -11.175   7.256 130.820  0.00  0.00    +0.000 A 
ATOM     59  C   UNL     1     -12.522   7.614 130.931  0.00  0.00    +0.000 A 
ATOM     60  C   UNL     1     -13.151   8.344 129.935  0.00  0.00    +0.000 A 
ATOM     61  C   UNL     1     -12.437   8.722 128.821  0.00  0.00    +0.000 A 
ATOM     62  F   UNL     1     -13.045   9.409 127.852  0.00  0.00    +0.000 F 
ATOM     63  C   UNL     1     -11.103   8.391 128.695  0.00  0.00    +0.000 A 
ATOM     64  C   UNL     1     -10.472   7.661 129.692  0.00  0.00    +0.000 A 
ENDBRANCH  57  58
ENDBRANCH  36  57
ENDBRANCH  14  34
BRANCH   1  65
ATOM     65  C   UNL     1      -6.780  -2.180 126.357  0.00  0.00    +0.000 C 
ATOM     66  C   UNL     1      -7.621  -2.177 124.396  0.00  0.00    +0.000 C 
BRANCH  65  68
ATOM     67  C   UNL     1      -7.840  -5.152 124.728  0.00  0.00    +0.000 C 
ATOM     68  C   UNL     1      -7.554  -3.285 124.907  0.00  0.00    +0.000 C 
ENDBRANCH  65  68
ENDBRANCH   1  65
BRANCH  18  69
ATOM     69  C   UNL     1      -6.121   0.523 129.346  0.00  0.00    +0.000 C 
BRANCH  69  70
ATOM     70  C   UNL     1      -5.317   1.523 129.564  0.00  0.00    +0.000 C 
ATOM     71  N   UNL     1      -4.608   0.668 129.076  0.00  0.00    +0.000 N 
ATOM     72  O   UNL     1      -5.213   2.641 129.853  0.00  0.00    +0.000 OA
ATOM     73  H   UNL     1      -4.722  -0.085 128.259  0.00  0.00    +0.000 HD
ATOM     74  H   UNL     1      -3.630   0.907 129.060  0.00  0.00    +0.000 HD
ENDBRANCH  69  70
ENDBRANCH  18  69
BRANCH   5  75
ATOM     75  C   UNL     1      -5.299  -4.585 133.224  0.00  0.00    +0.000 C 
BRANCH  75  76
ATOM     76  C   UNL     1      -6.429  -4.773 134.194  0.00  0.00    +0.000 A 
ATOM     77  C   UNL     1      -6.565  -5.846 135.126  0.00  0.00    +0.000 A 
ATOM     78  C   UNL     1      -7.696  -5.950 135.901  0.00  0.00    +0.000 A 
ATOM     79  C   UNL     1      -8.700  -5.028 135.696  0.00  0.00    +0.000 A 
ATOM     80  C   UNL     1      -8.628  -4.106 134.664  0.00  0.00    +0.000 A 
ATOM     81  C   UNL     1      -7.521  -4.015 133.879  0.00  0.00    +0.000 A 
BRANCH  79  82
ATOM     82  O   UNL     1      -9.814  -4.952 136.465  0.00  0.00    +0.000 OA
ATOM     83  H   UNL     1     -10.318  -4.139 136.312  0.00  0.00    +0.000 HD
ENDBRANCH  79  82
ENDBRANCH  75  76
ENDBRANCH   5  75
BRANCH  22  84
ATOM     84  C   UNL     1      -6.741   1.203 125.116  0.00  0.00    +0.000 C 
BRANCH  84  85
ATOM     85  C   UNL     1      -8.173   1.376 124.839  0.00  0.00    +0.000 C 
BRANCH  85  86
ATOM     86  C   UNL     1      -8.712   2.567 124.329  0.00  0.00    +0.000 C 
ATOM     87  N   UNL     1      -8.998   2.315 123.055  0.00  0.00    +0.000 N 
ATOM     88  O   UNL     1      -8.909   3.551 125.014  0.00  0.00    +0.000 OA
ATOM     89  H   UNL     1      -8.781   1.443 122.587  0.00  0.00    +0.000 HD
ATOM     90  H   UNL     1      -9.464   3.042 122.591  0.00  0.00    +0.000 HD
ENDBRANCH  85  86
ENDBRANCH  84  85
ENDBRANCH  22  84
TORSDOF 22
ENDMDL
MODEL 3
REMARK VINA RESULT:     -10.8      1.830      2.942
REMARK  Name = CHEMBL4474284
REMARK  26 active torsions:
REMARK  status: ('A' for Active; 'I' for Inactive)
REMARK    1  A    between atoms: C_1  and  C_2
REMARK    2  A    between atoms: C_2  and  C_3
REMARK    3  A    between atoms: C_3  and  C_4
REMARK    4  A    between atoms: C_3  and  C_5
REMARK    5  A    between atoms: C_9  and  C_10
REMARK    6  A    between atoms: C_10  and  C_11
REMARK    7  A    between atoms: C_14  and  O_15
REMARK    8  A    between atoms: C_21  and  N_22
REMARK    9  A    between atoms: C_27  and  C_28
REMARK   10  A    between atoms: N_30  and  C_31
REMARK   11  A    between atoms: N_30  and  C_47
REMARK   12  A    between atoms: C_31  and  C_32
REMARK   13  A    between atoms: N_34  and  C_35
REMARK   14  A    between atoms: C_35  and  C_36
REMARK   15  A    between atoms: C_35  and  C_40
REMARK   16  A    between atoms: C_36  and  C_37
REMARK   17  A    between atoms: C_37  and  C_38
REMARK   18  A    between atoms: C_37  and  C_39
REMARK   19  A    between atoms: N_42  and  C_43
REMARK   20  A    between atoms: C_43  and  C_44
REMARK   21  A    between atoms: C_47  and  C_48
REMARK   22  A    between atoms: C_58  and  C_59
REMARK   23  A    between atoms: C_59  and  C_60
REMARK   24  A    between atoms: C_66  and  C_67
REMARK   25  A    between atoms: C_67  and  C_68
REMARK   26  A    between atoms: C_68  and  C_69
REMARK                            x       y       z     vdW  Elec       q    Type
REMARK                         _______ _______ _______ _____ _____    ______ ____
ROOT
ATOM      1  C   UNL     1      -5.613   3.336 134.007  0.00  0.00    +0.000 C 
ATOM      2  N   UNL     1      -5.365   1.774 135.497  0.00  0.00    +0.000 N 
ATOM      3  C   UNL     1      -5.011   0.250 136.897  0.00  0.00    +0.000 C 
ATOM      4  O   UNL     1      -5.812  -0.635 137.874  0.00  0.00    +0.000 OA
ATOM      5  C   UNL     1      -4.016  -1.611 136.973  0.00  0.00    +0.000 C 
ATOM      6  N   UNL     1      -4.153  -2.948 136.040  0.00  0.00    +0.000 N 
ATOM      7  C   UNL     1      -5.165  -3.036 135.153  0.00  0.00    +0.000 C 
ATOM      8  O   UNL     1      -5.255  -3.923 134.310  0.00  0.00    +0.000 OA
ATOM      9  C   UNL     1      -6.238  -1.977 135.062  0.00  0.00    +0.000 C 
ATOM     10  C   UNL     1      -6.006  -0.829 134.193  0.00  0.00    +0.000 C 
ATOM     11  S   UNL     1      -6.609  -1.989 133.215  0.00  0.00    +0.000 S 
ATOM     12  S   UNL     1      -6.241  -0.245 131.555  0.00  0.00    +0.000 S 
ATOM     13  C   UNL     1      -7.500  -0.990 129.480  0.00  0.00    +0.000 C 
ATOM     14  C   UNL     1      -7.313  -0.440 128.098  0.00  0.00    +0.000 C 
ATOM     15  N   UNL     1      -8.082   0.642 128.332  0.00  0.00    +0.000 N 
ATOM     16  C   UNL     1      -7.840   1.385 129.383  0.00  0.00    +0.000 C 
ATOM     17  O   UNL     1      -8.720   2.202 129.583  0.00  0.00    +0.000 OA
ATOM     18  C   UNL     1      -6.502   1.360 130.239  0.00  0.00    +0.000 C 
ATOM     19  N   UNL     1      -5.287   2.058 130.485  0.00  0.00    +0.000 N 
ATOM     20  C   UNL     1      -5.563   3.246 130.858  0.00  0.00    +0.000 C 
ATOM     21  O   UNL     1      -4.248   3.756 131.187  0.00  0.00    +0.000 OA
ATOM     22  C   UNL     1      -7.631   4.171 130.961  0.00  0.00    +0.000 C 
ATOM     23  N   UNL     1      -7.892   4.722 132.713  0.00  0.00    +0.000 N 
ATOM     24  C   UNL     1      -6.843   4.841 133.755  0.00  0.00    +0.000 C 
ATOM     25  O   UNL     1      -6.728   6.033 134.089  0.00  0.00    +0.000 OA
ATOM     26  H   UNL     1      -5.658   1.242 136.764  0.00  0.00    +0.000 HD
ATOM     27  H   UNL     1      -3.522  -3.819 135.960  0.00  0.00    +0.000 HD
ATOM     28  H   UNL     1      -8.915   0.691 127.810  0.00  0.00    +0.000 HD
ATOM     29  H   UNL     1      -4.412   2.077 129.979  0.00  0.00    +0.000 HD
ATOM     30  H   UNL     1      -8.221   3.967 133.273  0.00  0.00    +0.000 HD
ENDROOT
BRANCH   9  31
ATOM     31  N   UNL     1      -6.126  -1.034 135.967  0.00  0.00    +0.000 NA
ATOM     32  H   UNL     1      -6.185  -0.289 135.286  0.00  0.00    +0.000 HD
ATOM     33  H   UNL     1      -5.118  -1.024 136.146  0.00  0.00    +0.000 HD
ENDBRANCH   9  31
BRANCH  14  34
ATOM     34  C   UNL     1      -7.687  -1.479 126.938  0.00  0.00    +0.000 C 
ATOM     35  O   UNL     1      -8.202  -2.515 127.357  0.00  0.00    +0.000 OA
ATOM     36  N   UNL     1      -7.408  -1.248 125.533  0.00  0.00    +0.000 N 
BRANCH  36  37
ATOM     37  C   UNL     1      -6.675  -0.043 124.877  0.00  0.00    +0.000 C 
BRANCH  37  38
ATOM     38  C   UNL     1      -7.535   1.074 124.262  0.00  0.00    +0.000 C 
ATOM     39  O   UNL     1      -8.325   1.675 124.966  0.00  0.00    +0.000 OA
ATOM     40  N   UNL     1      -7.269   1.774 123.137  0.00  0.00    +0.000 N 
ATOM     41  H   UNL     1      -6.680   1.396 122.440  0.00  0.00    +0.000 HD
BRANCH  40  42
ATOM     42  C   UNL     1      -7.661   3.193 122.924  0.00  0.00    +0.000 C 
BRANCH  42  43
ATOM     43  C   UNL     1      -7.688   3.611 121.492  0.00  0.00    +0.000 C 
ATOM     44  O   UNL     1      -8.792   3.566 120.960  0.00  0.00    +0.000 OA
ATOM     45  N   UNL     1      -6.520   3.944 120.822  0.00  0.00    +0.000 N 
ATOM     46  H   UNL     1      -5.609   3.898 121.255  0.00  0.00    +0.000 HD
BRANCH  45  47
ATOM     47  C   UNL     1      -6.588   4.423 119.453  0.00  0.00    +0.000 C 
BRANCH  47  48
ATOM     48  C   UNL     1      -5.686   5.629 119.163  0.00  0.00    +0.000 C 
ATOM     49  N   UNL     1      -5.735   6.169 117.891  0.00  0.00    +0.000 N 
ATOM     50  O   UNL     1      -4.971   6.123 120.032  0.00  0.00    +0.000 OA
ATOM     51  H   UNL     1      -6.366   5.910 117.152  0.00  0.00    +0.000 HD
ATOM     52  H   UNL     1      -5.200   7.010 117.697  0.00  0.00    +0.000 HD
ENDBRANCH  47  48
ENDBRANCH  45  47
ENDBRANCH  42  43
BRANCH  42  53
ATOM     53  C   UNL     1      -6.509   4.023 123.222  0.00  0.00    +0.000 C 
BRANCH  53  54
ATOM     54  C   UNL     1      -6.505   4.549 124.876  0.00  0.00    +0.000 C 
ATOM     55  C   UNL     1      -5.524   5.301 125.541  0.00  0.00    +0.000 C 
ATOM     56  C   UNL     1      -8.172   5.017 125.954  0.00  0.00    +0.000 C 
ENDBRANCH  53  54
ENDBRANCH  42  53
ENDBRANCH  40  42
ENDBRANCH  37  38
ENDBRANCH  36  37
BRANCH  36  57
ATOM     57  C   UNL     1      -7.795  -2.319 124.606  0.00  0.00    +0.000 C 
BRANCH  57  58
ATOM     58  C   UNL     1      -6.636  -3.180 124.166  0.00  0.00    +0.000 A 
ATOM     59  C   UNL     1      -5.542  -2.611 123.507  0.00  0.00    +0.000 A 
ATOM     60  C   UNL     1      -4.440  -3.377 123.161  0.00  0.00    +0.000 A 
ATOM     61  C   UNL     1      -4.425  -4.718 123.470  0.00  0.00    +0.000 A 
ATOM     62  F   UNL     1      -3.373  -5.461 123.121  0.00  0.00    +0.000 F 
ATOM     63  C   UNL     1      -5.488  -5.299 124.132  0.00  0.00    +0.000 A 
ATOM     64  C   UNL     1      -6.591  -4.532 124.480  0.00  0.00    +0.000 A 
ENDBRANCH  57  58
ENDBRANCH  36  57
ENDBRANCH  14  34
BRANCH   1  65
ATOM     65  C   UNL     1      -5.575   4.949 132.263  0.00  0.00    +0.000 C 
ATOM     66  C   UNL     1      -5.465   6.735 131.100  0.00  0.00    +0.000 C 
BRANCH  65  68
ATOM     67  C   UNL     1      -2.664   6.959 131.947  0.00  0.00    +0.000 C 
ATOM     68  C   UNL     1      -4.520   6.576 131.860  0.00  0.00    +0.000 C 
ENDBRANCH  65  68
ENDBRANCH   1  65
BRANCH  18  69
ATOM     69  C   UNL     1      -7.424   1.314 132.047  0.00  0.00    +0.000 C 
BRANCH  69  70
ATOM     70  C   UNL     1      -8.649   0.896 132.186  0.00  0.00    +0.000 C 
ATOM     71  N   UNL     1      -8.577   1.865 132.912  0.00  0.00    +0.000 N 
ATOM     72  O   UNL     1      -9.484   0.190 131.801  0.00  0.00    +0.000 OA
ATOM     73  H   UNL     1      -8.092   2.869 132.849  0.00  0.00    +0.000 HD
ATOM     74  H   UNL     1      -9.402   2.021 133.469  0.00  0.00    +0.000 HD
ENDBRANCH  69  70
ENDBRANCH  18  69
BRANCH   5  75
ATOM     75  C   UNL     1      -3.144  -0.666 136.471  0.00  0.00    +0.000 C 
BRANCH  75  76
ATOM     76  C   UNL     1      -1.985  -1.580 136.195  0.00  0.00    +0.000 A 
ATOM     77  C   UNL     1      -1.182  -2.235 137.178  0.00  0.00    +0.000 A 
ATOM     78  C   UNL     1      -0.091  -2.979 136.795  0.00  0.00    +0.000 A 
ATOM     79  C   UNL     1       0.224  -3.011 135.453  0.00  0.00    +0.000 A 
ATOM     80  C   UNL     1      -0.456  -2.224 134.537  0.00  0.00    +0.000 A 
ATOM     81  C   UNL     1      -1.521  -1.467 134.915  0.00  0.00    +0.000 A 
BRANCH  79  82
ATOM     82  O   UNL     1       1.203  -3.791 134.932  0.00  0.00    +0.000 OA
ATOM     83  H   UNL     1       0.903  -4.305 134.168  0.00  0.00    +0.000 HD
ENDBRANCH  79  82
ENDBRANCH  75  76
ENDBRANCH   5  75
BRANCH  22  84
ATOM     84  C   UNL     1      -8.476   5.050 130.128  0.00  0.00    +0.000 C 
BRANCH  84  85
ATOM     85  C   UNL     1      -9.757   5.187 130.834  0.00  0.00    +0.000 C 
BRANCH  85  86
ATOM     86  C   UNL     1     -10.973   4.732 130.301  0.00  0.00    +0.000 C 
ATOM     87  N   UNL     1     -11.071   3.458 130.670  0.00  0.00    +0.000 N 
ATOM     88  O   UNL     1     -11.747   5.454 129.705  0.00  0.00    +0.000 OA
ATOM     89  H   UNL     1     -10.349   2.956 131.172  0.00  0.00    +0.000 HD
ATOM     90  H   UNL     1     -11.922   3.031 130.435  0.00  0.00    +0.000 HD
ENDBRANCH  85  86
ENDBRANCH  84  85
ENDBRANCH  22  84
TORSDOF 22
ENDMDL
MODEL 4
REMARK VINA RESULT:     -10.7      1.822      3.106
REMARK  Name = CHEMBL4474284
REMARK  26 active torsions:
REMARK  status: ('A' for Active; 'I' for Inactive)
REMARK    1  A    between atoms: C_1  and  C_2
REMARK    2  A    between atoms: C_2  and  C_3
REMARK    3  A    between atoms: C_3  and  C_4
REMARK    4  A    between atoms: C_3  and  C_5
REMARK    5  A    between atoms: C_9  and  C_10
REMARK    6  A    between atoms: C_10  and  C_11
REMARK    7  A    between atoms: C_14  and  O_15
REMARK    8  A    between atoms: C_21  and  N_22
REMARK    9  A    between atoms: C_27  and  C_28
REMARK   10  A    between atoms: N_30  and  C_31
REMARK   11  A    between atoms: N_30  and  C_47
REMARK   12  A    between atoms: C_31  and  C_32
REMARK   13  A    between atoms: N_34  and  C_35
REMARK   14  A    between atoms: C_35  and  C_36
REMARK   15  A    between atoms: C_35  and  C_40
REMARK   16  A    between atoms: C_36  and  C_37
REMARK   17  A    between atoms: C_37  and  C_38
REMARK   18  A    between atoms: C_37  and  C_39
REMARK   19  A    between atoms: N_42  and  C_43
REMARK   20  A    between atoms: C_43  and  C_44
REMARK   21  A    between atoms: C_47  and  C_48
REMARK   22  A    between atoms: C_58  and  C_59
REMARK   23  A    between atoms: C_59  and  C_60
REMARK   24  A    between atoms: C_66  and  C_67
REMARK   25  A    between atoms: C_67  and  C_68
REMARK   26  A    between atoms: C_68  and  C_69
REMARK                            x       y       z     vdW  Elec       q    Type
REMARK                         _______ _______ _______ _____ _____    ______ ____
ROOT
ATOM      1  C   UNL     1      -4.267   3.777 134.486  0.00  0.00    +0.000 C 
ATOM      2  N   UNL     1      -4.232   2.177 135.956  0.00  0.00    +0.000 N 
ATOM      3  C   UNL     1      -4.093   0.593 137.326  0.00  0.00    +0.000 C 
ATOM      4  O   UNL     1      -4.982  -0.122 138.365  0.00  0.00    +0.000 OA
ATOM      5  C   UNL     1      -3.501  -1.433 137.328  0.00  0.00    +0.000 C 
ATOM      6  N   UNL     1      -3.983  -2.700 136.411  0.00  0.00    +0.000 N 
ATOM      7  C   UNL     1      -5.056  -2.566 135.607  0.00  0.00    +0.000 C 
ATOM      8  O   UNL     1      -5.391  -3.404 134.774  0.00  0.00    +0.000 OA
ATOM      9  C   UNL     1      -5.891  -1.307 135.598  0.00  0.00    +0.000 C 
ATOM     10  C   UNL     1      -5.495  -0.220 134.711  0.00  0.00    +0.000 C 
ATOM     11  S   UNL     1      -6.398  -1.217 133.785  0.00  0.00    +0.000 S 
ATOM     12  S   UNL     1      -5.807   0.438 132.098  0.00  0.00    +0.000 S 
ATOM     13  C   UNL     1      -7.349  -0.003 130.130  0.00  0.00    +0.000 C 
ATOM     14  C   UNL     1      -7.159   0.516 128.736  0.00  0.00    +0.000 C 
ATOM     15  N   UNL     1      -7.668   1.730 129.028  0.00  0.00    +0.000 N 
ATOM     16  C   UNL     1      -7.198   2.393 130.055  0.00  0.00    +0.000 C 
ATOM     17  O   UNL     1      -7.872   3.370 130.321  0.00  0.00    +0.000 OA
ATOM     18  C   UNL     1      -5.832   2.081 130.804  0.00  0.00    +0.000 C 
ATOM     19  N   UNL     1      -4.484   2.510 130.952  0.00  0.00    +0.000 N 
ATOM     20  C   UNL     1      -4.480   3.724 131.343  0.00  0.00    +0.000 C 
ATOM     21  O   UNL     1      -3.066   3.948 131.568  0.00  0.00    +0.000 OA
ATOM     22  C   UNL     1      -6.298   5.053 131.607  0.00  0.00    +0.000 C 
ATOM     23  N   UNL     1      -6.304   5.621 133.372  0.00  0.00    +0.000 N 
ATOM     24  C   UNL     1      -5.176   5.507 134.329  0.00  0.00    +0.000 C 
ATOM     25  O   UNL     1      -4.792   6.645 134.650  0.00  0.00    +0.000 OA
ATOM     26  H   UNL     1      -4.530   1.699 137.242  0.00  0.00    +0.000 HD
ATOM     27  H   UNL     1      -3.553  -3.681 136.284  0.00  0.00    +0.000 HD
ATOM     28  H   UNL     1      -8.511   1.957 128.572  0.00  0.00    +0.000 HD
ATOM     29  H   UNL     1      -3.666   2.356 130.379  0.00  0.00    +0.000 HD
ATOM     30  H   UNL     1      -6.738   4.942 133.958  0.00  0.00    +0.000 HD
ENDROOT
BRANCH   9  31
ATOM     31  N   UNL     1      -5.518  -0.421 136.489  0.00  0.00    +0.000 NA
ATOM     32  H   UNL     1      -4.595  -0.821 136.589  0.00  0.00    +0.000 HD
ATOM     33  H   UNL     1      -5.953  -0.777 137.345  0.00  0.00    +0.000 HD
ENDBRANCH   9  31
BRANCH  14  34
ATOM     34  C   UNL     1      -7.828  -0.406 127.611  0.00  0.00    +0.000 C 
ATOM     35  O   UNL     1      -7.465  -1.582 127.663  0.00  0.00    +0.000 OA
ATOM     36  N   UNL     1      -8.737   0.094 126.597  0.00  0.00    +0.000 N 
BRANCH  36  37
ATOM     37  C   UNL     1      -9.196   1.559 126.348  0.00  0.00    +0.000 C 
BRANCH  37  38
ATOM     38  C   UNL     1      -8.330   2.439 125.430  0.00  0.00    +0.000 C 
ATOM     39  O   UNL     1      -8.825   3.418 124.903  0.00  0.00    +0.000 OA
ATOM     40  N   UNL     1      -6.982   2.523 125.426  0.00  0.00    +0.000 N 
ATOM     41  H   UNL     1      -6.433   1.781 125.777  0.00  0.00    +0.000 HD
BRANCH  40  42
ATOM     42  C   UNL     1      -6.223   3.757 125.087  0.00  0.00    +0.000 C 
BRANCH  42  43
ATOM     43  C   UNL     1      -5.976   3.940 123.627  0.00  0.00    +0.000 C 
ATOM     44  O   UNL     1      -5.376   4.967 123.328  0.00  0.00    +0.000 OA
ATOM     45  N   UNL     1      -6.468   3.034 122.700  0.00  0.00    +0.000 N 
ATOM     46  H   UNL     1      -7.028   2.235 122.960  0.00  0.00    +0.000 HD
BRANCH  45  47
ATOM     47  C   UNL     1      -6.142   3.196 121.294  0.00  0.00    +0.000 C 
BRANCH  47  48
ATOM     48  C   UNL     1      -7.240   3.877 120.468  0.00  0.00    +0.000 C 
ATOM     49  N   UNL     1      -8.523   3.873 120.986  0.00  0.00    +0.000 N 
ATOM     50  O   UNL     1      -6.992   4.439 119.404  0.00  0.00    +0.000 OA
ATOM     51  H   UNL     1      -8.803   3.543 121.894  0.00  0.00    +0.000 HD
ATOM     52  H   UNL     1      -9.251   4.378 120.492  0.00  0.00    +0.000 HD
ENDBRANCH  47  48
ENDBRANCH  45  47
ENDBRANCH  42  43
BRANCH  42  53
ATOM     53  C   UNL     1      -4.822   3.510 125.370  0.00  0.00    +0.000 C 
BRANCH  53  54
ATOM     54  C   UNL     1      -4.298   4.336 126.804  0.00  0.00    +0.000 C 
ATOM     55  C   UNL     1      -5.059   4.674 127.933  0.00  0.00    +0.000 C 
ATOM     56  C   UNL     1      -2.425   4.211 127.601  0.00  0.00    +0.000 C 
ENDBRANCH  53  54
ENDBRANCH  42  53
ENDBRANCH  40  42
ENDBRANCH  37  38
ENDBRANCH  36  37
BRANCH  36  57
ATOM     57  C   UNL     1      -9.235  -0.887 125.625  0.00  0.00    +0.000 C 
BRANCH  57  58
ATOM     58  C   UNL     1      -8.176  -1.376 124.669  0.00  0.00    +0.000 A 
ATOM     59  C   UNL     1      -7.609  -0.506 123.733  0.00  0.00    +0.000 A 
ATOM     60  C   UNL     1      -6.586  -0.923 122.897  0.00  0.00    +0.000 A 
ATOM     61  C   UNL     1      -6.122  -2.215 122.991  0.00  0.00    +0.000 A 
ATOM     62  F   UNL     1      -5.150  -2.626 122.174  0.00  0.00    +0.000 F 
ATOM     63  C   UNL     1      -6.657  -3.090 123.915  0.00  0.00    +0.000 A 
ATOM     64  C   UNL     1      -7.681  -2.671 124.753  0.00  0.00    +0.000 A 
ENDBRANCH  57  58
ENDBRANCH  36  57
ENDBRANCH  14  34
BRANCH   1  65
ATOM     65  C   UNL     1      -4.032   5.372 132.741  0.00  0.00    +0.000 C 
ATOM     66  C   UNL     1      -3.602   7.098 131.561  0.00  0.00    +0.000 C 
BRANCH  65  68
ATOM     67  C   UNL     1      -0.749   6.662 132.320  0.00  0.00    +0.000 C 
ATOM     68  C   UNL     1      -2.642   6.669 132.184  0.00  0.00    +0.000 C 
ENDBRANCH  65  68
ENDBRANCH   1  65
BRANCH  18  69
ATOM     69  C   UNL     1      -6.601   2.200 132.678  0.00  0.00    +0.000 C 
BRANCH  69  70
ATOM     70  C   UNL     1      -7.875   2.061 132.911  0.00  0.00    +0.000 C 
ATOM     71  N   UNL     1      -7.463   2.695 133.859  0.00  0.00    +0.000 N 
ATOM     72  O   UNL     1      -8.908   1.738 132.498  0.00  0.00    +0.000 OA
ATOM     73  H   UNL     1      -6.723   3.520 134.000  0.00  0.00    +0.000 HD
ATOM     74  H   UNL     1      -8.151   2.851 134.578  0.00  0.00    +0.000 HD
ENDBRANCH  69  70
ENDBRANCH  18  69
BRANCH   5  75
ATOM     75  C   UNL     1      -2.494  -0.682 136.757  0.00  0.00    +0.000 C 
BRANCH  75  76
ATOM     76  C   UNL     1      -1.551  -1.806 136.440  0.00  0.00    +0.000 A 
ATOM     77  C   UNL     1      -0.869  -2.622 137.393  0.00  0.00    +0.000 A 
ATOM     78  C   UNL     1       0.039  -3.564 136.972  0.00  0.00    +0.000 A 
ATOM     79  C   UNL     1       0.304  -3.640 135.621  0.00  0.00    +0.000 A 
ATOM     80  C   UNL     1      -0.228  -2.719 134.733  0.00  0.00    +0.000 A 
ATOM     81  C   UNL     1      -1.108  -1.770 135.147  0.00  0.00    +0.000 A 
BRANCH  79  82
ATOM     82  O   UNL     1       1.092  -4.593 135.065  0.00  0.00    +0.000 OA
ATOM     83  H   UNL     1       1.243  -4.448 134.119  0.00  0.00    +0.000 HD
ENDBRANCH  79  82
ENDBRANCH  75  76
ENDBRANCH   5  75
BRANCH  22  84
ATOM     84  C   UNL     1      -7.005   6.099 130.840  0.00  0.00    +0.000 C 
BRANCH  84  85
ATOM     85  C   UNL     1      -8.211   6.435 131.609  0.00  0.00    +0.000 C 
BRANCH  85  86
ATOM     86  C   UNL     1      -9.506   6.335 131.078  0.00  0.00    +0.000 C 
ATOM     87  N   UNL     1     -10.015   5.215 131.581  0.00  0.00    +0.000 N 
ATOM     88  O   UNL     1     -10.000   7.191 130.371  0.00  0.00    +0.000 OA
ATOM     89  H   UNL     1      -9.497   4.570 132.168  0.00  0.00    +0.000 HD
ATOM     90  H   UNL     1     -10.957   5.058 131.358  0.00  0.00    +0.000 HD
ENDBRANCH  85  86
ENDBRANCH  84  85
ENDBRANCH  22  84
TORSDOF 22
ENDMDL
MODEL 5
REMARK VINA RESULT:     -10.5      2.352      3.751
REMARK  Name = CHEMBL4474284
REMARK  26 active torsions:
REMARK  status: ('A' for Active; 'I' for Inactive)
REMARK    1  A    between atoms: C_1  and  C_2
REMARK    2  A    between atoms: C_2  and  C_3
REMARK    3  A    between atoms: C_3  and  C_4
REMARK    4  A    between atoms: C_3  and  C_5
REMARK    5  A    between atoms: C_9  and  C_10
REMARK    6  A    between atoms: C_10  and  C_11
REMARK    7  A    between atoms: C_14  and  O_15
REMARK    8  A    between atoms: C_21  and  N_22
REMARK    9  A    between atoms: C_27  and  C_28
REMARK   10  A    between atoms: N_30  and  C_31
REMARK   11  A    between atoms: N_30  and  C_47
REMARK   12  A    between atoms: C_31  and  C_32
REMARK   13  A    between atoms: N_34  and  C_35
REMARK   14  A    between atoms: C_35  and  C_36
REMARK   15  A    between atoms: C_35  and  C_40
REMARK   16  A    between atoms: C_36  and  C_37
REMARK   17  A    between atoms: C_37  and  C_38
REMARK   18  A    between atoms: C_37  and  C_39
REMARK   19  A    between atoms: N_42  and  C_43
REMARK   20  A    between atoms: C_43  and  C_44
REMARK   21  A    between atoms: C_47  and  C_48
REMARK   22  A    between atoms: C_58  and  C_59
REMARK   23  A    between atoms: C_59  and  C_60
REMARK   24  A    between atoms: C_66  and  C_67
REMARK   25  A    between atoms: C_67  and  C_68
REMARK   26  A    between atoms: C_68  and  C_69
REMARK                            x       y       z     vdW  Elec       q    Type
REMARK                         _______ _______ _______ _____ _____    ______ ____
ROOT
ATOM      1  C   UNL     1      -3.705   4.115 135.436  0.00  0.00    +0.000 C 
ATOM      2  N   UNL     1      -3.948   2.620 136.994  0.00  0.00    +0.000 N 
ATOM      3  C   UNL     1      -4.069   1.134 138.472  0.00  0.00    +0.000 C 
ATOM      4  O   UNL     1      -5.135   0.489 139.382  0.00  0.00    +0.000 OA
ATOM      5  C   UNL     1      -3.506  -0.885 138.718  0.00  0.00    +0.000 C 
ATOM      6  N   UNL     1      -3.829  -2.214 137.818  0.00  0.00    +0.000 N 
ATOM      7  C   UNL     1      -4.740  -2.138 136.828  0.00  0.00    +0.000 C 
ATOM      8  O   UNL     1      -4.931  -3.032 136.008  0.00  0.00    +0.000 OA
ATOM      9  C   UNL     1      -5.549  -0.886 136.585  0.00  0.00    +0.000 C 
ATOM     10  C   UNL     1      -4.991   0.139 135.711  0.00  0.00    +0.000 C 
ATOM     11  S   UNL     1      -5.725  -0.922 134.709  0.00  0.00    +0.000 S 
ATOM     12  S   UNL     1      -4.828   0.615 133.045  0.00  0.00    +0.000 S 
ATOM     13  C   UNL     1      -6.000   0.036 130.869  0.00  0.00    +0.000 C 
ATOM     14  C   UNL     1      -5.560   0.458 129.499  0.00  0.00    +0.000 C 
ATOM     15  N   UNL     1      -6.101   1.687 129.612  0.00  0.00    +0.000 N 
ATOM     16  C   UNL     1      -5.815   2.421 130.659  0.00  0.00    +0.000 C 
ATOM     17  O   UNL     1      -6.517   3.412 130.734  0.00  0.00    +0.000 OA
ATOM     18  C   UNL     1      -4.607   2.165 131.658  0.00  0.00    +0.000 C 
ATOM     19  N   UNL     1      -3.303   2.607 132.014  0.00  0.00    +0.000 N 
ATOM     20  C   UNL     1      -3.357   3.845 132.317  0.00  0.00    +0.000 C 
ATOM     21  O   UNL     1      -2.004   4.088 132.773  0.00  0.00    +0.000 OA
ATOM     22  C   UNL     1      -5.181   5.184 132.161  0.00  0.00    +0.000 C 
ATOM     23  N   UNL     1      -5.495   5.872 133.854  0.00  0.00    +0.000 N 
ATOM     24  C   UNL     1      -4.556   5.827 135.002  0.00  0.00    +0.000 C 
ATOM     25  O   UNL     1      -4.224   6.986 135.308  0.00  0.00    +0.000 OA
ATOM     26  H   UNL     1      -4.474   2.230 138.237  0.00  0.00    +0.000 HD
ATOM     27  H   UNL     1      -3.392  -3.200 137.837  0.00  0.00    +0.000 HD
ATOM     28  H   UNL     1      -6.848   1.880 128.999  0.00  0.00    +0.000 HD
ATOM     29  H   UNL     1      -2.398   2.416 131.608  0.00  0.00    +0.000 HD
ATOM     30  H   UNL     1      -6.032   5.233 134.398  0.00  0.00    +0.000 HD
ENDROOT
BRANCH   9  31
ATOM     31  N   UNL     1      -5.332   0.061 137.466  0.00  0.00    +0.000 NA
ATOM     32  H   UNL     1      -4.421  -0.298 137.717  0.00  0.00    +0.000 HD
ATOM     33  H   UNL     1      -5.872  -0.264 138.272  0.00  0.00    +0.000 HD
ENDBRANCH   9  31
BRANCH  14  34
ATOM     34  C   UNL     1      -6.027  -0.542 128.338  0.00  0.00    +0.000 C 
ATOM     35  O   UNL     1      -6.657  -1.514 128.755  0.00  0.00    +0.000 OA
ATOM     36  N   UNL     1      -5.704  -0.352 126.937  0.00  0.00    +0.000 N 
BRANCH  36  37
ATOM     37  C   UNL     1      -4.836   0.763 126.287  0.00  0.00    +0.000 C 
BRANCH  37  38
ATOM     38  C   UNL     1      -5.364   2.207 126.335  0.00  0.00    +0.000 C 
ATOM     39  O   UNL     1      -4.681   3.107 125.883  0.00  0.00    +0.000 OA
ATOM     40  N   UNL     1      -6.653   2.594 126.444  0.00  0.00    +0.000 N 
ATOM     41  H   UNL     1      -7.326   1.988 126.841  0.00  0.00    +0.000 HD
BRANCH  40  42
ATOM     42  C   UNL     1      -7.208   3.834 125.837  0.00  0.00    +0.000 C 
BRANCH  42  43
ATOM     43  C   UNL     1      -8.108   4.607 126.741  0.00  0.00    +0.000 C 
ATOM     44  O   UNL     1      -8.839   5.414 126.178  0.00  0.00    +0.000 OA
ATOM     45  N   UNL     1      -8.041   4.453 128.118  0.00  0.00    +0.000 N 
ATOM     46  H   UNL     1      -7.377   3.841 128.568  0.00  0.00    +0.000 HD
BRANCH  45  47
ATOM     47  C   UNL     1      -8.985   5.159 128.966  0.00  0.00    +0.000 C 
BRANCH  47  48
ATOM     48  C   UNL     1      -9.584   4.303 130.089  0.00  0.00    +0.000 C 
ATOM     49  N   UNL     1      -9.131   4.532 131.376  0.00  0.00    +0.000 N 
ATOM     50  O   UNL     1     -10.460   3.470 129.867  0.00  0.00    +0.000 OA
ATOM     51  H   UNL     1      -8.507   5.263 131.672  0.00  0.00    +0.000 HD
ATOM     52  H   UNL     1      -9.564   4.027 132.142  0.00  0.00    +0.000 HD
ENDBRANCH  47  48
ENDBRANCH  45  47
ENDBRANCH  42  43
BRANCH  42  53
ATOM     53  C   UNL     1      -8.297   3.451 124.958  0.00  0.00    +0.000 C 
BRANCH  53  54
ATOM     54  C   UNL     1      -7.751   3.192 123.331  0.00  0.00    +0.000 C 
ATOM     55  C   UNL     1      -8.523   3.127 122.160  0.00  0.00    +0.000 C 
ATOM     56  C   UNL     1      -5.952   3.807 122.594  0.00  0.00    +0.000 C 
ENDBRANCH  53  54
ENDBRANCH  42  53
ENDBRANCH  40  42
ENDBRANCH  37  38
ENDBRANCH  36  37
BRANCH  36  57
ATOM     57  C   UNL     1      -6.190  -1.382 126.010  0.00  0.00    +0.000 C 
BRANCH  57  58
ATOM     58  C   UNL     1      -7.289  -0.898 125.096  0.00  0.00    +0.000 A 
ATOM     59  C   UNL     1      -7.180  -1.054 123.712  0.00  0.00    +0.000 A 
ATOM     60  C   UNL     1      -8.213  -0.679 122.867  0.00  0.00    +0.000 A 
ATOM     61  C   UNL     1      -9.363  -0.145 123.401  0.00  0.00    +0.000 A 
ATOM     62  F   UNL     1     -10.351   0.235 122.589  0.00  0.00    +0.000 F 
ATOM     63  C   UNL     1      -9.499   0.008 124.767  0.00  0.00    +0.000 A 
ATOM     64  C   UNL     1      -8.465  -0.368 125.613  0.00  0.00    +0.000 A 
ENDBRANCH  57  58
ENDBRANCH  36  57
ENDBRANCH  14  34
BRANCH   1  65
ATOM     65  C   UNL     1      -3.149   5.587 133.656  0.00  0.00    +0.000 C 
ATOM     66  C   UNL     1      -2.486   7.223 132.456  0.00  0.00    +0.000 C 
BRANCH  65  68
ATOM     67  C   UNL     1      -0.053   7.247 134.179  0.00  0.00    +0.000 C 
ATOM     68  C   UNL     1      -1.649   6.815 133.249  0.00  0.00    +0.000 C 
ENDBRANCH  65  68
ENDBRANCH   1  65
BRANCH  18  69
ATOM     69  C   UNL     1      -5.696   2.410 133.353  0.00  0.00    +0.000 C 
BRANCH  69  70
ATOM     70  C   UNL     1      -6.993   2.301 133.361  0.00  0.00    +0.000 C 
ATOM     71  N   UNL     1      -6.739   2.945 134.357  0.00  0.00    +0.000 N 
ATOM     72  O   UNL     1      -7.946   1.991 132.778  0.00  0.00    +0.000 OA
ATOM     73  H   UNL     1      -6.017   3.758 134.613  0.00  0.00    +0.000 HD
ATOM     74  H   UNL     1      -7.539   3.129 134.941  0.00  0.00    +0.000 HD
ENDBRANCH  69  70
ENDBRANCH  18  69
BRANCH   5  75
ATOM     75  C   UNL     1      -2.406  -0.172 138.285  0.00  0.00    +0.000 C 
BRANCH  75  76
ATOM     76  C   UNL     1      -1.366  -1.228 138.523  0.00  0.00    +0.000 A 
ATOM     77  C   UNL     1      -0.992  -1.764 139.793  0.00  0.00    +0.000 A 
ATOM     78  C   UNL     1       0.041  -2.667 139.885  0.00  0.00    +0.000 A 
ATOM     79  C   UNL     1       0.725  -2.977 138.729  0.00  0.00    +0.000 A 
ATOM     80  C   UNL     1       0.467  -2.312 137.541  0.00  0.00    +0.000 A 
ATOM     81  C   UNL     1      -0.537  -1.399 137.451  0.00  0.00    +0.000 A 
BRANCH  79  82
ATOM     82  O   UNL     1       1.687  -3.931 138.661  0.00  0.00    +0.000 OA
ATOM     83  H   UNL     1       1.658  -4.432 137.833  0.00  0.00    +0.000 HD
ENDBRANCH  79  82
ENDBRANCH  75  76
ENDBRANCH   5  75
BRANCH  22  84
ATOM     84  C   UNL     1      -5.730   6.172 131.212  0.00  0.00    +0.000 C 
BRANCH  84  85
ATOM     85  C   UNL     1      -4.646   6.500 130.277  0.00  0.00    +0.000 C 
BRANCH  85  86
ATOM     86  C   UNL     1      -4.344   5.716 129.153  0.00  0.00    +0.000 C 
ATOM     87  N   UNL     1      -3.035   5.489 129.215  0.00  0.00    +0.000 N 
ATOM     88  O   UNL     1      -5.190   5.311 128.381  0.00  0.00    +0.000 OA
ATOM     89  H   UNL     1      -2.423   5.889 129.918  0.00  0.00    +0.000 HD
ATOM     90  H   UNL     1      -2.695   4.877 128.530  0.00  0.00    +0.000 HD
ENDBRANCH  85  86
ENDBRANCH  84  85
ENDBRANCH  22  84
TORSDOF 22
ENDMDL
MODEL 6
REMARK VINA RESULT:     -10.4      2.134      2.556
REMARK  Name = CHEMBL4474284
REMARK  26 active torsions:
REMARK  status: ('A' for Active; 'I' for Inactive)
REMARK    1  A    between atoms: C_1  and  C_2
REMARK    2  A    between atoms: C_2  and  C_3
REMARK    3  A    between atoms: C_3  and  C_4
REMARK    4  A    between atoms: C_3  and  C_5
REMARK    5  A    between atoms: C_9  and  C_10
REMARK    6  A    between atoms: C_10  and  C_11
REMARK    7  A    between atoms: C_14  and  O_15
REMARK    8  A    between atoms: C_21  and  N_22
REMARK    9  A    between atoms: C_27  and  C_28
REMARK   10  A    between atoms: N_30  and  C_31
REMARK   11  A    between atoms: N_30  and  C_47
REMARK   12  A    between atoms: C_31  and  C_32
REMARK   13  A    between atoms: N_34  and  C_35
REMARK   14  A    between atoms: C_35  and  C_36
REMARK   15  A    between atoms: C_35  and  C_40
REMARK   16  A    between atoms: C_36  and  C_37
REMARK   17  A    between atoms: C_37  and  C_38
REMARK   18  A    between atoms: C_37  and  C_39
REMARK   19  A    between atoms: N_42  and  C_43
REMARK   20  A    between atoms: C_43  and  C_44
REMARK   21  A    between atoms: C_47  and  C_48
REMARK   22  A    between atoms: C_58  and  C_59
REMARK   23  A    between atoms: C_59  and  C_60
REMARK   24  A    between atoms: C_66  and  C_67
REMARK   25  A    between atoms: C_67  and  C_68
REMARK   26  A    between atoms: C_68  and  C_69
REMARK                            x       y       z     vdW  Elec       q    Type
REMARK                         _______ _______ _______ _____ _____    ______ ____
ROOT
ATOM      1  C   UNL     1      -3.829   3.864 134.931  0.00  0.00    +0.000 C 
ATOM      2  N   UNL     1      -3.846   2.334 136.474  0.00  0.00    +0.000 N 
ATOM      3  C   UNL     1      -3.756   0.814 137.919  0.00  0.00    +0.000 C 
ATOM      4  O   UNL     1      -4.675   0.158 138.970  0.00  0.00    +0.000 OA
ATOM      5  C   UNL     1      -3.190  -1.217 138.028  0.00  0.00    +0.000 C 
ATOM      6  N   UNL     1      -3.668  -2.520 137.160  0.00  0.00    +0.000 N 
ATOM      7  C   UNL     1      -4.722  -2.410 136.327  0.00  0.00    +0.000 C 
ATOM      8  O   UNL     1      -5.051  -3.282 135.528  0.00  0.00    +0.000 OA
ATOM      9  C   UNL     1      -5.541  -1.144 136.242  0.00  0.00    +0.000 C 
ATOM     10  C   UNL     1      -5.112  -0.104 135.315  0.00  0.00    +0.000 C 
ATOM     11  S   UNL     1      -6.008  -1.132 134.417  0.00  0.00    +0.000 S 
ATOM     12  S   UNL     1      -5.360   0.435 132.668  0.00  0.00    +0.000 S 
ATOM     13  C   UNL     1      -6.865  -0.078 130.689  0.00  0.00    +0.000 C 
ATOM     14  C   UNL     1      -6.639   0.373 129.277  0.00  0.00    +0.000 C 
ATOM     15  N   UNL     1      -7.139   1.605 129.501  0.00  0.00    +0.000 N 
ATOM     16  C   UNL     1      -6.682   2.309 130.506  0.00  0.00    +0.000 C 
ATOM     17  O   UNL     1      -7.349   3.306 130.712  0.00  0.00    +0.000 OA
ATOM     18  C   UNL     1      -5.336   2.016 131.298  0.00  0.00    +0.000 C 
ATOM     19  N   UNL     1      -3.987   2.436 131.456  0.00  0.00    +0.000 N 
ATOM     20  C   UNL     1      -3.975   3.666 131.791  0.00  0.00    +0.000 C 
ATOM     21  O   UNL     1      -2.564   3.884 132.035  0.00  0.00    +0.000 OA
ATOM     22  C   UNL     1      -5.782   5.028 131.952  0.00  0.00    +0.000 C 
ATOM     23  N   UNL     1      -5.818   5.677 133.689  0.00  0.00    +0.000 N 
ATOM     24  C   UNL     1      -4.712   5.595 134.674  0.00  0.00    +0.000 C 
ATOM     25  O   UNL     1      -4.320   6.742 134.950  0.00  0.00    +0.000 OA
ATOM     26  H   UNL     1      -4.177   1.920 137.775  0.00  0.00    +0.000 HD
ATOM     27  H   UNL     1      -3.248  -3.510 137.088  0.00  0.00    +0.000 HD
ATOM     28  H   UNL     1      -7.969   1.820 129.017  0.00  0.00    +0.000 HD
ATOM     29  H   UNL     1      -3.159   2.246 130.909  0.00  0.00    +0.000 HD
ATOM     30  H   UNL     1      -6.273   5.032 134.296  0.00  0.00    +0.000 HD
ENDROOT
BRANCH   9  31
ATOM     31  N   UNL     1      -5.175  -0.221 137.099  0.00  0.00    +0.000 NA
ATOM     32  H   UNL     1      -4.805  -0.893 137.757  0.00  0.00    +0.000 HD
ATOM     33  H   UNL     1      -6.059   0.006 137.564  0.00  0.00    +0.000 HD
ENDBRANCH   9  31
BRANCH  14  34
ATOM     34  C   UNL     1      -7.295  -0.593 128.181  0.00  0.00    +0.000 C 
ATOM     35  O   UNL     1      -8.335  -1.132 128.564  0.00  0.00    +0.000 OA
ATOM     36  N   UNL     1      -6.706  -0.850 126.881  0.00  0.00    +0.000 N 
BRANCH  36  37
ATOM     37  C   UNL     1      -5.358  -0.327 126.309  0.00  0.00    +0.000 C 
BRANCH  37  38
ATOM     38  C   UNL     1      -5.176   1.195 126.174  0.00  0.00    +0.000 C 
ATOM     39  O   UNL     1      -4.057   1.669 126.236  0.00  0.00    +0.000 OA
ATOM     40  N   UNL     1      -6.032   2.064 125.594  0.00  0.00    +0.000 N 
ATOM     41  H   UNL     1      -6.992   1.843 125.513  0.00  0.00    +0.000 HD
BRANCH  40  42
ATOM     42  C   UNL     1      -5.612   3.300 124.880  0.00  0.00    +0.000 C 
BRANCH  42  43
ATOM     43  C   UNL     1      -5.405   4.479 125.770  0.00  0.00    +0.000 C 
ATOM     44  O   UNL     1      -6.250   5.362 125.665  0.00  0.00    +0.000 OA
ATOM     45  N   UNL     1      -4.288   4.571 126.586  0.00  0.00    +0.000 N 
ATOM     46  H   UNL     1      -3.562   3.870 126.601  0.00  0.00    +0.000 HD
BRANCH  45  47
ATOM     47  C   UNL     1      -4.156   5.691 127.500  0.00  0.00    +0.000 C 
BRANCH  47  48
ATOM     48  C   UNL     1      -2.798   5.768 128.210  0.00  0.00    +0.000 C 
ATOM     49  N   UNL     1      -2.069   6.935 128.067  0.00  0.00    +0.000 N 
ATOM     50  O   UNL     1      -2.384   4.847 128.910  0.00  0.00    +0.000 OA
ATOM     51  H   UNL     1      -2.372   7.781 127.615  0.00  0.00    +0.000 HD
ATOM     52  H   UNL     1      -1.202   7.035 128.585  0.00  0.00    +0.000 HD
ENDBRANCH  47  48
ENDBRANCH  45  47
ENDBRANCH  42  43
BRANCH  42  53
ATOM     53  C   UNL     1      -6.790   3.879 124.262  0.00  0.00    +0.000 C 
BRANCH  53  54
ATOM     54  C   UNL     1      -6.985   3.348 122.621  0.00  0.00    +0.000 C 
ATOM     55  C   UNL     1      -8.178   3.188 121.900  0.00  0.00    +0.000 C 
ATOM     56  C   UNL     1      -5.648   3.690 121.120  0.00  0.00    +0.000 C 
ENDBRANCH  53  54
ENDBRANCH  42  53
ENDBRANCH  40  42
ENDBRANCH  37  38
ENDBRANCH  36  37
BRANCH  36  57
ATOM     57  C   UNL     1      -7.429  -1.785 126.010  0.00  0.00    +0.000 C 
BRANCH  57  58
ATOM     58  C   UNL     1      -8.199  -1.105 124.905  0.00  0.00    +0.000 A 
ATOM     59  C   UNL     1      -8.325  -1.710 123.651  0.00  0.00    +0.000 A 
ATOM     60  C   UNL     1      -9.088  -1.130 122.651  0.00  0.00    +0.000 A 
ATOM     61  C   UNL     1      -9.732   0.061 122.897  0.00  0.00    +0.000 A 
ATOM     62  F   UNL     1     -10.453   0.631 121.930  0.00  0.00    +0.000 F 
ATOM     63  C   UNL     1      -9.634   0.672 124.131  0.00  0.00    +0.000 A 
ATOM     64  C   UNL     1      -8.870   0.090 125.134  0.00  0.00    +0.000 A 
ENDBRANCH  57  58
ENDBRANCH  36  57
ENDBRANCH  14  34
BRANCH   1  65
ATOM     65  C   UNL     1      -3.536   5.373 133.120  0.00  0.00    +0.000 C 
ATOM     66  C   UNL     1      -3.090   7.050 131.876  0.00  0.00    +0.000 C 
BRANCH  65  68
ATOM     67  C   UNL     1      -0.330   6.900 133.046  0.00  0.00    +0.000 C 
ATOM     68  C   UNL     1      -2.157   6.689 132.580  0.00  0.00    +0.000 C 
ENDBRANCH  65  68
ENDBRANCH   1  65
BRANCH  18  69
ATOM     69  C   UNL     1      -6.144   2.232 133.148  0.00  0.00    +0.000 C 
BRANCH  69  70
ATOM     70  C   UNL     1      -7.420   2.092 133.364  0.00  0.00    +0.000 C 
ATOM     71  N   UNL     1      -7.050   2.854 134.232  0.00  0.00    +0.000 N 
ATOM     72  O   UNL     1      -8.434   1.693 132.969  0.00  0.00    +0.000 OA
ATOM     73  H   UNL     1      -6.332   3.709 134.283  0.00  0.00    +0.000 HD
ATOM     74  H   UNL     1      -7.762   3.085 134.905  0.00  0.00    +0.000 HD
ENDBRANCH  69  70
ENDBRANCH  18  69
BRANCH   5  75
ATOM     75  C   UNL     1      -2.161  -0.505 137.445  0.00  0.00    +0.000 C 
BRANCH  75  76
ATOM     76  C   UNL     1      -1.323  -1.671 137.008  0.00  0.00    +0.000 A 
ATOM     77  C   UNL     1      -0.484  -2.463 137.851  0.00  0.00    +0.000 A 
ATOM     78  C   UNL     1       0.303  -3.451 137.310  0.00  0.00    +0.000 A 
ATOM     79  C   UNL     1       0.295  -3.598 135.939  0.00  0.00    +0.000 A 
ATOM     80  C   UNL     1      -0.382  -2.705 135.125  0.00  0.00    +0.000 A 
ATOM     81  C   UNL     1      -1.143  -1.710 135.654  0.00  0.00    +0.000 A 
BRANCH  79  82
ATOM     82  O   UNL     1       0.938  -4.601 135.290  0.00  0.00    +0.000 OA
ATOM     83  H   UNL     1       1.759  -4.307 134.869  0.00  0.00    +0.000 HD
ENDBRANCH  79  82
ENDBRANCH  75  76
ENDBRANCH   5  75
BRANCH  22  84
ATOM     84  C   UNL     1      -6.459   6.045 131.123  0.00  0.00    +0.000 C 
BRANCH  84  85
ATOM     85  C   UNL     1      -7.636   6.485 131.883  0.00  0.00    +0.000 C 
BRANCH  85  86
ATOM     86  C   UNL     1      -8.947   6.360 131.398  0.00  0.00    +0.000 C 
ATOM     87  N   UNL     1      -8.829   5.873 130.167  0.00  0.00    +0.000 N 
ATOM     88  O   UNL     1      -9.929   6.601 132.072  0.00  0.00    +0.000 OA
ATOM     89  H   UNL     1      -7.942   5.712 129.703  0.00  0.00    +0.000 HD
ATOM     90  H   UNL     1      -9.680   5.653 129.732  0.00  0.00    +0.000 HD
ENDBRANCH  85  86
ENDBRANCH  84  85
ENDBRANCH  22  84
TORSDOF 22
ENDMDL
MODEL 7
REMARK VINA RESULT:     -10.0      3.283      9.727
REMARK  Name = CHEMBL4474284
REMARK  26 active torsions:
REMARK  status: ('A' for Active; 'I' for Inactive)
REMARK    1  A    between atoms: C_1  and  C_2
REMARK    2  A    between atoms: C_2  and  C_3
REMARK    3  A    between atoms: C_3  and  C_4
REMARK    4  A    between atoms: C_3  and  C_5
REMARK    5  A    between atoms: C_9  and  C_10
REMARK    6  A    between atoms: C_10  and  C_11
REMARK    7  A    between atoms: C_14  and  O_15
REMARK    8  A    between atoms: C_21  and  N_22
REMARK    9  A    between atoms: C_27  and  C_28
REMARK   10  A    between atoms: N_30  and  C_31
REMARK   11  A    between atoms: N_30  and  C_47
REMARK   12  A    between atoms: C_31  and  C_32
REMARK   13  A    between atoms: N_34  and  C_35
REMARK   14  A    between atoms: C_35  and  C_36
REMARK   15  A    between atoms: C_35  and  C_40
REMARK   16  A    between atoms: C_36  and  C_37
REMARK   17  A    between atoms: C_37  and  C_38
REMARK   18  A    between atoms: C_37  and  C_39
REMARK   19  A    between atoms: N_42  and  C_43
REMARK   20  A    between atoms: C_43  and  C_44
REMARK   21  A    between atoms: C_47  and  C_48
REMARK   22  A    between atoms: C_58  and  C_59
REMARK   23  A    between atoms: C_59  and  C_60
REMARK   24  A    between atoms: C_66  and  C_67
REMARK   25  A    between atoms: C_67  and  C_68
REMARK   26  A    between atoms: C_68  and  C_69
REMARK                            x       y       z     vdW  Elec       q    Type
REMARK                         _______ _______ _______ _____ _____    ______ ____
ROOT
ATOM      1  C   UNL     1      -6.989   3.487 127.666  0.00  0.00    +0.000 C 
ATOM      2  N   UNL     1      -6.865   4.795 129.397  0.00  0.00    +0.000 N 
ATOM      3  C   UNL     1      -6.624   6.066 131.050  0.00  0.00    +0.000 C 
ATOM      4  O   UNL     1      -7.438   6.549 132.268  0.00  0.00    +0.000 OA
ATOM      5  C   UNL     1      -5.242   6.356 132.619  0.00  0.00    +0.000 C 
ATOM      6  N   UNL     1      -4.647   5.322 133.740  0.00  0.00    +0.000 N 
ATOM      7  C   UNL     1      -5.200   4.100 133.873  0.00  0.00    +0.000 C 
ATOM      8  O   UNL     1      -4.723   3.210 134.572  0.00  0.00    +0.000 OA
ATOM      9  C   UNL     1      -6.420   3.688 133.084  0.00  0.00    +0.000 C 
ATOM     10  C   UNL     1      -6.225   3.100 131.765  0.00  0.00    +0.000 C 
ATOM     11  S   UNL     1      -6.078   1.856 132.812  0.00  0.00    +0.000 S 
ATOM     12  S   UNL     1      -5.646   0.658 130.735  0.00  0.00    +0.000 S 
ATOM     13  C   UNL     1      -5.804  -1.808 131.314  0.00  0.00    +0.000 C 
ATOM     14  C   UNL     1      -5.293  -2.939 130.473  0.00  0.00    +0.000 C 
ATOM     15  N   UNL     1      -6.367  -2.931 129.659  0.00  0.00    +0.000 N 
ATOM     16  C   UNL     1      -6.743  -1.806 129.105  0.00  0.00    +0.000 C 
ATOM     17  O   UNL     1      -7.828  -1.898 128.562  0.00  0.00    +0.000 OA
ATOM     18  C   UNL     1      -5.857  -0.491 129.000  0.00  0.00    +0.000 C 
ATOM     19  N   UNL     1      -5.065   0.287 128.112  0.00  0.00    +0.000 N 
ATOM     20  C   UNL     1      -5.781   0.630 127.114  0.00  0.00    +0.000 C 
ATOM     21  O   UNL     1      -4.877   1.507 126.399  0.00  0.00    +0.000 OA
ATOM     22  C   UNL     1      -7.918  -0.016 126.714  0.00  0.00    +0.000 C 
ATOM     23  N   UNL     1      -8.939   1.527 126.595  0.00  0.00    +0.000 N 
ATOM     24  C   UNL     1      -8.418   2.909 126.454  0.00  0.00    +0.000 C 
ATOM     25  O   UNL     1      -8.774   3.373 125.357  0.00  0.00    +0.000 OA
ATOM     26  H   UNL     1      -7.433   5.780 130.222  0.00  0.00    +0.000 HD
ATOM     27  H   UNL     1      -3.811   5.419 134.414  0.00  0.00    +0.000 HD
ATOM     28  H   UNL     1      -6.933  -3.736 129.694  0.00  0.00    +0.000 HD
ATOM     29  H   UNL     1      -4.110   0.179 127.797  0.00  0.00    +0.000 HD
ATOM     30  H   UNL     1      -9.220   1.833 127.501  0.00  0.00    +0.000 HD
ENDROOT
BRANCH   9  31
ATOM     31  N   UNL     1      -6.915   4.648 132.340  0.00  0.00    +0.000 NA
ATOM     32  H   UNL     1      -6.037   4.818 131.869  0.00  0.00    +0.000 HD
ATOM     33  H   UNL     1      -6.920   5.442 132.985  0.00  0.00    +0.000 HD
ENDBRANCH   9  31
BRANCH  14  34
ATOM     34  C   UNL     1      -4.912  -4.246 131.317  0.00  0.00    +0.000 C 
ATOM     35  O   UNL     1      -5.094  -5.296 130.700  0.00  0.00    +0.000 OA
ATOM     36  N   UNL     1      -4.440  -4.208 132.688  0.00  0.00    +0.000 N 
BRANCH  36  37
ATOM     37  C   UNL     1      -4.264  -2.972 133.616  0.00  0.00    +0.000 C 
BRANCH  37  38
ATOM     38  C   UNL     1      -2.836  -2.460 133.870  0.00  0.00    +0.000 C 
ATOM     39  O   UNL     1      -2.669  -1.305 134.216  0.00  0.00    +0.000 OA
ATOM     40  N   UNL     1      -1.747  -3.207 134.155  0.00  0.00    +0.000 N 
ATOM     41  H   UNL     1      -1.708  -4.158 133.891  0.00  0.00    +0.000 HD
BRANCH  40  42
ATOM     42  C   UNL     1      -0.625  -2.752 135.021  0.00  0.00    +0.000 C 
BRANCH  42  43
ATOM     43  C   UNL     1       0.535  -2.189 134.271  0.00  0.00    +0.000 C 
ATOM     44  O   UNL     1       0.521  -0.971 134.134  0.00  0.00    +0.000 OA
ATOM     45  N   UNL     1       1.500  -3.018 133.718  0.00  0.00    +0.000 N 
ATOM     46  H   UNL     1       1.452  -4.025 133.774  0.00  0.00    +0.000 HD
BRANCH  45  47
ATOM     47  C   UNL     1       2.658  -2.437 133.064  0.00  0.00    +0.000 C 
BRANCH  47  48
ATOM     48  C   UNL     1       3.719  -3.459 132.637  0.00  0.00    +0.000 C 
ATOM     49  N   UNL     1       4.487  -3.154 131.528  0.00  0.00    +0.000 N 
ATOM     50  O   UNL     1       3.909  -4.494 133.272  0.00  0.00    +0.000 OA
ATOM     51  H   UNL     1       4.486  -2.288 131.016  0.00  0.00    +0.000 HD
ATOM     52  H   UNL     1       5.242  -3.781 131.270  0.00  0.00    +0.000 HD
ENDBRANCH  47  48
ENDBRANCH  45  47
ENDBRANCH  42  43
BRANCH  42  53
ATOM     53  C   UNL     1       0.118  -3.925 135.439  0.00  0.00    +0.000 C 
BRANCH  53  54
ATOM     54  C   UNL     1      -0.059  -4.229 137.139  0.00  0.00    +0.000 C 
ATOM     55  C   UNL     1      -0.593  -5.367 137.763  0.00  0.00    +0.000 C 
ATOM     56  C   UNL     1       1.198  -3.528 138.584  0.00  0.00    +0.000 C 
ENDBRANCH  53  54
ENDBRANCH  42  53
ENDBRANCH  40  42
ENDBRANCH  37  38
ENDBRANCH  36  37
BRANCH  36  57
ATOM     57  C   UNL     1      -4.162  -5.504 133.320  0.00  0.00    +0.000 C 
BRANCH  57  58
ATOM     58  C   UNL     1      -4.906  -5.712 134.616  0.00  0.00    +0.000 A 
ATOM     59  C   UNL     1      -4.209  -5.820 135.823  0.00  0.00    +0.000 A 
ATOM     60  C   UNL     1      -4.882  -5.940 137.028  0.00  0.00    +0.000 A 
ATOM     61  C   UNL     1      -6.258  -5.953 137.035  0.00  0.00    +0.000 A 
ATOM     62  F   UNL     1      -6.909  -6.087 138.192  0.00  0.00    +0.000 F 
ATOM     63  C   UNL     1      -6.969  -5.835 135.857  0.00  0.00    +0.000 A 
ATOM     64  C   UNL     1      -6.295  -5.714 134.650  0.00  0.00    +0.000 A 
ENDBRANCH  57  58
ENDBRANCH  36  57
ENDBRANCH  14  34
BRANCH   1  65
ATOM     65  C   UNL     1      -6.782   2.069 125.771  0.00  0.00    +0.000 C 
ATOM     66  C   UNL     1      -6.867   1.185 123.830  0.00  0.00    +0.000 C 
BRANCH  65  68
ATOM     67  C   UNL     1      -5.919   3.841 122.817  0.00  0.00    +0.000 C 
ATOM     68  C   UNL     1      -6.428   2.326 123.840  0.00  0.00    +0.000 C 
ENDBRANCH  65  68
ENDBRANCH   1  65
BRANCH  18  69
ATOM     69  C   UNL     1      -7.316   0.781 129.609  0.00  0.00    +0.000 C 
BRANCH  69  70
ATOM     70  C   UNL     1      -8.291   0.395 130.382  0.00  0.00    +0.000 C 
ATOM     71  N   UNL     1      -8.679   1.442 129.909  0.00  0.00    +0.000 N 
ATOM     72  O   UNL     1      -8.740  -0.459 131.024  0.00  0.00    +0.000 OA
ATOM     73  H   UNL     1      -8.617   1.931 128.906  0.00  0.00    +0.000 HD
ATOM     74  H   UNL     1      -9.554   1.763 130.290  0.00  0.00    +0.000 HD
ENDBRANCH  69  70
ENDBRANCH  18  69
BRANCH   5  75
ATOM     75  C   UNL     1      -4.552   6.339 131.422  0.00  0.00    +0.000 C 
BRANCH  75  76
ATOM     76  C   UNL     1      -3.215   6.776 131.947  0.00  0.00    +0.000 A 
ATOM     77  C   UNL     1      -2.916   8.048 132.523  0.00  0.00    +0.000 A 
ATOM     78  C   UNL     1      -1.627   8.357 132.886  0.00  0.00    +0.000 A 
ATOM     79  C   UNL     1      -0.645   7.427 132.614  0.00  0.00    +0.000 A 
ATOM     80  C   UNL     1      -0.924   6.279 131.891  0.00  0.00    +0.000 A 
ATOM     81  C   UNL     1      -2.195   5.980 131.509  0.00  0.00    +0.000 A 
BRANCH  79  82
ATOM     82  O   UNL     1       0.643   7.559 133.018  0.00  0.00    +0.000 OA
ATOM     83  H   UNL     1       0.856   8.462 133.295  0.00  0.00    +0.000 HD
ENDBRANCH  79  82
ENDBRANCH  75  76
ENDBRANCH   5  75
BRANCH  22  84
ATOM     84  C   UNL     1      -8.616  -1.030 125.898  0.00  0.00    +0.000 C 
BRANCH  84  85
ATOM     85  C   UNL     1      -7.587  -1.965 125.425  0.00  0.00    +0.000 C 
BRANCH  85  86
ATOM     86  C   UNL     1      -7.823  -3.338 125.257  0.00  0.00    +0.000 C 
ATOM     87  N   UNL     1      -8.638  -3.685 126.249  0.00  0.00    +0.000 N 
ATOM     88  O   UNL     1      -7.388  -3.976 124.320  0.00  0.00    +0.000 OA
ATOM     89  H   UNL     1      -8.936  -3.055 126.985  0.00  0.00    +0.000 HD
ATOM     90  H   UNL     1      -8.957  -4.611 126.209  0.00  0.00    +0.000 HD
ENDBRANCH  85  86
ENDBRANCH  84  85
ENDBRANCH  22  84
TORSDOF 22
ENDMDL
MODEL 8
REMARK VINA RESULT:     -10.0      2.276      4.598
REMARK  Name = CHEMBL4474284
REMARK  26 active torsions:
REMARK  status: ('A' for Active; 'I' for Inactive)
REMARK    1  A    between atoms: C_1  and  C_2
REMARK    2  A    between atoms: C_2  and  C_3
REMARK    3  A    between atoms: C_3  and  C_4
REMARK    4  A    between atoms: C_3  and  C_5
REMARK    5  A    between atoms: C_9  and  C_10
REMARK    6  A    between atoms: C_10  and  C_11
REMARK    7  A    between atoms: C_14  and  O_15
REMARK    8  A    between atoms: C_21  and  N_22
REMARK    9  A    between atoms: C_27  and  C_28
REMARK   10  A    between atoms: N_30  and  C_31
REMARK   11  A    between atoms: N_30  and  C_47
REMARK   12  A    between atoms: C_31  and  C_32
REMARK   13  A    between atoms: N_34  and  C_35
REMARK   14  A    between atoms: C_35  and  C_36
REMARK   15  A    between atoms: C_35  and  C_40
REMARK   16  A    between atoms: C_36  and  C_37
REMARK   17  A    between atoms: C_37  and  C_38
REMARK   18  A    between atoms: C_37  and  C_39
REMARK   19  A    between atoms: N_42  and  C_43
REMARK   20  A    between atoms: C_43  and  C_44
REMARK   21  A    between atoms: C_47  and  C_48
REMARK   22  A    between atoms: C_58  and  C_59
REMARK   23  A    between atoms: C_59  and  C_60
REMARK   24  A    between atoms: C_66  and  C_67
REMARK   25  A    between atoms: C_67  and  C_68
REMARK   26  A    between atoms: C_68  and  C_69
REMARK                            x       y       z     vdW  Elec       q    Type
REMARK                         _______ _______ _______ _____ _____    ______ ____
ROOT
ATOM      1  C   UNL     1      -3.564   3.495 135.037  0.00  0.00    +0.000 C 
ATOM      2  N   UNL     1      -4.103   1.585 135.923  0.00  0.00    +0.000 N 
ATOM      3  C   UNL     1      -4.515  -0.302 136.744  0.00  0.00    +0.000 C 
ATOM      4  O   UNL     1      -5.720  -1.085 137.304  0.00  0.00    +0.000 OA
ATOM      5  C   UNL     1      -4.192  -2.331 136.256  0.00  0.00    +0.000 C 
ATOM      6  N   UNL     1      -4.570  -3.193 134.916  0.00  0.00    +0.000 N 
ATOM      7  C   UNL     1      -5.375  -2.647 133.983  0.00  0.00    +0.000 C 
ATOM      8  O   UNL     1      -5.584  -3.154 132.884  0.00  0.00    +0.000 OA
ATOM      9  C   UNL     1      -6.022  -1.296 134.180  0.00  0.00    +0.000 C 
ATOM     10  C   UNL     1      -5.282  -0.109 133.771  0.00  0.00    +0.000 C 
ATOM     11  S   UNL     1      -6.029  -0.633 132.417  0.00  0.00    +0.000 S 
ATOM     12  S   UNL     1      -4.828   1.267 131.478  0.00  0.00    +0.000 S 
ATOM     13  C   UNL     1      -5.852   1.668 129.190  0.00  0.00    +0.000 C 
ATOM     14  C   UNL     1      -5.248   2.492 128.093  0.00  0.00    +0.000 C 
ATOM     15  N   UNL     1      -5.664   3.659 128.625  0.00  0.00    +0.000 N 
ATOM     16  C   UNL     1      -5.399   3.923 129.880  0.00  0.00    +0.000 C 
ATOM     17  O   UNL     1      -5.996   4.904 130.282  0.00  0.00    +0.000 OA
ATOM     18  C   UNL     1      -4.320   3.169 130.770  0.00  0.00    +0.000 C 
ATOM     19  N   UNL     1      -3.014   3.278 131.323  0.00  0.00    +0.000 N 
ATOM     20  C   UNL     1      -2.964   4.320 132.056  0.00  0.00    +0.000 C 
ATOM     21  O   UNL     1      -1.640   4.203 132.632  0.00  0.00    +0.000 OA
ATOM     22  C   UNL     1      -4.615   5.853 132.320  0.00  0.00    +0.000 C 
ATOM     23  N   UNL     1      -5.007   5.921 134.131  0.00  0.00    +0.000 N 
ATOM     24  C   UNL     1      -4.186   5.344 135.224  0.00  0.00    +0.000 C 
ATOM     25  O   UNL     1      -3.763   6.261 135.950  0.00  0.00    +0.000 OA
ATOM     26  H   UNL     1      -4.778   0.848 136.910  0.00  0.00    +0.000 HD
ATOM     27  H   UNL     1      -4.244  -4.168 134.591  0.00  0.00    +0.000 HD
ATOM     28  H   UNL     1      -6.328   4.155 128.092  0.00  0.00    +0.000 HD
ATOM     29  H   UNL     1      -2.101   3.129 130.917  0.00  0.00    +0.000 HD
ATOM     30  H   UNL     1      -5.656   5.207 134.377  0.00  0.00    +0.000 HD
ENDROOT
BRANCH   9  31
ATOM     31  N   UNL     1      -5.787  -0.767 135.357  0.00  0.00    +0.000 NA
ATOM     32  H   UNL     1      -6.134  -1.574 135.857  0.00  0.00    +0.000 HD
ATOM     33  H   UNL     1      -6.584  -0.136 135.475  0.00  0.00    +0.000 HD
ENDBRANCH   9  31
BRANCH  14  34
ATOM     34  C   UNL     1      -5.710   2.047 126.626  0.00  0.00    +0.000 C 
ATOM     35  O   UNL     1      -4.775   1.698 125.904  0.00  0.00    +0.000 OA
ATOM     36  N   UNL     1      -7.086   2.090 126.169  0.00  0.00    +0.000 N 
BRANCH  36  37
ATOM     37  C   UNL     1      -8.342   2.603 126.930  0.00  0.00    +0.000 C 
BRANCH  37  38
ATOM     38  C   UNL     1      -8.260   3.982 127.608  0.00  0.00    +0.000 C 
ATOM     39  O   UNL     1      -8.013   4.964 126.934  0.00  0.00    +0.000 OA
ATOM     40  N   UNL     1      -8.814   4.338 128.787  0.00  0.00    +0.000 N 
ATOM     41  H   UNL     1      -9.028   3.654 129.467  0.00  0.00    +0.000 HD
BRANCH  40  42
ATOM     42  C   UNL     1      -9.312   5.706 129.097  0.00  0.00    +0.000 C 
BRANCH  42  43
ATOM     43  C   UNL     1      -8.840   6.244 130.406  0.00  0.00    +0.000 C 
ATOM     44  O   UNL     1      -8.286   7.337 130.347  0.00  0.00    +0.000 OA
ATOM     45  N   UNL     1      -8.966   5.504 131.572  0.00  0.00    +0.000 N 
ATOM     46  H   UNL     1      -9.354   4.572 131.588  0.00  0.00    +0.000 HD
BRANCH  45  47
ATOM     47  C   UNL     1      -8.571   6.088 132.841  0.00  0.00    +0.000 C 
BRANCH  47  48
ATOM     48  C   UNL     1      -8.755   5.158 134.046  0.00  0.00    +0.000 C 
ATOM     49  N   UNL     1      -9.762   4.213 133.974  0.00  0.00    +0.000 N 
ATOM     50  O   UNL     1      -8.016   5.220 135.026  0.00  0.00    +0.000 OA
ATOM     51  H   UNL     1     -10.339   4.009 133.175  0.00  0.00    +0.000 HD
ATOM     52  H   UNL     1      -9.856   3.541 134.729  0.00  0.00    +0.000 HD
ENDBRANCH  47  48
ENDBRANCH  45  47
ENDBRANCH  42  43
BRANCH  42  53
ATOM     53  C   UNL     1     -10.683   5.587 129.555  0.00  0.00    +0.000 C 
BRANCH  53  54
ATOM     54  C   UNL     1     -11.722   6.743 128.782  0.00  0.00    +0.000 C 
ATOM     55  C   UNL     1     -13.122   6.827 128.848  0.00  0.00    +0.000 C 
ATOM     56  C   UNL     1     -11.220   8.679 128.384  0.00  0.00    +0.000 C 
ENDBRANCH  53  54
ENDBRANCH  42  53
ENDBRANCH  40  42
ENDBRANCH  37  38
ENDBRANCH  36  37
BRANCH  36  57
ATOM     57  C   UNL     1      -7.328   1.671 124.783  0.00  0.00    +0.000 C 
BRANCH  57  58
ATOM     58  C   UNL     1      -7.551   0.186 124.634  0.00  0.00    +0.000 A 
ATOM     59  C   UNL     1      -6.760  -0.565 123.761  0.00  0.00    +0.000 A 
ATOM     60  C   UNL     1      -6.907  -1.940 123.668  0.00  0.00    +0.000 A 
ATOM     61  C   UNL     1      -7.847  -2.574 124.448  0.00  0.00    +0.000 A 
ATOM     62  F   UNL     1      -8.004  -3.895 124.347  0.00  0.00    +0.000 F 
ATOM     63  C   UNL     1      -8.631  -1.855 125.328  0.00  0.00    +0.000 A 
ATOM     64  C   UNL     1      -8.483  -0.478 125.422  0.00  0.00    +0.000 A 
ENDBRANCH  57  58
ENDBRANCH  36  57
ENDBRANCH  14  34
BRANCH   1  65
ATOM     65  C   UNL     1      -2.696   5.421 133.951  0.00  0.00    +0.000 C 
ATOM     66  C   UNL     1      -1.844   7.319 133.475  0.00  0.00    +0.000 C 
BRANCH  65  68
ATOM     67  C   UNL     1      -0.083   7.003 135.763  0.00  0.00    +0.000 C 
ATOM     68  C   UNL     1      -1.174   6.653 134.251  0.00  0.00    +0.000 C 
ENDBRANCH  65  68
ENDBRANCH   1  65
BRANCH  18  69
ATOM     69  C   UNL     1      -5.526   2.930 132.384  0.00  0.00    +0.000 C 
BRANCH  69  70
ATOM     70  C   UNL     1      -6.823   2.896 132.277  0.00  0.00    +0.000 C 
ATOM     71  N   UNL     1      -6.622   2.965 133.471  0.00  0.00    +0.000 N 
ATOM     72  O   UNL     1      -7.742   2.955 131.572  0.00  0.00    +0.000 OA
ATOM     73  H   UNL     1      -5.900   3.516 134.123  0.00  0.00    +0.000 HD
ATOM     74  H   UNL     1      -7.454   2.885 134.032  0.00  0.00    +0.000 HD
ENDBRANCH  69  70
ENDBRANCH  18  69
BRANCH   5  75
ATOM     75  C   UNL     1      -2.988  -1.660 136.166  0.00  0.00    +0.000 C 
BRANCH  75  76
ATOM     76  C   UNL     1      -2.084  -2.813 136.496  0.00  0.00    +0.000 A 
ATOM     77  C   UNL     1      -1.151  -3.427 135.606  0.00  0.00    +0.000 A 
ATOM     78  C   UNL     1      -0.443  -4.535 136.005  0.00  0.00    +0.000 A 
ATOM     79  C   UNL     1      -0.715  -5.055 137.252  0.00  0.00    +0.000 A 
ATOM     80  C   UNL     1      -1.751  -4.557 138.027  0.00  0.00    +0.000 A 
ATOM     81  C   UNL     1      -2.471  -3.475 137.626  0.00  0.00    +0.000 A 
BRANCH  79  82
ATOM     82  O   UNL     1      -0.014  -6.074 137.808  0.00  0.00    +0.000 OA
ATOM     83  H   UNL     1      -0.532  -6.889 137.878  0.00  0.00    +0.000 HD
ENDBRANCH  79  82
ENDBRANCH  75  76
ENDBRANCH   5  75
BRANCH  22  84
ATOM     84  C   UNL     1      -4.969   7.179 131.777  0.00  0.00    +0.000 C 
BRANCH  84  85
ATOM     85  C   UNL     1      -3.877   7.564 130.874  0.00  0.00    +0.000 C 
BRANCH  85  86
ATOM     86  C   UNL     1      -4.092   7.983 129.552  0.00  0.00    +0.000 C 
ATOM     87  N   UNL     1      -4.135   9.311 129.599  0.00  0.00    +0.000 N 
ATOM     88  O   UNL     1      -4.139   7.214 128.612  0.00  0.00    +0.000 OA
ATOM     89  H   UNL     1      -4.087   9.851 130.456  0.00  0.00    +0.000 HD
ATOM     90  H   UNL     1      -4.199   9.748 128.724  0.00  0.00    +0.000 HD
ENDBRANCH  85  86
ENDBRANCH  84  85
ENDBRANCH  22  84
TORSDOF 22
ENDMDL
MODEL 9
REMARK VINA RESULT:      -9.8      4.085      9.229
REMARK  Name = CHEMBL4474284
REMARK  26 active torsions:
REMARK  status: ('A' for Active; 'I' for Inactive)
REMARK    1  A    between atoms: C_1  and  C_2
REMARK    2  A    between atoms: C_2  and  C_3
REMARK    3  A    between atoms: C_3  and  C_4
REMARK    4  A    between atoms: C_3  and  C_5
REMARK    5  A    between atoms: C_9  and  C_10
REMARK    6  A    between atoms: C_10  and  C_11
REMARK    7  A    between atoms: C_14  and  O_15
REMARK    8  A    between atoms: C_21  and  N_22
REMARK    9  A    between atoms: C_27  and  C_28
REMARK   10  A    between atoms: N_30  and  C_31
REMARK   11  A    between atoms: N_30  and  C_47
REMARK   12  A    between atoms: C_31  and  C_32
REMARK   13  A    between atoms: N_34  and  C_35
REMARK   14  A    between atoms: C_35  and  C_36
REMARK   15  A    between atoms: C_35  and  C_40
REMARK   16  A    between atoms: C_36  and  C_37
REMARK   17  A    between atoms: C_37  and  C_38
REMARK   18  A    between atoms: C_37  and  C_39
REMARK   19  A    between atoms: N_42  and  C_43
REMARK   20  A    between atoms: C_43  and  C_44
REMARK   21  A    between atoms: C_47  and  C_48
REMARK   22  A    between atoms: C_58  and  C_59
REMARK   23  A    between atoms: C_59  and  C_60
REMARK   24  A    between atoms: C_66  and  C_67
REMARK   25  A    between atoms: C_67  and  C_68
REMARK   26  A    between atoms: C_68  and  C_69
REMARK                            x       y       z     vdW  Elec       q    Type
REMARK                         _______ _______ _______ _____ _____    ______ ____
ROOT
ATOM      1  C   UNL     1      -6.510  -3.507 132.445  0.00  0.00    +0.000 C 
ATOM      2  N   UNL     1      -6.397  -4.430 134.409  0.00  0.00    +0.000 N 
ATOM      3  C   UNL     1      -6.403  -5.284 136.327  0.00  0.00    +0.000 C 
ATOM      4  O   UNL     1      -5.398  -5.880 137.333  0.00  0.00    +0.000 OA
ATOM      5  C   UNL     1      -7.133  -4.816 138.252  0.00  0.00    +0.000 C 
ATOM      6  N   UNL     1      -6.919  -3.497 139.197  0.00  0.00    +0.000 N 
ATOM      7  C   UNL     1      -6.001  -2.574 138.847  0.00  0.00    +0.000 C 
ATOM      8  O   UNL     1      -5.883  -1.486 139.405  0.00  0.00    +0.000 OA
ATOM      9  C   UNL     1      -5.090  -2.767 137.657  0.00  0.00    +0.000 C 
ATOM     10  C   UNL     1      -5.559  -2.326 136.349  0.00  0.00    +0.000 C 
ATOM     11  S   UNL     1      -4.913  -0.996 137.041  0.00  0.00    +0.000 S 
ATOM     12  S   UNL     1      -5.674  -0.005 134.949  0.00  0.00    +0.000 S 
ATOM     13  C   UNL     1      -4.548   2.266 134.811  0.00  0.00    +0.000 C 
ATOM     14  C   UNL     1      -4.947   3.386 133.898  0.00  0.00    +0.000 C 
ATOM     15  N   UNL     1      -4.307   2.861 132.834  0.00  0.00    +0.000 N 
ATOM     16  C   UNL     1      -4.534   1.616 132.499  0.00  0.00    +0.000 C 
ATOM     17  O   UNL     1      -3.753   1.214 131.657  0.00  0.00    +0.000 OA
ATOM     18  C   UNL     1      -5.762   0.739 132.996  0.00  0.00    +0.000 C 
ATOM     19  N   UNL     1      -7.026   0.215 132.608  0.00  0.00    +0.000 N 
ATOM     20  C   UNL     1      -6.871  -0.503 131.566  0.00  0.00    +0.000 C 
ATOM     21  O   UNL     1      -8.201  -1.052 131.394  0.00  0.00    +0.000 OA
ATOM     22  C   UNL     1      -4.942  -0.782 130.406  0.00  0.00    +0.000 C 
ATOM     23  N   UNL     1      -4.577  -2.599 130.389  0.00  0.00    +0.000 N 
ATOM     24  C   UNL     1      -5.520  -3.682 130.763  0.00  0.00    +0.000 C 
ATOM     25  O   UNL     1      -5.755  -4.386 129.765  0.00  0.00    +0.000 OA
ATOM     26  H   UNL     1      -5.909  -5.440 135.253  0.00  0.00    +0.000 HD
ATOM     27  H   UNL     1      -7.435  -3.178 140.088  0.00  0.00    +0.000 HD
ATOM     28  H   UNL     1      -3.545   3.386 132.496  0.00  0.00    +0.000 HD
ATOM     29  H   UNL     1      -7.943   0.638 132.571  0.00  0.00    +0.000 HD
ATOM     30  H   UNL     1      -4.095  -2.869 131.218  0.00  0.00    +0.000 HD
ENDROOT
BRANCH   9  31
ATOM     31  N   UNL     1      -5.231  -3.931 137.070  0.00  0.00    +0.000 NA
ATOM     32  H   UNL     1      -4.238  -4.119 137.070  0.00  0.00    +0.000 HD
ATOM     33  H   UNL     1      -5.356  -3.666 136.089  0.00  0.00    +0.000 HD
ENDBRANCH   9  31
BRANCH  14  34
ATOM     34  C   UNL     1      -4.562   4.837 134.455  0.00  0.00    +0.000 C 
ATOM     35  O   UNL     1      -4.628   4.923 135.682  0.00  0.00    +0.000 OA
ATOM     36  N   UNL     1      -4.211   5.958 133.603  0.00  0.00    +0.000 N 
BRANCH  36  37
ATOM     37  C   UNL     1      -4.189   6.022 132.049  0.00  0.00    +0.000 C 
BRANCH  37  38
ATOM     38  C   UNL     1      -5.517   5.815 131.301  0.00  0.00    +0.000 C 
ATOM     39  O   UNL     1      -5.766   4.727 130.817  0.00  0.00    +0.000 OA
ATOM     40  N   UNL     1      -6.644   6.547 131.436  0.00  0.00    +0.000 N 
ATOM     41  H   UNL     1      -6.602   7.475 131.772  0.00  0.00    +0.000 HD
BRANCH  40  42
ATOM     42  C   UNL     1      -8.020   6.000 131.283  0.00  0.00    +0.000 C 
BRANCH  42  43
ATOM     43  C   UNL     1      -8.976   6.930 130.615  0.00  0.00    +0.000 C 
ATOM     44  O   UNL     1      -8.455   7.859 130.007  0.00  0.00    +0.000 OA
ATOM     45  N   UNL     1     -10.346   6.770 130.758  0.00  0.00    +0.000 N 
ATOM     46  H   UNL     1     -10.756   6.045 131.328  0.00  0.00    +0.000 HD
BRANCH  45  47
ATOM     47  C   UNL     1     -11.250   7.643 130.030  0.00  0.00    +0.000 C 
BRANCH  47  48
ATOM     48  C   UNL     1     -11.151   7.521 128.505  0.00  0.00    +0.000 C 
ATOM     49  N   UNL     1     -10.671   8.615 127.808  0.00  0.00    +0.000 N 
ATOM     50  O   UNL     1     -11.450   6.482 127.920  0.00  0.00    +0.000 OA
ATOM     51  H   UNL     1     -10.295   9.461 128.202  0.00  0.00    +0.000 HD
ATOM     52  H   UNL     1     -10.530   8.532 126.807  0.00  0.00    +0.000 HD
ENDBRANCH  47  48
ENDBRANCH  45  47
ENDBRANCH  42  43
BRANCH  42  53
ATOM     53  C   UNL     1      -8.689   6.112 132.565  0.00  0.00    +0.000 C 
BRANCH  53  54
ATOM     54  C   UNL     1      -8.412   4.717 133.561  0.00  0.00    +0.000 C 
ATOM     55  C   UNL     1      -8.190   4.675 134.946  0.00  0.00    +0.000 C 
ATOM     56  C   UNL     1      -9.203   2.869 133.222  0.00  0.00    +0.000 C 
ENDBRANCH  53  54
ENDBRANCH  42  53
ENDBRANCH  40  42
ENDBRANCH  37  38
ENDBRANCH  36  37
BRANCH  36  57
ATOM     57  C   UNL     1      -3.912   7.225 134.282  0.00  0.00    +0.000 C 
BRANCH  57  58
ATOM     58  C   UNL     1      -2.586   7.822 133.881  0.00  0.00    +0.000 A 
ATOM     59  C   UNL     1      -2.451   9.204 133.720  0.00  0.00    +0.000 A 
ATOM     60  C   UNL     1      -1.223   9.772 133.421  0.00  0.00    +0.000 A 
ATOM     61  C   UNL     1      -0.119   8.962 133.282  0.00  0.00    +0.000 A 
ATOM     62  F   UNL     1       1.061   9.504 132.977  0.00  0.00    +0.000 F 
ATOM     63  C   UNL     1      -0.224   7.596 133.450  0.00  0.00    +0.000 A 
ATOM     64  C   UNL     1      -1.455   7.027 133.749  0.00  0.00    +0.000 A 
ENDBRANCH  57  58
ENDBRANCH  36  57
ENDBRANCH  14  34
BRANCH   1  65
ATOM     65  C   UNL     1      -6.938  -2.376 130.400  0.00  0.00    +0.000 C 
ATOM     66  C   UNL     1      -7.344  -1.857 128.370  0.00  0.00    +0.000 C 
BRANCH  65  68
ATOM     67  C   UNL     1      -9.154  -4.151 128.266  0.00  0.00    +0.000 C 
ATOM     68  C   UNL     1      -8.132  -2.662 128.846  0.00  0.00    +0.000 C 
ENDBRANCH  65  68
ENDBRANCH   1  65
BRANCH  18  69
ATOM     69  C   UNL     1      -4.662  -0.904 133.453  0.00  0.00    +0.000 C 
BRANCH  69  70
ATOM     70  C   UNL     1      -3.378  -0.838 133.663  0.00  0.00    +0.000 C 
ATOM     71  N   UNL     1      -3.583  -2.007 133.414  0.00  0.00    +0.000 N 
ATOM     72  O   UNL     1      -2.452  -0.157 133.813  0.00  0.00    +0.000 OA
ATOM     73  H   UNL     1      -4.234  -2.563 132.696  0.00  0.00    +0.000 HD
ATOM     74  H   UNL     1      -2.774  -2.597 133.524  0.00  0.00    +0.000 HD
ENDBRANCH  69  70
ENDBRANCH  18  69
BRANCH   5  75
ATOM     75  C   UNL     1      -8.168  -4.692 137.347  0.00  0.00    +0.000 C 
BRANCH  75  76
ATOM     76  C   UNL     1      -9.171  -4.054 138.265  0.00  0.00    +0.000 A 
ATOM     77  C   UNL     1      -9.894  -4.715 139.304  0.00  0.00    +0.000 A 
ATOM     78  C   UNL     1     -10.852  -4.035 140.019  0.00  0.00    +0.000 A 
ATOM     79  C   UNL     1     -11.122  -2.733 139.652  0.00  0.00    +0.000 A 
ATOM     80  C   UNL     1     -10.541  -2.170 138.527  0.00  0.00    +0.000 A 
ATOM     81  C   UNL     1      -9.611  -2.847 137.802  0.00  0.00    +0.000 A 
BRANCH  79  82
ATOM     82  O   UNL     1     -11.959  -1.920 140.341  0.00  0.00    +0.000 OA
ATOM     83  H   UNL     1     -12.280  -2.323 141.161  0.00  0.00    +0.000 HD
ENDBRANCH  79  82
ENDBRANCH  75  76
ENDBRANCH   5  75
BRANCH  22  84
ATOM     84  C   UNL     1      -4.309  -0.228 129.192  0.00  0.00    +0.000 C 
BRANCH  84  85
ATOM     85  C   UNL     1      -5.344   0.554 128.503  0.00  0.00    +0.000 C 
BRANCH  85  86
ATOM     86  C   UNL     1      -5.740   1.833 128.924  0.00  0.00    +0.000 C 
ATOM     87  N   UNL     1      -4.622   2.548 129.001  0.00  0.00    +0.000 N 
ATOM     88  O   UNL     1      -6.903   2.147 129.085  0.00  0.00    +0.000 OA
ATOM     89  H   UNL     1      -3.695   2.170 128.843  0.00  0.00    +0.000 HD
ATOM     90  H   UNL     1      -4.758   3.496 129.207  0.00  0.00    +0.000 HD
ENDBRANCH  85  86
ENDBRANCH  84  85
ENDBRANCH  22  84
TORSDOF 22
ENDMDL
