MODEL 1
REMARK VINA RESULT:     -10.6      0.000      0.000
REMARK  Name = CHEMBL24816
REMARK  8 active torsions:
REMARK  status: ('A' for Active; 'I' for Inactive)
REMARK    1  A    between atoms: C_1  and  C_2
REMARK    2  A    between atoms: N_4  and  C_5
REMARK    3  A    between atoms: C_7  and  C_8
REMARK    4  A    between atoms: N_20  and  C_21
REMARK    5  A    between atoms: C_21  and  C_22
REMARK    6  A    between atoms: N_24  and  C_25
REMARK    7  A    between atoms: C_25  and  C_26
REMARK    8  A    between atoms: C_26  and  C_27
REMARK                            x       y       z     vdW  Elec       q    Type
REMARK                         _______ _______ _______ _____ _____    ______ ____
ROOT
ATOM      1  C   UNL     1      -8.102   4.558 129.525  0.00  0.00    +0.000 C 
ATOM      2  N   UNL     1      -8.592   3.807 128.353  0.00  0.00    +0.000 NA
ATOM      3  C   UNL     1      -7.788   3.043 127.677  0.00  0.00    +0.000 C 
ATOM      4  C   UNL     1      -6.326   2.883 127.930  0.00  0.00    +0.000 A 
ATOM      5  C   UNL     1      -5.464   2.758 126.836  0.00  0.00    +0.000 A 
ATOM      6  C   UNL     1      -4.090   2.585 127.014  0.00  0.00    +0.000 A 
ATOM      7  C   UNL     1      -3.547   2.602 128.282  0.00  0.00    +0.000 A 
ATOM      8  C   UNL     1      -4.377   2.845 129.357  0.00  0.00    +0.000 A 
ATOM      9  C   UNL     1      -5.768   2.859 129.205  0.00  0.00    +0.000 A 
ATOM     10  N   UNL     1      -6.540   2.724 130.364  0.00  0.00    +0.000 N 
ATOM     11  C   UNL     1      -7.540   3.615 130.639  0.00  0.00    +0.000 C 
ATOM     12  O   UNL     1      -7.814   3.706 131.839  0.00  0.00    +0.000 OA
ENDROOT
BRANCH   3  13
ATOM     13  C   UNL     1      -8.370   2.276 126.528  0.00  0.00    +0.000 A 
ATOM     14  C   UNL     1      -8.334   2.814 125.240  0.00  0.00    +0.000 A 
ATOM     15  C   UNL     1      -9.113   2.251 124.228  0.00  0.00    +0.000 A 
ATOM     16  C   UNL     1      -9.741   1.033 124.440  0.00  0.00    +0.000 A 
ATOM     17  C   UNL     1      -9.567   0.374 125.655  0.00  0.00    +0.000 A 
ATOM     18  C   UNL     1      -8.979   1.038 126.734  0.00  0.00    +0.000 A 
ENDBRANCH   3  13
BRANCH   1  22
ATOM     19  C   UNL     1     -11.009   7.086 129.946  0.00  0.00    +0.000 C 
ATOM     20  C   UNL     1      -9.932   6.288 129.297  0.00  0.00    +0.000 C 
ATOM     21  O   UNL     1      -9.816   6.505 128.092  0.00  0.00    +0.000 OA
ATOM     22  N   UNL     1      -9.171   5.423 130.079  0.00  0.00    +0.000 N 
ATOM     23  H   UNL     1      -9.195   5.503 131.086  0.00  0.00    +0.000 HD
ENDBRANCH   1  22
BRANCH  10  24
ATOM     24  C   UNL     1      -6.152   1.808 131.487  0.00  0.00    +0.000 C 
BRANCH  24  25
ATOM     25  C   UNL     1      -6.828   0.363 131.517  0.00  0.00    +0.000 C 
ATOM     26  O   UNL     1      -7.870   0.142 130.895  0.00  0.00    +0.000 OA
ATOM     27  N   UNL     1      -6.346  -0.741 132.238  0.00  0.00    +0.000 N 
ATOM     28  H   UNL     1      -5.680  -0.496 132.967  0.00  0.00    +0.000 HD
BRANCH  27  29
ATOM     29  C   UNL     1      -7.097  -2.207 132.006  0.00  0.00    +0.000 C 
BRANCH  29  30
ATOM     30  C   UNL     1      -7.392  -3.122 130.363  0.00  0.00    +0.000 C 
BRANCH  30  31
ATOM     31  C   UNL     1      -7.210  -2.848 128.375  0.00  0.00    +0.000 A 
ATOM     32  C   UNL     1      -8.272  -3.392 128.843  0.00  0.00    +0.000 A 
ATOM     33  C   UNL     1      -8.256  -2.541 127.950  0.00  0.00    +0.000 A 
ATOM     34  C   UNL     1      -8.953  -3.219 126.821  0.00  0.00    +0.000 A 
ATOM     35  C   UNL     1      -8.470  -2.907 125.695  0.00  0.00    +0.000 A 
ATOM     36  C   UNL     1      -9.281  -3.200 124.285  0.00  0.00    +0.000 A 
ATOM     37  C   UNL     1      -8.899  -2.977 122.982  0.00  0.00    +0.000 A 
ATOM     38  C   UNL     1      -7.805  -2.193 123.061  0.00  0.00    +0.000 A 
ATOM     39  C   UNL     1      -7.133  -1.896 124.591  0.00  0.00    +0.000 A 
ATOM     40  C   UNL     1      -7.327  -2.488 126.288  0.00  0.00    +0.000 A 
ENDBRANCH  30  31
ENDBRANCH  29  30
ENDBRANCH  27  29
ENDBRANCH  24  25
ENDBRANCH  10  24
TORSDOF 7
ENDMDL
MODEL 2
REMARK VINA RESULT:     -10.5      4.943      7.769
REMARK  Name = CHEMBL24816
REMARK  8 active torsions:
REMARK  status: ('A' for Active; 'I' for Inactive)
REMARK    1  A    between atoms: C_1  and  C_2
REMARK    2  A    between atoms: N_4  and  C_5
REMARK    3  A    between atoms: C_7  and  C_8
REMARK    4  A    between atoms: N_20  and  C_21
REMARK    5  A    between atoms: C_21  and  C_22
REMARK    6  A    between atoms: N_24  and  C_25
REMARK    7  A    between atoms: C_25  and  C_26
REMARK    8  A    between atoms: C_26  and  C_27
REMARK                            x       y       z     vdW  Elec       q    Type
REMARK                         _______ _______ _______ _____ _____    ______ ____
ROOT
ATOM      1  C   UNL     1      -9.810   5.884 130.324  0.00  0.00    +0.000 C 
ATOM      2  N   UNL     1      -8.392   6.193 130.065  0.00  0.00    +0.000 NA
ATOM      3  C   UNL     1      -7.485   5.928 130.957  0.00  0.00    +0.000 C 
ATOM      4  C   UNL     1      -7.744   5.371 132.317  0.00  0.00    +0.000 A 
ATOM      5  C   UNL     1      -6.977   5.835 133.391  0.00  0.00    +0.000 A 
ATOM      6  C   UNL     1      -7.163   5.336 134.682  0.00  0.00    +0.000 A 
ATOM      7  C   UNL     1      -8.160   4.416 134.934  0.00  0.00    +0.000 A 
ATOM      8  C   UNL     1      -8.997   4.044 133.901  0.00  0.00    +0.000 A 
ATOM      9  C   UNL     1      -8.720   4.414 132.580  0.00  0.00    +0.000 A 
ATOM     10  N   UNL     1      -9.369   3.700 131.567  0.00  0.00    +0.000 N 
ATOM     11  C   UNL     1     -10.046   4.358 130.578  0.00  0.00    +0.000 C 
ATOM     12  O   UNL     1     -10.941   3.690 130.053  0.00  0.00    +0.000 OA
ENDROOT
BRANCH   3  13
ATOM     13  C   UNL     1      -6.060   6.227 130.602  0.00  0.00    +0.000 A 
ATOM     14  C   UNL     1      -5.565   7.526 130.740  0.00  0.00    +0.000 A 
ATOM     15  C   UNL     1      -4.347   7.872 130.154  0.00  0.00    +0.000 A 
ATOM     16  C   UNL     1      -3.527   6.882 129.633  0.00  0.00    +0.000 A 
ATOM     17  C   UNL     1      -3.920   5.549 129.723  0.00  0.00    +0.000 A 
ATOM     18  C   UNL     1      -5.225   5.227 130.103  0.00  0.00    +0.000 A 
ENDBRANCH   3  13
BRANCH   1  22
ATOM     19  C   UNL     1     -12.672   7.415 128.207  0.00  0.00    +0.000 C 
ATOM     20  C   UNL     1     -11.911   6.942 129.397  0.00  0.00    +0.000 C 
ATOM     21  O   UNL     1     -12.503   7.113 130.461  0.00  0.00    +0.000 OA
ATOM     22  N   UNL     1     -10.663   6.353 129.207  0.00  0.00    +0.000 N 
ATOM     23  H   UNL     1     -10.386   6.051 128.283  0.00  0.00    +0.000 HD
ENDBRANCH   1  22
BRANCH  10  24
ATOM     24  C   UNL     1      -9.607   2.221 131.651  0.00  0.00    +0.000 C 
BRANCH  24  25
ATOM     25  C   UNL     1      -8.324   1.273 131.657  0.00  0.00    +0.000 C 
ATOM     26  O   UNL     1      -7.810   0.903 130.598  0.00  0.00    +0.000 OA
ATOM     27  N   UNL     1      -7.696   0.769 132.807  0.00  0.00    +0.000 N 
ATOM     28  H   UNL     1      -8.270   0.822 133.644  0.00  0.00    +0.000 HD
BRANCH  27  29
ATOM     29  C   UNL     1      -6.270  -0.065 132.610  0.00  0.00    +0.000 C 
BRANCH  29  30
ATOM     30  C   UNL     1      -4.494   0.595 132.806  0.00  0.00    +0.000 C 
BRANCH  30  31
ATOM     31  C   UNL     1      -3.410   2.263 132.487  0.00  0.00    +0.000 A 
ATOM     32  C   UNL     1      -4.470   2.327 133.205  0.00  0.00    +0.000 A 
ATOM     33  C   UNL     1      -3.407   2.893 133.474  0.00  0.00    +0.000 A 
ATOM     34  C   UNL     1      -3.801   4.326 133.573  0.00  0.00    +0.000 A 
ATOM     35  C   UNL     1      -2.906   5.107 133.143  0.00  0.00    +0.000 A 
ATOM     36  C   UNL     1      -2.916   6.724 133.487  0.00  0.00    +0.000 A 
ATOM     37  C   UNL     1      -2.064   7.722 133.073  0.00  0.00    +0.000 A 
ATOM     38  C   UNL     1      -1.009   7.085 132.526  0.00  0.00    +0.000 A 
ATOM     39  C   UNL     1      -1.099   5.403 132.322  0.00  0.00    +0.000 A 
ATOM     40  C   UNL     1      -2.335   4.091 132.453  0.00  0.00    +0.000 A 
ENDBRANCH  30  31
ENDBRANCH  29  30
ENDBRANCH  27  29
ENDBRANCH  24  25
ENDBRANCH  10  24
TORSDOF 7
ENDMDL
MODEL 3
REMARK VINA RESULT:     -10.4      4.380      9.193
REMARK  Name = CHEMBL24816
REMARK  8 active torsions:
REMARK  status: ('A' for Active; 'I' for Inactive)
REMARK    1  A    between atoms: C_1  and  C_2
REMARK    2  A    between atoms: N_4  and  C_5
REMARK    3  A    between atoms: C_7  and  C_8
REMARK    4  A    between atoms: N_20  and  C_21
REMARK    5  A    between atoms: C_21  and  C_22
REMARK    6  A    between atoms: N_24  and  C_25
REMARK    7  A    between atoms: C_25  and  C_26
REMARK    8  A    between atoms: C_26  and  C_27
REMARK                            x       y       z     vdW  Elec       q    Type
REMARK                         _______ _______ _______ _____ _____    ______ ____
ROOT
ATOM      1  C   UNL     1      -9.971   6.172 130.645  0.00  0.00    +0.000 C 
ATOM      2  N   UNL     1      -9.023   6.380 131.755  0.00  0.00    +0.000 NA
ATOM      3  C   UNL     1      -8.371   5.377 132.262  0.00  0.00    +0.000 C 
ATOM      4  C   UNL     1      -8.533   3.948 131.864  0.00  0.00    +0.000 A 
ATOM      5  C   UNL     1      -8.473   2.963 132.855  0.00  0.00    +0.000 A 
ATOM      6  C   UNL     1      -8.597   1.609 132.538  0.00  0.00    +0.000 A 
ATOM      7  C   UNL     1      -8.851   1.221 131.239  0.00  0.00    +0.000 A 
ATOM      8  C   UNL     1      -9.030   2.195 130.277  0.00  0.00    +0.000 A 
ATOM      9  C   UNL     1      -8.751   3.538 130.551  0.00  0.00    +0.000 A 
ATOM     10  N   UNL     1      -8.582   4.393 129.457  0.00  0.00    +0.000 N 
ATOM     11  C   UNL     1      -9.278   5.568 129.379  0.00  0.00    +0.000 C 
ATOM     12  O   UNL     1      -9.434   5.983 128.228  0.00  0.00    +0.000 OA
ENDROOT
BRANCH   3  13
ATOM     13  C   UNL     1      -7.390   5.675 133.356  0.00  0.00    +0.000 A 
ATOM     14  C   UNL     1      -6.045   5.888 133.047  0.00  0.00    +0.000 A 
ATOM     15  C   UNL     1      -5.089   5.881 134.063  0.00  0.00    +0.000 A 
ATOM     16  C   UNL     1      -5.493   5.890 135.390  0.00  0.00    +0.000 A 
ATOM     17  C   UNL     1      -6.852   5.929 135.692  0.00  0.00    +0.000 A 
ATOM     18  C   UNL     1      -7.800   5.710 134.689  0.00  0.00    +0.000 A 
ENDBRANCH   3  13
BRANCH   1  22
ATOM     19  C   UNL     1     -12.594   8.827 129.599  0.00  0.00    +0.000 C 
ATOM     20  C   UNL     1     -11.988   7.498 129.891  0.00  0.00    +0.000 C 
ATOM     21  O   UNL     1     -12.759   6.556 129.718  0.00  0.00    +0.000 OA
ATOM     22  N   UNL     1     -10.657   7.439 130.295  0.00  0.00    +0.000 N 
ATOM     23  H   UNL     1     -10.059   8.245 130.172  0.00  0.00    +0.000 HD
ENDBRANCH   1  22
BRANCH  10  24
ATOM     24  C   UNL     1      -7.881   3.964 128.201  0.00  0.00    +0.000 C 
BRANCH  24  25
ATOM     25  C   UNL     1      -6.312   4.241 128.110  0.00  0.00    +0.000 C 
ATOM     26  O   UNL     1      -5.615   4.254 129.129  0.00  0.00    +0.000 OA
ATOM     27  N   UNL     1      -5.605   4.509 126.928  0.00  0.00    +0.000 N 
ATOM     28  H   UNL     1      -6.197   4.787 126.150  0.00  0.00    +0.000 HD
BRANCH  27  29
ATOM     29  C   UNL     1      -3.946   4.604 127.020  0.00  0.00    +0.000 C 
BRANCH  29  30
ATOM     30  C   UNL     1      -2.900   5.839 128.022  0.00  0.00    +0.000 C 
BRANCH  30  31
ATOM     31  C   UNL     1      -2.198   6.129 129.888  0.00  0.00    +0.000 A 
ATOM     32  C   UNL     1      -3.063   6.943 129.406  0.00  0.00    +0.000 A 
ATOM     33  C   UNL     1      -3.082   6.503 130.559  0.00  0.00    +0.000 A 
ATOM     34  C   UNL     1      -3.059   7.737 131.393  0.00  0.00    +0.000 A 
ATOM     35  C   UNL     1      -2.392   7.591 132.458  0.00  0.00    +0.000 A 
ATOM     36  C   UNL     1      -2.522   8.647 133.722  0.00  0.00    +0.000 A 
ATOM     37  C   UNL     1      -1.852   8.675 134.924  0.00  0.00    +0.000 A 
ATOM     38  C   UNL     1      -1.229   7.483 135.012  0.00  0.00    +0.000 A 
ATOM     39  C   UNL     1      -1.260   6.454 133.663  0.00  0.00    +0.000 A 
ATOM     40  C   UNL     1      -1.756   6.520 131.926  0.00  0.00    +0.000 A 
ENDBRANCH  30  31
ENDBRANCH  29  30
ENDBRANCH  27  29
ENDBRANCH  24  25
ENDBRANCH  10  24
TORSDOF 7
ENDMDL
MODEL 4
REMARK VINA RESULT:     -10.2      2.404      4.457
REMARK  Name = CHEMBL24816
REMARK  8 active torsions:
REMARK  status: ('A' for Active; 'I' for Inactive)
REMARK    1  A    between atoms: C_1  and  C_2
REMARK    2  A    between atoms: N_4  and  C_5
REMARK    3  A    between atoms: C_7  and  C_8
REMARK    4  A    between atoms: N_20  and  C_21
REMARK    5  A    between atoms: C_21  and  C_22
REMARK    6  A    between atoms: N_24  and  C_25
REMARK    7  A    between atoms: C_25  and  C_26
REMARK    8  A    between atoms: C_26  and  C_27
REMARK                            x       y       z     vdW  Elec       q    Type
REMARK                         _______ _______ _______ _____ _____    ______ ____
ROOT
ATOM      1  C   UNL     1      -9.425   5.603 130.125  0.00  0.00    +0.000 C 
ATOM      2  N   UNL     1      -7.972   5.703 129.896  0.00  0.00    +0.000 NA
ATOM      3  C   UNL     1      -7.134   5.442 130.854  0.00  0.00    +0.000 C 
ATOM      4  C   UNL     1      -7.502   5.095 132.258  0.00  0.00    +0.000 A 
ATOM      5  C   UNL     1      -6.716   5.593 133.302  0.00  0.00    +0.000 A 
ATOM      6  C   UNL     1      -7.003   5.283 134.633  0.00  0.00    +0.000 A 
ATOM      7  C   UNL     1      -8.115   4.530 134.948  0.00  0.00    +0.000 A 
ATOM      8  C   UNL     1      -8.960   4.137 133.930  0.00  0.00    +0.000 A 
ATOM      9  C   UNL     1      -8.599   4.304 132.588  0.00  0.00    +0.000 A 
ATOM     10  N   UNL     1      -9.301   3.554 131.639  0.00  0.00    +0.000 N 
ATOM     11  C   UNL     1      -9.860   4.161 130.548  0.00  0.00    +0.000 C 
ATOM     12  O   UNL     1     -10.815   3.547 130.067  0.00  0.00    +0.000 OA
ENDROOT
BRANCH   3  13
ATOM     13  C   UNL     1      -5.671   5.520 130.531  0.00  0.00    +0.000 A 
ATOM     14  C   UNL     1      -5.025   6.757 130.519  0.00  0.00    +0.000 A 
ATOM     15  C   UNL     1      -3.756   6.874 129.951  0.00  0.00    +0.000 A 
ATOM     16  C   UNL     1      -3.048   5.732 129.606  0.00  0.00    +0.000 A 
ATOM     17  C   UNL     1      -3.605   4.480 129.855  0.00  0.00    +0.000 A 
ATOM     18  C   UNL     1      -4.951   4.369 130.211  0.00  0.00    +0.000 A 
ENDBRANCH   3  13
BRANCH   1  22
ATOM     19  C   UNL     1     -10.994   7.673 127.249  0.00  0.00    +0.000 C 
ATOM     20  C   UNL     1     -10.242   7.354 128.494  0.00  0.00    +0.000 C 
ATOM     21  O   UNL     1      -9.757   8.342 129.043  0.00  0.00    +0.000 OA
ATOM     22  N   UNL     1     -10.177   6.030 128.921  0.00  0.00    +0.000 N 
ATOM     23  H   UNL     1     -10.807   5.345 128.528  0.00  0.00    +0.000 HD
ENDBRANCH   1  22
BRANCH  10  24
ATOM     24  C   UNL     1      -9.727   2.136 131.888  0.00  0.00    +0.000 C 
BRANCH  24  25
ATOM     25  C   UNL     1      -8.667   0.988 131.566  0.00  0.00    +0.000 C 
ATOM     26  O   UNL     1      -7.769   1.174 130.740  0.00  0.00    +0.000 OA
ATOM     27  N   UNL     1      -8.663  -0.293 132.139  0.00  0.00    +0.000 N 
ATOM     28  H   UNL     1      -9.543  -0.548 132.579  0.00  0.00    +0.000 HD
BRANCH  27  29
ATOM     29  C   UNL     1      -7.376  -1.291 131.800  0.00  0.00    +0.000 C 
BRANCH  29  30
ATOM     30  C   UNL     1      -7.126  -2.398 130.271  0.00  0.00    +0.000 C 
BRANCH  30  31
ATOM     31  C   UNL     1      -7.119  -2.294 128.260  0.00  0.00    +0.000 A 
ATOM     32  C   UNL     1      -8.053  -2.938 128.855  0.00  0.00    +0.000 A 
ATOM     33  C   UNL     1      -8.226  -2.183 127.894  0.00  0.00    +0.000 A 
ATOM     34  C   UNL     1      -8.885  -3.061 126.887  0.00  0.00    +0.000 A 
ATOM     35  C   UNL     1      -8.531  -2.793 125.703  0.00  0.00    +0.000 A 
ATOM     36  C   UNL     1      -9.379  -3.335 124.393  0.00  0.00    +0.000 A 
ATOM     37  C   UNL     1      -9.123  -3.186 123.049  0.00  0.00    +0.000 A 
ATOM     38  C   UNL     1      -8.157  -2.248 122.973  0.00  0.00    +0.000 A 
ATOM     39  C   UNL     1      -7.438  -1.711 124.414  0.00  0.00    +0.000 A 
ATOM     40  C   UNL     1      -7.427  -2.157 126.165  0.00  0.00    +0.000 A 
ENDBRANCH  30  31
ENDBRANCH  29  30
ENDBRANCH  27  29
ENDBRANCH  24  25
ENDBRANCH  10  24
TORSDOF 7
ENDMDL
MODEL 5
REMARK VINA RESULT:      -9.9      1.373      1.591
REMARK  Name = CHEMBL24816
REMARK  8 active torsions:
REMARK  status: ('A' for Active; 'I' for Inactive)
REMARK    1  A    between atoms: C_1  and  C_2
REMARK    2  A    between atoms: N_4  and  C_5
REMARK    3  A    between atoms: C_7  and  C_8
REMARK    4  A    between atoms: N_20  and  C_21
REMARK    5  A    between atoms: C_21  and  C_22
REMARK    6  A    between atoms: N_24  and  C_25
REMARK    7  A    between atoms: C_25  and  C_26
REMARK    8  A    between atoms: C_26  and  C_27
REMARK                            x       y       z     vdW  Elec       q    Type
REMARK                         _______ _______ _______ _____ _____    ______ ____
ROOT
ATOM      1  C   UNL     1      -7.995   4.705 129.223  0.00  0.00    +0.000 C 
ATOM      2  N   UNL     1      -8.171   4.067 127.906  0.00  0.00    +0.000 NA
ATOM      3  C   UNL     1      -7.140   3.667 127.224  0.00  0.00    +0.000 C 
ATOM      4  C   UNL     1      -5.713   3.852 127.621  0.00  0.00    +0.000 A 
ATOM      5  C   UNL     1      -4.772   4.146 126.629  0.00  0.00    +0.000 A 
ATOM      6  C   UNL     1      -3.421   4.309 126.941  0.00  0.00    +0.000 A 
ATOM      7  C   UNL     1      -2.998   4.249 128.252  0.00  0.00    +0.000 A 
ATOM      8  C   UNL     1      -3.940   4.077 129.247  0.00  0.00    +0.000 A 
ATOM      9  C   UNL     1      -5.266   3.755 128.936  0.00  0.00    +0.000 A 
ATOM     10  N   UNL     1      -6.053   3.226 129.963  0.00  0.00    +0.000 N 
ATOM     11  C   UNL     1      -7.278   3.764 130.247  0.00  0.00    +0.000 C 
ATOM     12  O   UNL     1      -7.653   3.573 131.407  0.00  0.00    +0.000 OA
ENDROOT
BRANCH   3  13
ATOM     13  C   UNL     1      -7.401   2.984 125.915  0.00  0.00    +0.000 A 
ATOM     14  C   UNL     1      -6.776   1.770 125.625  0.00  0.00    +0.000 A 
ATOM     15  C   UNL     1      -6.786   1.276 124.320  0.00  0.00    +0.000 A 
ATOM     16  C   UNL     1      -7.600   1.868 123.366  0.00  0.00    +0.000 A 
ATOM     17  C   UNL     1      -8.417   2.935 123.729  0.00  0.00    +0.000 A 
ATOM     18  C   UNL     1      -8.241   3.564 124.965  0.00  0.00    +0.000 A 
ENDBRANCH   3  13
BRANCH   1  22
ATOM     19  C   UNL     1     -10.893   6.812 130.700  0.00  0.00    +0.000 C 
ATOM     20  C   UNL     1      -9.535   6.454 130.204  0.00  0.00    +0.000 C 
ATOM     21  O   UNL     1      -8.731   7.384 130.255  0.00  0.00    +0.000 OA
ATOM     22  N   UNL     1      -9.298   5.153 129.769  0.00  0.00    +0.000 N 
ATOM     23  H   UNL     1      -9.957   4.421 129.994  0.00  0.00    +0.000 HD
ENDBRANCH   1  22
BRANCH  10  24
ATOM     24  C   UNL     1      -5.511   2.263 130.979  0.00  0.00    +0.000 C 
BRANCH  24  25
ATOM     25  C   UNL     1      -5.993   0.745 130.877  0.00  0.00    +0.000 C 
ATOM     26  O   UNL     1      -5.377  -0.065 130.179  0.00  0.00    +0.000 OA
ATOM     27  N   UNL     1      -7.123   0.210 131.515  0.00  0.00    +0.000 N 
ATOM     28  H   UNL     1      -7.782   0.913 131.838  0.00  0.00    +0.000 HD
BRANCH  27  29
ATOM     29  C   UNL     1      -7.362  -1.433 131.421  0.00  0.00    +0.000 C 
BRANCH  29  30
ATOM     30  C   UNL     1      -7.520  -2.503 129.853  0.00  0.00    +0.000 C 
BRANCH  30  31
ATOM     31  C   UNL     1      -6.919  -2.544 127.931  0.00  0.00    +0.000 A 
ATOM     32  C   UNL     1      -8.159  -2.363 128.201  0.00  0.00    +0.000 A 
ATOM     33  C   UNL     1      -7.533  -1.743 127.337  0.00  0.00    +0.000 A 
ATOM     34  C   UNL     1      -8.311  -2.010 126.096  0.00  0.00    +0.000 A 
ATOM     35  C   UNL     1      -7.574  -2.115 125.074  0.00  0.00    +0.000 A 
ATOM     36  C   UNL     1      -8.186  -2.024 123.541  0.00  0.00    +0.000 A 
ATOM     37  C   UNL     1      -7.554  -2.161 122.326  0.00  0.00    +0.000 A 
ATOM     38  C   UNL     1      -6.236  -2.116 122.604  0.00  0.00    +0.000 A 
ATOM     39  C   UNL     1      -5.753  -2.117 124.231  0.00  0.00    +0.000 A 
ATOM     40  C   UNL     1      -6.498  -2.356 125.860  0.00  0.00    +0.000 A 
ENDBRANCH  30  31
ENDBRANCH  29  30
ENDBRANCH  27  29
ENDBRANCH  24  25
ENDBRANCH  10  24
TORSDOF 7
ENDMDL
MODEL 6
REMARK VINA RESULT:      -9.9      2.567      6.140
REMARK  Name = CHEMBL24816
REMARK  8 active torsions:
REMARK  status: ('A' for Active; 'I' for Inactive)
REMARK    1  A    between atoms: C_1  and  C_2
REMARK    2  A    between atoms: N_4  and  C_5
REMARK    3  A    between atoms: C_7  and  C_8
REMARK    4  A    between atoms: N_20  and  C_21
REMARK    5  A    between atoms: C_21  and  C_22
REMARK    6  A    between atoms: N_24  and  C_25
REMARK    7  A    between atoms: C_25  and  C_26
REMARK    8  A    between atoms: C_26  and  C_27
REMARK                            x       y       z     vdW  Elec       q    Type
REMARK                         _______ _______ _______ _____ _____    ______ ____
ROOT
ATOM      1  C   UNL     1      -5.264   3.992 131.063  0.00  0.00    +0.000 C 
ATOM      2  N   UNL     1      -4.624   2.675 131.233  0.00  0.00    +0.000 NA
ATOM      3  C   UNL     1      -5.345   1.597 131.311  0.00  0.00    +0.000 C 
ATOM      4  C   UNL     1      -6.836   1.549 131.312  0.00  0.00    +0.000 A 
ATOM      5  C   UNL     1      -7.480   0.620 132.136  0.00  0.00    +0.000 A 
ATOM      6  C   UNL     1      -8.872   0.519 132.162  0.00  0.00    +0.000 A 
ATOM      7  C   UNL     1      -9.646   1.385 131.419  0.00  0.00    +0.000 A 
ATOM      8  C   UNL     1      -9.020   2.381 130.696  0.00  0.00    +0.000 A 
ATOM      9  C   UNL     1      -7.630   2.392 130.537  0.00  0.00    +0.000 A 
ATOM     10  N   UNL     1      -7.110   3.177 129.503  0.00  0.00    +0.000 N 
ATOM     11  C   UNL     1      -6.109   4.075 129.749  0.00  0.00    +0.000 C 
ATOM     12  O   UNL     1      -6.065   5.010 128.944  0.00  0.00    +0.000 OA
ENDROOT
BRANCH   3  13
ATOM     13  C   UNL     1      -4.620   0.290 131.436  0.00  0.00    +0.000 A 
ATOM     14  C   UNL     1      -4.178  -0.145 132.686  0.00  0.00    +0.000 A 
ATOM     15  C   UNL     1      -3.268  -1.200 132.774  0.00  0.00    +0.000 A 
ATOM     16  C   UNL     1      -2.981  -1.957 131.648  0.00  0.00    +0.000 A 
ATOM     17  C   UNL     1      -3.623  -1.669 130.447  0.00  0.00    +0.000 A 
ATOM     18  C   UNL     1      -4.353  -0.486 130.308  0.00  0.00    +0.000 A 
ENDBRANCH   3  13
BRANCH   1  22
ATOM     19  C   UNL     1      -3.428   7.369 131.560  0.00  0.00    +0.000 C 
ATOM     20  C   UNL     1      -4.527   6.364 131.540  0.00  0.00    +0.000 C 
ATOM     21  O   UNL     1      -5.608   6.807 131.923  0.00  0.00    +0.000 OA
ATOM     22  N   UNL     1      -4.252   5.075 131.088  0.00  0.00    +0.000 N 
ATOM     23  H   UNL     1      -3.398   4.893 130.579  0.00  0.00    +0.000 HD
ENDBRANCH   1  22
BRANCH  10  24
ATOM     24  C   UNL     1      -7.784   3.298 128.168  0.00  0.00    +0.000 C 
BRANCH  24  25
ATOM     25  C   UNL     1      -7.776   2.010 127.226  0.00  0.00    +0.000 C 
ATOM     26  O   UNL     1      -6.719   1.584 126.752  0.00  0.00    +0.000 OA
ATOM     27  N   UNL     1      -8.912   1.283 126.838  0.00  0.00    +0.000 N 
ATOM     28  H   UNL     1      -9.786   1.785 126.974  0.00  0.00    +0.000 HD
BRANCH  27  29
ATOM     29  C   UNL     1      -8.679  -0.129 125.990  0.00  0.00    +0.000 C 
BRANCH  29  30
ATOM     30  C   UNL     1      -8.364  -1.873 126.687  0.00  0.00    +0.000 C 
BRANCH  30  31
ATOM     31  C   UNL     1      -7.284  -2.809 128.107  0.00  0.00    +0.000 A 
ATOM     32  C   UNL     1      -8.115  -1.893 128.447  0.00  0.00    +0.000 A 
ATOM     33  C   UNL     1      -7.967  -2.962 129.046  0.00  0.00    +0.000 A 
ATOM     34  C   UNL     1      -7.626  -2.530 130.430  0.00  0.00    +0.000 A 
ATOM     35  C   UNL     1      -6.791  -3.300 130.987  0.00  0.00    +0.000 A 
ATOM     36  C   UNL     1      -6.538  -3.281 132.620  0.00  0.00    +0.000 A 
ATOM     37  C   UNL     1      -5.650  -4.001 133.386  0.00  0.00    +0.000 A 
ATOM     38  C   UNL     1      -5.180  -4.967 132.572  0.00  0.00    +0.000 A 
ATOM     39  C   UNL     1      -5.602  -4.915 130.929  0.00  0.00    +0.000 A 
ATOM     40  C   UNL     1      -6.411  -3.780 129.779  0.00  0.00    +0.000 A 
ENDBRANCH  30  31
ENDBRANCH  29  30
ENDBRANCH  27  29
ENDBRANCH  24  25
ENDBRANCH  10  24
TORSDOF 7
ENDMDL
MODEL 7
REMARK VINA RESULT:      -9.4      3.171      5.030
REMARK  Name = CHEMBL24816
REMARK  8 active torsions:
REMARK  status: ('A' for Active; 'I' for Inactive)
REMARK    1  A    between atoms: C_1  and  C_2
REMARK    2  A    between atoms: N_4  and  C_5
REMARK    3  A    between atoms: C_7  and  C_8
REMARK    4  A    between atoms: N_20  and  C_21
REMARK    5  A    between atoms: C_21  and  C_22
REMARK    6  A    between atoms: N_24  and  C_25
REMARK    7  A    between atoms: C_25  and  C_26
REMARK    8  A    between atoms: C_26  and  C_27
REMARK                            x       y       z     vdW  Elec       q    Type
REMARK                         _______ _______ _______ _____ _____    ______ ____
ROOT
ATOM      1  C   UNL     1      -5.981   5.725 131.598  0.00  0.00    +0.000 C 
ATOM      2  N   UNL     1      -7.285   6.376 131.376  0.00  0.00    +0.000 NA
ATOM      3  C   UNL     1      -8.338   5.667 131.101  0.00  0.00    +0.000 C 
ATOM      4  C   UNL     1      -8.361   4.188 130.909  0.00  0.00    +0.000 A 
ATOM      5  C   UNL     1      -9.192   3.650 129.921  0.00  0.00    +0.000 A 
ATOM      6  C   UNL     1      -9.268   2.271 129.711  0.00  0.00    +0.000 A 
ATOM      7  C   UNL     1      -8.468   1.414 130.436  0.00  0.00    +0.000 A 
ATOM      8  C   UNL     1      -7.559   1.947 131.328  0.00  0.00    +0.000 A 
ATOM      9  C   UNL     1      -7.587   3.306 131.660  0.00  0.00    +0.000 A 
ATOM     10  N   UNL     1      -6.918   3.695 132.825  0.00  0.00    +0.000 N 
ATOM     11  C   UNL     1      -6.016   4.722 132.798  0.00  0.00    +0.000 C 
ATOM     12  O   UNL     1      -5.167   4.668 133.692  0.00  0.00    +0.000 OA
ENDROOT
BRANCH   3  13
ATOM     13  C   UNL     1      -9.637   6.397 130.936  0.00  0.00    +0.000 A 
ATOM     14  C   UNL     1     -10.642   6.257 131.896  0.00  0.00    +0.000 A 
ATOM     15  C   UNL     1     -11.937   6.693 131.615  0.00  0.00    +0.000 A 
ATOM     16  C   UNL     1     -12.176   7.463 130.487  0.00  0.00    +0.000 A 
ATOM     17  C   UNL     1     -11.113   7.812 129.658  0.00  0.00    +0.000 A 
ATOM     18  C   UNL     1      -9.870   7.193 129.814  0.00  0.00    +0.000 A 
ENDBRANCH   3  13
BRANCH   1  22
ATOM     19  C   UNL     1      -3.314   8.492 131.096  0.00  0.00    +0.000 C 
ATOM     20  C   UNL     1      -4.350   7.472 130.772  0.00  0.00    +0.000 C 
ATOM     21  O   UNL     1      -4.587   7.374 129.569  0.00  0.00    +0.000 OA
ATOM     22  N   UNL     1      -4.918   6.736 131.809  0.00  0.00    +0.000 N 
ATOM     23  H   UNL     1      -4.480   6.732 132.720  0.00  0.00    +0.000 HD
ENDBRANCH   1  22
BRANCH  10  24
ATOM     24  C   UNL     1      -6.920   2.858 134.071  0.00  0.00    +0.000 C 
BRANCH  24  25
ATOM     25  C   UNL     1      -6.001   1.553 134.076  0.00  0.00    +0.000 C 
ATOM     26  O   UNL     1      -6.484   0.445 134.325  0.00  0.00    +0.000 OA
ATOM     27  N   UNL     1      -4.619   1.536 133.835  0.00  0.00    +0.000 N 
ATOM     28  H   UNL     1      -4.176   2.447 133.922  0.00  0.00    +0.000 HD
BRANCH  27  29
ATOM     29  C   UNL     1      -3.870   0.055 133.717  0.00  0.00    +0.000 C 
BRANCH  29  30
ATOM     30  C   UNL     1      -4.050  -1.239 132.332  0.00  0.00    +0.000 C 
BRANCH  30  31
ATOM     31  C   UNL     1      -5.063  -1.553 130.619  0.00  0.00    +0.000 A 
ATOM     32  C   UNL     1      -5.413  -2.177 131.683  0.00  0.00    +0.000 A 
ATOM     33  C   UNL     1      -6.199  -1.666 130.879  0.00  0.00    +0.000 A 
ATOM     34  C   UNL     1      -7.060  -2.811 130.472  0.00  0.00    +0.000 A 
ATOM     35  C   UNL     1      -7.406  -2.750 129.257  0.00  0.00    +0.000 A 
ATOM     36  C   UNL     1      -8.650  -3.657 128.656  0.00  0.00    +0.000 A 
ATOM     37  C   UNL     1      -9.132  -3.757 127.371  0.00  0.00    +0.000 A 
ATOM     38  C   UNL     1      -8.562  -2.738 126.697  0.00  0.00    +0.000 A 
ATOM     39  C   UNL     1      -7.362  -1.825 127.477  0.00  0.00    +0.000 A 
ATOM     40  C   UNL     1      -6.388  -1.894 128.998  0.00  0.00    +0.000 A 
ENDBRANCH  30  31
ENDBRANCH  29  30
ENDBRANCH  27  29
ENDBRANCH  24  25
ENDBRANCH  10  24
TORSDOF 7
ENDMDL
MODEL 8
REMARK VINA RESULT:      -9.4      1.683      1.875
REMARK  Name = CHEMBL24816
REMARK  8 active torsions:
REMARK  status: ('A' for Active; 'I' for Inactive)
REMARK    1  A    between atoms: C_1  and  C_2
REMARK    2  A    between atoms: N_4  and  C_5
REMARK    3  A    between atoms: C_7  and  C_8
REMARK    4  A    between atoms: N_20  and  C_21
REMARK    5  A    between atoms: C_21  and  C_22
REMARK    6  A    between atoms: N_24  and  C_25
REMARK    7  A    between atoms: C_25  and  C_26
REMARK    8  A    between atoms: C_26  and  C_27
REMARK                            x       y       z     vdW  Elec       q    Type
REMARK                         _______ _______ _______ _____ _____    ______ ____
ROOT
ATOM      1  C   UNL     1      -8.069   5.001 129.534  0.00  0.00    +0.000 C 
ATOM      2  N   UNL     1      -7.967   4.277 128.253  0.00  0.00    +0.000 NA
ATOM      3  C   UNL     1      -6.806   4.018 127.733  0.00  0.00    +0.000 C 
ATOM      4  C   UNL     1      -5.491   4.454 128.287  0.00  0.00    +0.000 A 
ATOM      5  C   UNL     1      -4.484   4.849 127.400  0.00  0.00    +0.000 A 
ATOM      6  C   UNL     1      -3.228   5.247 127.862  0.00  0.00    +0.000 A 
ATOM      7  C   UNL     1      -2.978   5.322 129.217  0.00  0.00    +0.000 A 
ATOM      8  C   UNL     1      -4.005   5.049 130.098  0.00  0.00    +0.000 A 
ATOM      9  C   UNL     1      -5.211   4.498 129.651  0.00  0.00    +0.000 A 
ATOM     10  N   UNL     1      -6.035   3.899 130.609  0.00  0.00    +0.000 N 
ATOM     11  C   UNL     1      -7.356   4.243 130.702  0.00  0.00    +0.000 C 
ATOM     12  O   UNL     1      -7.847   4.051 131.817  0.00  0.00    +0.000 OA
ENDROOT
BRANCH   3  13
ATOM     13  C   UNL     1      -6.782   3.237 126.453  0.00  0.00    +0.000 A 
ATOM     14  C   UNL     1      -7.324   3.787 125.290  0.00  0.00    +0.000 A 
ATOM     15  C   UNL     1      -7.562   2.974 124.182  0.00  0.00    +0.000 A 
ATOM     16  C   UNL     1      -7.058   1.683 124.153  0.00  0.00    +0.000 A 
ATOM     17  C   UNL     1      -6.298   1.220 125.224  0.00  0.00    +0.000 A 
ATOM     18  C   UNL     1      -6.251   1.948 126.417  0.00  0.00    +0.000 A 
ENDBRANCH   3  13
BRANCH   1  22
ATOM     19  C   UNL     1     -11.479   6.680 130.290  0.00  0.00    +0.000 C 
ATOM     20  C   UNL     1     -10.032   6.535 129.970  0.00  0.00    +0.000 C 
ATOM     21  O   UNL     1      -9.447   7.607 129.832  0.00  0.00    +0.000 OA
ATOM     22  N   UNL     1      -9.487   5.256 129.882  0.00  0.00    +0.000 N 
ATOM     23  H   UNL     1     -10.001   4.466 130.247  0.00  0.00    +0.000 HD
ENDBRANCH   1  22
BRANCH  10  24
ATOM     24  C   UNL     1      -5.488   3.091 131.749  0.00  0.00    +0.000 C 
BRANCH  24  25
ATOM     25  C   UNL     1      -5.267   1.530 131.497  0.00  0.00    +0.000 C 
ATOM     26  O   UNL     1      -6.095   0.705 131.893  0.00  0.00    +0.000 OA
ATOM     27  N   UNL     1      -4.154   0.964 130.857  0.00  0.00    +0.000 N 
ATOM     28  H   UNL     1      -3.354   1.588 130.797  0.00  0.00    +0.000 HD
BRANCH  27  29
ATOM     29  C   UNL     1      -4.188  -0.669 130.541  0.00  0.00    +0.000 C 
BRANCH  29  30
ATOM     30  C   UNL     1      -5.471  -1.635 129.518  0.00  0.00    +0.000 C 
BRANCH  30  31
ATOM     31  C   UNL     1      -6.038  -1.925 127.607  0.00  0.00    +0.000 A 
ATOM     32  C   UNL     1      -6.830  -2.261 128.558  0.00  0.00    +0.000 A 
ATOM     33  C   UNL     1      -7.182  -1.688 127.523  0.00  0.00    +0.000 A 
ATOM     34  C   UNL     1      -8.206  -2.608 126.957  0.00  0.00    +0.000 A 
ATOM     35  C   UNL     1      -8.183  -2.644 125.693  0.00  0.00    +0.000 A 
ATOM     36  C   UNL     1      -9.435  -3.265 124.812  0.00  0.00    +0.000 A 
ATOM     37  C   UNL     1      -9.565  -3.429 123.452  0.00  0.00    +0.000 A 
ATOM     38  C   UNL     1      -8.557  -2.716 122.911  0.00  0.00    +0.000 A 
ATOM     39  C   UNL     1      -7.390  -2.050 123.948  0.00  0.00    +0.000 A 
ATOM     40  C   UNL     1      -6.924  -2.143 125.692  0.00  0.00    +0.000 A 
ENDBRANCH  30  31
ENDBRANCH  29  30
ENDBRANCH  27  29
ENDBRANCH  24  25
ENDBRANCH  10  24
TORSDOF 7
ENDMDL
MODEL 9
REMARK VINA RESULT:      -9.3      4.277      8.933
REMARK  Name = CHEMBL24816
REMARK  8 active torsions:
REMARK  status: ('A' for Active; 'I' for Inactive)
REMARK    1  A    between atoms: C_1  and  C_2
REMARK    2  A    between atoms: N_4  and  C_5
REMARK    3  A    between atoms: C_7  and  C_8
REMARK    4  A    between atoms: N_20  and  C_21
REMARK    5  A    between atoms: C_21  and  C_22
REMARK    6  A    between atoms: N_24  and  C_25
REMARK    7  A    between atoms: C_25  and  C_26
REMARK    8  A    between atoms: C_26  and  C_27
REMARK                            x       y       z     vdW  Elec       q    Type
REMARK                         _______ _______ _______ _____ _____    ______ ____
ROOT
ATOM      1  C   UNL     1      -7.822   0.146 124.273  0.00  0.00    +0.000 C 
ATOM      2  N   UNL     1      -7.379   1.103 123.243  0.00  0.00    +0.000 NA
ATOM      3  C   UNL     1      -7.155   2.345 123.550  0.00  0.00    +0.000 C 
ATOM      4  C   UNL     1      -7.371   2.959 124.892  0.00  0.00    +0.000 A 
ATOM      5  C   UNL     1      -7.873   4.263 124.964  0.00  0.00    +0.000 A 
ATOM      6  C   UNL     1      -8.076   4.894 126.192  0.00  0.00    +0.000 A 
ATOM      7  C   UNL     1      -7.847   4.212 127.369  0.00  0.00    +0.000 A 
ATOM      8  C   UNL     1      -7.466   2.887 127.306  0.00  0.00    +0.000 A 
ATOM      9  C   UNL     1      -7.107   2.297 126.088  0.00  0.00    +0.000 A 
ATOM     10  N   UNL     1      -6.379   1.104 126.145  0.00  0.00    +0.000 N 
ATOM     11  C   UNL     1      -6.786   0.007 125.438  0.00  0.00    +0.000 C 
ATOM     12  O   UNL     1      -6.398  -1.065 125.908  0.00  0.00    +0.000 OA
ENDROOT
BRANCH   3  13
ATOM     13  C   UNL     1      -6.662   3.247 122.458  0.00  0.00    +0.000 A 
ATOM     14  C   UNL     1      -7.451   3.471 121.329  0.00  0.00    +0.000 A 
ATOM     15  C   UNL     1      -6.893   4.067 120.197  0.00  0.00    +0.000 A 
ATOM     16  C   UNL     1      -5.631   4.638 120.271  0.00  0.00    +0.000 A 
ATOM     17  C   UNL     1      -4.945   4.630 121.483  0.00  0.00    +0.000 A 
ATOM     18  C   UNL     1      -5.404   3.844 122.542  0.00  0.00    +0.000 A 
ENDBRANCH   3  13
BRANCH   1  22
ATOM     19  C   UNL     1      -9.275  -3.358 123.477  0.00  0.00    +0.000 C 
ATOM     20  C   UNL     1      -9.050  -2.062 124.177  0.00  0.00    +0.000 C 
ATOM     21  O   UNL     1      -9.750  -1.915 125.178  0.00  0.00    +0.000 OA
ATOM     22  N   UNL     1      -8.095  -1.182 123.674  0.00  0.00    +0.000 N 
ATOM     23  H   UNL     1      -7.421  -1.508 122.996  0.00  0.00    +0.000 HD
ENDBRANCH   1  22
BRANCH  10  24
ATOM     24  C   UNL     1      -5.312   0.861 127.172  0.00  0.00    +0.000 C 
BRANCH  24  25
ATOM     25  C   UNL     1      -4.259   2.034 127.424  0.00  0.00    +0.000 C 
ATOM     26  O   UNL     1      -3.890   2.313 128.568  0.00  0.00    +0.000 OA
ATOM     27  N   UNL     1      -3.695   2.843 126.425  0.00  0.00    +0.000 N 
ATOM     28  H   UNL     1      -4.202   2.821 125.545  0.00  0.00    +0.000 HD
BRANCH  27  29
ATOM     29  C   UNL     1      -2.490   3.899 126.871  0.00  0.00    +0.000 C 
BRANCH  29  30
ATOM     30  C   UNL     1      -2.548   5.235 128.227  0.00  0.00    +0.000 C 
BRANCH  30  31
ATOM     31  C   UNL     1      -3.007   5.453 130.177  0.00  0.00    +0.000 A 
ATOM     32  C   UNL     1      -2.231   6.303 129.612  0.00  0.00    +0.000 A 
ATOM     33  C   UNL     1      -3.137   6.596 130.397  0.00  0.00    +0.000 A 
ATOM     34  C   UNL     1      -2.426   7.345 131.471  0.00  0.00    +0.000 A 
ATOM     35  C   UNL     1      -2.912   7.130 132.618  0.00  0.00    +0.000 A 
ATOM     36  C   UNL     1      -2.578   8.108 133.907  0.00  0.00    +0.000 A 
ATOM     37  C   UNL     1      -2.972   8.005 135.222  0.00  0.00    +0.000 A 
ATOM     38  C   UNL     1      -3.945   7.072 135.229  0.00  0.00    +0.000 A 
ATOM     39  C   UNL     1      -4.247   6.208 133.799  0.00  0.00    +0.000 A 
ATOM     40  C   UNL     1      -3.499   5.995 132.168  0.00  0.00    +0.000 A 
ENDBRANCH  30  31
ENDBRANCH  29  30
ENDBRANCH  27  29
ENDBRANCH  24  25
ENDBRANCH  10  24
TORSDOF 7
ENDMDL
