MODEL 1
REMARK VINA RESULT:     -11.9      0.000      0.000
REMARK  Name = CHEMBL282767
REMARK  7 active torsions:
REMARK  status: ('A' for Active; 'I' for Inactive)
REMARK    1  A    between atoms: C_2  and  C_3
REMARK    2  A    between atoms: C_3  and  N_4
REMARK    3  A    between atoms: C_6  and  C_7
REMARK    4  A    between atoms: N_15  and  C_16
REMARK    5  A    between atoms: C_16  and  C_17
REMARK    6  A    between atoms: C_21  and  C_22
REMARK    7  A    between atoms: C_27  and  N_28
REMARK                            x       y       z     vdW  Elec       q    Type
REMARK                         _______ _______ _______ _____ _____    ______ ____
ROOT
ATOM      1  C   UNL     1      -7.820  -2.731 127.650  0.00  0.00    +0.000 A 
ATOM      2  N   UNL     1      -8.643  -3.060 128.639  0.00  0.00    +0.000 NA
ATOM      3  C   UNL     1      -7.995  -2.751 129.819  0.00  0.00    +0.000 A 
ATOM      4  C   UNL     1      -7.882  -1.504 130.488  0.00  0.00    +0.000 A 
ATOM      5  C   UNL     1      -6.890  -1.249 131.462  0.00  0.00    +0.000 A 
ATOM      6  C   UNL     1      -6.222  -2.353 132.010  0.00  0.00    +0.000 A 
ATOM      7  C   UNL     1      -6.320  -3.588 131.338  0.00  0.00    +0.000 A 
ATOM      8  C   UNL     1      -6.874  -3.562 130.009  0.00  0.00    +0.000 A 
ATOM      9  S   UNL     1      -6.145  -2.633 128.314  0.00  0.00    +0.000 S 
ENDROOT
BRANCH   5  10
ATOM     10  C   UNL     1      -6.394   0.163 131.725  0.00  0.00    +0.000 C 
ATOM     11  O   UNL     1      -5.185   0.304 131.917  0.00  0.00    +0.000 OA
ATOM     12  N   UNL     1      -7.298   1.271 131.584  0.00  0.00    +0.000 N 
ATOM     13  C   UNL     1      -7.074   2.357 130.620  0.00  0.00    +0.000 C 
ATOM     14  C   UNL     1      -7.377   3.778 131.198  0.00  0.00    +0.000 C 
ATOM     15  C   UNL     1      -9.126   4.113 131.694  0.00  0.00    +0.000 C 
ATOM     16  C   UNL     1      -8.958   2.750 132.845  0.00  0.00    +0.000 C 
ATOM     17  C   UNL     1      -8.612   1.355 132.224  0.00  0.00    +0.000 C 
BRANCH  15  18
ATOM     18  N   UNL     1     -10.534   5.006 130.813  0.00  0.00    +0.000 N 
ATOM     19  C   UNL     1      -9.581   6.071 130.975  0.00  0.00    +0.000 C 
ATOM     20  O   UNL     1      -9.025   6.486 132.038  0.00  0.00    +0.000 OA
ATOM     21  O   UNL     1      -9.127   6.561 129.845  0.00  0.00    +0.000 OA
ATOM     22  C   UNL     1      -9.930   7.683 129.815  0.00  0.00    +0.000 C 
ATOM     23  C   UNL     1     -10.884   7.024 128.956  0.00  0.00    +0.000 A 
ATOM     24  C   UNL     1     -10.808   7.150 127.503  0.00  0.00    +0.000 A 
ATOM     25  C   UNL     1     -11.834   7.341 126.606  0.00  0.00    +0.000 A 
ATOM     26  C   UNL     1     -12.992   7.258 127.290  0.00  0.00    +0.000 A 
ATOM     27  C   UNL     1     -12.921   6.501 128.768  0.00  0.00    +0.000 A 
ATOM     28  C   UNL     1     -11.554   6.040 129.574  0.00  0.00    +0.000 A 
ENDBRANCH  15  18
ENDBRANCH   5  10
BRANCH   1  29
ATOM     29  C   UNL     1      -8.288  -2.710 126.160  0.00  0.00    +0.000 C 
BRANCH  29  32
ATOM     30  O   UNL     1      -6.025  -1.867 123.434  0.00  0.00    +0.000 OA
ATOM     31  C   UNL     1      -6.731  -1.663 124.427  0.00  0.00    +0.000 C 
ATOM     32  N   UNL     1      -7.361  -2.758 125.027  0.00  0.00    +0.000 N 
ATOM     33  H   UNL     1      -7.106  -3.643 124.604  0.00  0.00    +0.000 HD
BRANCH  31  34
ATOM     34  C   UNL     1      -6.958  -0.222 124.994  0.00  0.00    +0.000 C 
BRANCH  34  35
ATOM     35  N   UNL     1      -7.552   0.724 124.024  0.00  0.00    +0.000 N 
ATOM     36  C   UNL     1      -6.746   1.492 123.190  0.00  0.00    +0.000 A 
ATOM     37  C   UNL     1      -7.241   2.533 122.493  0.00  0.00    +0.000 A 
ATOM     38  C   UNL     1      -8.677   2.736 122.461  0.00  0.00    +0.000 A 
ATOM     39  C   UNL     1      -9.496   1.890 123.099  0.00  0.00    +0.000 A 
ATOM     40  C   UNL     1      -8.941   0.871 124.034  0.00  0.00    +0.000 A 
ATOM     41  O   UNL     1      -9.704   0.232 124.751  0.00  0.00    +0.000 OA
BRANCH  37  42
ATOM     42  C   UNL     1      -6.386   3.504 121.732  0.00  0.00    +0.000 C 
ATOM     43  F   UNL     1      -7.099   4.212 120.821  0.00  0.00    +0.000 F 
ATOM     44  F   UNL     1      -5.804   4.408 122.563  0.00  0.00    +0.000 F 
ATOM     45  F   UNL     1      -5.381   2.889 121.058  0.00  0.00    +0.000 F 
ENDBRANCH  37  42
ENDBRANCH  34  35
ENDBRANCH  31  34
ENDBRANCH  29  32
ENDBRANCH   1  29
TORSDOF 7
ENDMDL
MODEL 2
REMARK VINA RESULT:     -11.8      1.198      1.485
REMARK  Name = CHEMBL282767
REMARK  7 active torsions:
REMARK  status: ('A' for Active; 'I' for Inactive)
REMARK    1  A    between atoms: C_2  and  C_3
REMARK    2  A    between atoms: C_3  and  N_4
REMARK    3  A    between atoms: C_6  and  C_7
REMARK    4  A    between atoms: N_15  and  C_16
REMARK    5  A    between atoms: C_16  and  C_17
REMARK    6  A    between atoms: C_21  and  C_22
REMARK    7  A    between atoms: C_27  and  N_28
REMARK                            x       y       z     vdW  Elec       q    Type
REMARK                         _______ _______ _______ _____ _____    ______ ____
ROOT
ATOM      1  C   UNL     1      -7.437  -2.616 127.518  0.00  0.00    +0.000 A 
ATOM      2  N   UNL     1      -8.400  -2.948 128.371  0.00  0.00    +0.000 NA
ATOM      3  C   UNL     1      -7.930  -2.661 129.637  0.00  0.00    +0.000 A 
ATOM      4  C   UNL     1      -7.903  -1.424 130.332  0.00  0.00    +0.000 A 
ATOM      5  C   UNL     1      -7.062  -1.193 131.445  0.00  0.00    +0.000 A 
ATOM      6  C   UNL     1      -6.494  -2.311 132.070  0.00  0.00    +0.000 A 
ATOM      7  C   UNL     1      -6.504  -3.536 131.374  0.00  0.00    +0.000 A 
ATOM      8  C   UNL     1      -6.857  -3.488 129.978  0.00  0.00    +0.000 A 
ATOM      9  S   UNL     1      -5.877  -2.546 128.422  0.00  0.00    +0.000 S 
ENDROOT
BRANCH   5  10
ATOM     10  C   UNL     1      -6.597   0.210 131.798  0.00  0.00    +0.000 C 
ATOM     11  O   UNL     1      -5.407   0.347 132.086  0.00  0.00    +0.000 OA
ATOM     12  N   UNL     1      -7.495   1.319 131.631  0.00  0.00    +0.000 N 
ATOM     13  C   UNL     1      -7.206   2.443 130.728  0.00  0.00    +0.000 C 
ATOM     14  C   UNL     1      -7.560   3.839 131.335  0.00  0.00    +0.000 C 
ATOM     15  C   UNL     1      -9.343   4.149 131.711  0.00  0.00    +0.000 C 
ATOM     16  C   UNL     1      -9.254   2.743 132.819  0.00  0.00    +0.000 C 
ATOM     17  C   UNL     1      -8.853   1.375 132.173  0.00  0.00    +0.000 C 
BRANCH  15  18
ATOM     18  N   UNL     1     -10.687   5.070 130.761  0.00  0.00    +0.000 N 
ATOM     19  C   UNL     1      -9.711   6.109 130.949  0.00  0.00    +0.000 C 
ATOM     20  O   UNL     1      -9.188   6.523 132.029  0.00  0.00    +0.000 OA
ATOM     21  O   UNL     1      -9.196   6.570 129.833  0.00  0.00    +0.000 OA
ATOM     22  C   UNL     1      -9.965   7.714 129.756  0.00  0.00    +0.000 C 
ATOM     23  C   UNL     1     -10.901   7.072 128.866  0.00  0.00    +0.000 A 
ATOM     24  C   UNL     1     -10.761   7.176 127.416  0.00  0.00    +0.000 A 
ATOM     25  C   UNL     1     -11.743   7.384 126.475  0.00  0.00    +0.000 A 
ATOM     26  C   UNL     1     -12.931   7.343 127.111  0.00  0.00    +0.000 A 
ATOM     27  C   UNL     1     -12.943   6.605 128.600  0.00  0.00    +0.000 A 
ATOM     28  C   UNL     1     -11.625   6.116 129.467  0.00  0.00    +0.000 A 
ENDBRANCH  15  18
ENDBRANCH   5  10
BRANCH   1  29
ATOM     29  C   UNL     1      -7.681  -2.572 125.976  0.00  0.00    +0.000 C 
BRANCH  29  32
ATOM     30  O   UNL     1      -5.692  -2.383 122.931  0.00  0.00    +0.000 OA
ATOM     31  C   UNL     1      -6.683  -2.223 123.650  0.00  0.00    +0.000 C 
ATOM     32  N   UNL     1      -6.598  -2.614 124.990  0.00  0.00    +0.000 N 
ATOM     33  H   UNL     1      -5.674  -2.938 125.252  0.00  0.00    +0.000 HD
BRANCH  31  34
ATOM     34  C   UNL     1      -8.021  -1.634 123.091  0.00  0.00    +0.000 C 
BRANCH  34  35
ATOM     35  N   UNL     1      -8.185  -0.182 123.319  0.00  0.00    +0.000 N 
ATOM     36  C   UNL     1      -7.159   0.575 123.872  0.00  0.00    +0.000 A 
ATOM     37  C   UNL     1      -7.369   1.826 124.325  0.00  0.00    +0.000 A 
ATOM     38  C   UNL     1      -8.643   2.465 124.054  0.00  0.00    +0.000 A 
ATOM     39  C   UNL     1      -9.585   1.827 123.348  0.00  0.00    +0.000 A 
ATOM     40  C   UNL     1      -9.432   0.379 123.031  0.00  0.00    +0.000 A 
ATOM     41  O   UNL     1     -10.379  -0.237 122.553  0.00  0.00    +0.000 OA
BRANCH  37  42
ATOM     42  C   UNL     1      -6.350   2.612 125.099  0.00  0.00    +0.000 C 
ATOM     43  F   UNL     1      -6.870   3.160 126.225  0.00  0.00    +0.000 F 
ATOM     44  F   UNL     1      -5.310   1.829 125.487  0.00  0.00    +0.000 F 
ATOM     45  F   UNL     1      -5.822   3.628 124.370  0.00  0.00    +0.000 F 
ENDBRANCH  37  42
ENDBRANCH  34  35
ENDBRANCH  31  34
ENDBRANCH  29  32
ENDBRANCH   1  29
TORSDOF 7
ENDMDL
MODEL 3
REMARK VINA RESULT:     -11.8      3.858      5.155
REMARK  Name = CHEMBL282767
REMARK  7 active torsions:
REMARK  status: ('A' for Active; 'I' for Inactive)
REMARK    1  A    between atoms: C_2  and  C_3
REMARK    2  A    between atoms: C_3  and  N_4
REMARK    3  A    between atoms: C_6  and  C_7
REMARK    4  A    between atoms: N_15  and  C_16
REMARK    5  A    between atoms: C_16  and  C_17
REMARK    6  A    between atoms: C_21  and  C_22
REMARK    7  A    between atoms: C_27  and  N_28
REMARK                            x       y       z     vdW  Elec       q    Type
REMARK                         _______ _______ _______ _____ _____    ______ ____
ROOT
ATOM      1  C   UNL     1      -5.121   3.138 126.459  0.00  0.00    +0.000 A 
ATOM      2  N   UNL     1      -3.907   2.680 126.741  0.00  0.00    +0.000 NA
ATOM      3  C   UNL     1      -3.440   3.415 127.813  0.00  0.00    +0.000 A 
ATOM      4  C   UNL     1      -3.695   3.251 129.200  0.00  0.00    +0.000 A 
ATOM      5  C   UNL     1      -3.473   4.281 130.143  0.00  0.00    +0.000 A 
ATOM      6  C   UNL     1      -2.678   5.364 129.743  0.00  0.00    +0.000 A 
ATOM      7  C   UNL     1      -2.439   5.538 128.366  0.00  0.00    +0.000 A 
ATOM      8  C   UNL     1      -3.239   4.752 127.462  0.00  0.00    +0.000 A 
ATOM      9  S   UNL     1      -5.284   4.789 127.170  0.00  0.00    +0.000 S 
ENDROOT
BRANCH   5  10
ATOM     10  C   UNL     1      -4.258   4.336 131.443  0.00  0.00    +0.000 C 
ATOM     11  O   UNL     1      -3.638   4.096 132.480  0.00  0.00    +0.000 OA
ATOM     12  N   UNL     1      -5.614   4.813 131.434  0.00  0.00    +0.000 N 
ATOM     13  C   UNL     1      -6.042   5.995 132.195  0.00  0.00    +0.000 C 
ATOM     14  C   UNL     1      -7.416   5.809 132.918  0.00  0.00    +0.000 C 
ATOM     15  C   UNL     1      -8.891   5.542 131.838  0.00  0.00    +0.000 C 
ATOM     16  C   UNL     1      -8.053   4.081 131.222  0.00  0.00    +0.000 C 
ATOM     17  C   UNL     1      -6.662   4.313 130.543  0.00  0.00    +0.000 C 
BRANCH  15  18
ATOM     18  N   UNL     1     -10.234   6.718 131.230  0.00  0.00    +0.000 N 
ATOM     19  C   UNL     1      -9.193   6.953 130.265  0.00  0.00    +0.000 C 
ATOM     20  O   UNL     1      -7.985   7.288 130.463  0.00  0.00    +0.000 OA
ATOM     21  O   UNL     1      -9.517   6.623 129.036  0.00  0.00    +0.000 OA
ATOM     22  C   UNL     1      -9.807   7.898 128.593  0.00  0.00    +0.000 C 
ATOM     23  C   UNL     1     -11.215   7.704 128.841  0.00  0.00    +0.000 A 
ATOM     24  C   UNL     1     -12.112   7.231 127.788  0.00  0.00    +0.000 A 
ATOM     25  C   UNL     1     -13.379   7.671 127.483  0.00  0.00    +0.000 A 
ATOM     26  C   UNL     1     -13.741   8.559 128.430  0.00  0.00    +0.000 A 
ATOM     27  C   UNL     1     -12.886   8.503 129.855  0.00  0.00    +0.000 A 
ATOM     28  C   UNL     1     -11.513   7.632 130.146  0.00  0.00    +0.000 A 
ENDBRANCH  15  18
ENDBRANCH   5  10
BRANCH   1  29
ATOM     29  C   UNL     1      -6.069   2.402 125.460  0.00  0.00    +0.000 C 
BRANCH  29  32
ATOM     30  O   UNL     1      -9.637   2.186 124.763  0.00  0.00    +0.000 OA
ATOM     31  C   UNL     1      -8.433   1.971 124.593  0.00  0.00    +0.000 C 
ATOM     32  N   UNL     1      -7.530   2.488 125.527  0.00  0.00    +0.000 N 
ATOM     33  H   UNL     1      -7.985   2.946 126.308  0.00  0.00    +0.000 HD
BRANCH  31  34
ATOM     34  C   UNL     1      -7.906   1.173 123.354  0.00  0.00    +0.000 C 
BRANCH  34  35
ATOM     35  N   UNL     1      -7.978  -0.298 123.505  0.00  0.00    +0.000 N 
ATOM     36  C   UNL     1      -6.884  -1.023 123.964  0.00  0.00    +0.000 A 
ATOM     37  C   UNL     1      -6.836  -2.365 123.865  0.00  0.00    +0.000 A 
ATOM     38  C   UNL     1      -8.027  -3.081 123.450  0.00  0.00    +0.000 A 
ATOM     39  C   UNL     1      -9.160  -2.418 123.188  0.00  0.00    +0.000 A 
ATOM     40  C   UNL     1      -9.154  -0.930 123.095  0.00  0.00    +0.000 A 
ATOM     41  O   UNL     1     -10.147  -0.349 122.672  0.00  0.00    +0.000 OA
BRANCH  37  42
ATOM     42  C   UNL     1      -5.610  -3.177 124.168  0.00  0.00    +0.000 C 
ATOM     43  F   UNL     1      -5.150  -2.964 125.427  0.00  0.00    +0.000 F 
ATOM     44  F   UNL     1      -5.858  -4.508 124.062  0.00  0.00    +0.000 F 
ATOM     45  F   UNL     1      -4.586  -2.902 123.320  0.00  0.00    +0.000 F 
ENDBRANCH  37  42
ENDBRANCH  34  35
ENDBRANCH  31  34
ENDBRANCH  29  32
ENDBRANCH   1  29
TORSDOF 7
ENDMDL
MODEL 4
REMARK VINA RESULT:     -11.2      5.691      7.622
REMARK  Name = CHEMBL282767
REMARK  7 active torsions:
REMARK  status: ('A' for Active; 'I' for Inactive)
REMARK    1  A    between atoms: C_2  and  C_3
REMARK    2  A    between atoms: C_3  and  N_4
REMARK    3  A    between atoms: C_6  and  C_7
REMARK    4  A    between atoms: N_15  and  C_16
REMARK    5  A    between atoms: C_16  and  C_17
REMARK    6  A    between atoms: C_21  and  C_22
REMARK    7  A    between atoms: C_27  and  N_28
REMARK                            x       y       z     vdW  Elec       q    Type
REMARK                         _______ _______ _______ _____ _____    ______ ____
ROOT
ATOM      1  C   UNL     1      -6.402   3.698 125.855  0.00  0.00    +0.000 A 
ATOM      2  N   UNL     1      -6.140   2.826 126.821  0.00  0.00    +0.000 NA
ATOM      3  C   UNL     1      -4.852   3.078 127.249  0.00  0.00    +0.000 A 
ATOM      4  C   UNL     1      -4.378   4.054 128.165  0.00  0.00    +0.000 A 
ATOM      5  C   UNL     1      -3.023   4.452 128.221  0.00  0.00    +0.000 A 
ATOM      6  C   UNL     1      -2.080   3.629 127.591  0.00  0.00    +0.000 A 
ATOM      7  C   UNL     1      -2.547   2.671 126.669  0.00  0.00    +0.000 A 
ATOM      8  C   UNL     1      -3.920   2.787 126.250  0.00  0.00    +0.000 A 
ATOM      9  S   UNL     1      -4.836   4.318 125.209  0.00  0.00    +0.000 S 
ENDROOT
BRANCH   5  10
ATOM     10  C   UNL     1      -2.631   5.832 128.725  0.00  0.00    +0.000 C 
ATOM     11  O   UNL     1      -2.313   6.666 127.877  0.00  0.00    +0.000 OA
ATOM     12  N   UNL     1      -2.798   6.153 130.116  0.00  0.00    +0.000 N 
ATOM     13  C   UNL     1      -3.671   7.241 130.578  0.00  0.00    +0.000 C 
ATOM     14  C   UNL     1      -3.045   8.100 131.725  0.00  0.00    +0.000 C 
ATOM     15  C   UNL     1      -2.706   7.230 133.320  0.00  0.00    +0.000 C 
ATOM     16  C   UNL     1      -1.624   6.147 132.386  0.00  0.00    +0.000 C 
ATOM     17  C   UNL     1      -2.287   5.339 131.221  0.00  0.00    +0.000 C 
BRANCH  15  18
ATOM     18  N   UNL     1      -3.669   7.150 134.939  0.00  0.00    +0.000 N 
ATOM     19  C   UNL     1      -2.613   8.064 135.282  0.00  0.00    +0.000 C 
ATOM     20  O   UNL     1      -1.358   7.901 135.188  0.00  0.00    +0.000 OA
ATOM     21  O   UNL     1      -3.027   9.272 135.585  0.00  0.00    +0.000 OA
ATOM     22  C   UNL     1      -2.952   9.135 136.957  0.00  0.00    +0.000 C 
ATOM     23  C   UNL     1      -4.355   8.811 137.040  0.00  0.00    +0.000 A 
ATOM     24  C   UNL     1      -5.357   9.845 137.289  0.00  0.00    +0.000 A 
ATOM     25  C   UNL     1      -6.452   9.791 138.120  0.00  0.00    +0.000 A 
ATOM     26  C   UNL     1      -6.542   8.533 138.594  0.00  0.00    +0.000 A 
ATOM     27  C   UNL     1      -5.724   7.365 137.739  0.00  0.00    +0.000 A 
ATOM     28  C   UNL     1      -4.650   7.615 136.510  0.00  0.00    +0.000 A 
ENDBRANCH  15  18
ENDBRANCH   5  10
BRANCH   1  29
ATOM     29  C   UNL     1      -7.844   3.885 125.281  0.00  0.00    +0.000 C 
BRANCH  29  32
ATOM     30  O   UNL     1      -9.023   2.581 122.092  0.00  0.00    +0.000 OA
ATOM     31  C   UNL     1      -8.882   2.623 123.318  0.00  0.00    +0.000 C 
ATOM     32  N   UNL     1      -8.175   3.698 123.867  0.00  0.00    +0.000 N 
ATOM     33  H   UNL     1      -7.902   4.387 123.176  0.00  0.00    +0.000 HD
BRANCH  31  34
ATOM     34  C   UNL     1      -9.440   1.496 124.251  0.00  0.00    +0.000 C 
BRANCH  34  35
ATOM     35  N   UNL     1      -8.795   0.178 124.060  0.00  0.00    +0.000 N 
ATOM     36  C   UNL     1      -7.654  -0.170 124.774  0.00  0.00    +0.000 A 
ATOM     37  C   UNL     1      -6.909  -1.239 124.436  0.00  0.00    +0.000 A 
ATOM     38  C   UNL     1      -7.413  -2.156 123.430  0.00  0.00    +0.000 A 
ATOM     39  C   UNL     1      -8.608  -1.950 122.863  0.00  0.00    +0.000 A 
ATOM     40  C   UNL     1      -9.330  -0.665 123.082  0.00  0.00    +0.000 A 
ATOM     41  O   UNL     1     -10.326  -0.411 122.413  0.00  0.00    +0.000 OA
BRANCH  37  42
ATOM     42  C   UNL     1      -5.574  -1.549 125.049  0.00  0.00    +0.000 C 
ATOM     43  F   UNL     1      -5.668  -2.450 126.059  0.00  0.00    +0.000 F 
ATOM     44  F   UNL     1      -4.717  -2.073 124.134  0.00  0.00    +0.000 F 
ATOM     45  F   UNL     1      -4.972  -0.444 125.559  0.00  0.00    +0.000 F 
ENDBRANCH  37  42
ENDBRANCH  34  35
ENDBRANCH  31  34
ENDBRANCH  29  32
ENDBRANCH   1  29
TORSDOF 7
ENDMDL
MODEL 5
REMARK VINA RESULT:     -11.1      4.546      6.959
REMARK  Name = CHEMBL282767
REMARK  7 active torsions:
REMARK  status: ('A' for Active; 'I' for Inactive)
REMARK    1  A    between atoms: C_2  and  C_3
REMARK    2  A    between atoms: C_3  and  N_4
REMARK    3  A    between atoms: C_6  and  C_7
REMARK    4  A    between atoms: N_15  and  C_16
REMARK    5  A    between atoms: C_16  and  C_17
REMARK    6  A    between atoms: C_21  and  C_22
REMARK    7  A    between atoms: C_27  and  N_28
REMARK                            x       y       z     vdW  Elec       q    Type
REMARK                         _______ _______ _______ _____ _____    ______ ____
ROOT
ATOM      1  C   UNL     1      -7.535   1.199 124.368  0.00  0.00    +0.000 A 
ATOM      2  N   UNL     1      -8.741   1.107 124.916  0.00  0.00    +0.000 NA
ATOM      3  C   UNL     1      -8.763  -0.069 125.640  0.00  0.00    +0.000 A 
ATOM      4  C   UNL     1      -8.279  -0.334 126.948  0.00  0.00    +0.000 A 
ATOM      5  C   UNL     1      -8.020  -1.643 127.414  0.00  0.00    +0.000 A 
ATOM      6  C   UNL     1      -8.565  -2.709 126.685  0.00  0.00    +0.000 A 
ATOM      7  C   UNL     1      -9.030  -2.451 125.381  0.00  0.00    +0.000 A 
ATOM      8  C   UNL     1      -8.671  -1.182 124.801  0.00  0.00    +0.000 A 
ATOM      9  S   UNL     1      -6.796  -0.448 124.340  0.00  0.00    +0.000 S 
ENDROOT
BRANCH   5  10
ATOM     10  C   UNL     1      -6.996  -1.897 128.508  0.00  0.00    +0.000 C 
ATOM     11  O   UNL     1      -6.454  -3.003 128.518  0.00  0.00    +0.000 OA
ATOM     12  N   UNL     1      -6.589  -0.818 129.365  0.00  0.00    +0.000 N 
ATOM     13  C   UNL     1      -5.198  -0.351 129.443  0.00  0.00    +0.000 C 
ATOM     14  C   UNL     1      -4.720  -0.052 130.902  0.00  0.00    +0.000 C 
ATOM     15  C   UNL     1      -5.593   1.311 131.796  0.00  0.00    +0.000 C 
ATOM     16  C   UNL     1      -7.097   0.361 131.575  0.00  0.00    +0.000 C 
ATOM     17  C   UNL     1      -7.512   0.051 130.098  0.00  0.00    +0.000 C 
BRANCH  15  18
ATOM     18  N   UNL     1      -5.135   3.117 132.089  0.00  0.00    +0.000 N 
ATOM     19  C   UNL     1      -4.662   2.504 133.301  0.00  0.00    +0.000 C 
ATOM     20  O   UNL     1      -5.299   1.783 134.130  0.00  0.00    +0.000 OA
ATOM     21  O   UNL     1      -3.363   2.586 133.472  0.00  0.00    +0.000 OA
ATOM     22  C   UNL     1      -3.380   3.641 134.362  0.00  0.00    +0.000 C 
ATOM     23  C   UNL     1      -3.135   4.589 133.302  0.00  0.00    +0.000 A 
ATOM     24  C   UNL     1      -1.778   5.013 132.963  0.00  0.00    +0.000 A 
ATOM     25  C   UNL     1      -1.327   6.278 132.668  0.00  0.00    +0.000 A 
ATOM     26  C   UNL     1      -2.401   7.089 132.605  0.00  0.00    +0.000 A 
ATOM     27  C   UNL     1      -3.873   6.345 132.393  0.00  0.00    +0.000 A 
ATOM     28  C   UNL     1      -4.176   4.724 132.468  0.00  0.00    +0.000 A 
ENDBRANCH  15  18
ENDBRANCH   5  10
BRANCH   1  29
ATOM     29  C   UNL     1      -7.044   2.507 123.668  0.00  0.00    +0.000 C 
BRANCH  29  32
ATOM     30  O   UNL     1      -6.677   5.693 125.391  0.00  0.00    +0.000 OA
ATOM     31  C   UNL     1      -6.318   4.606 124.929  0.00  0.00    +0.000 C 
ATOM     32  N   UNL     1      -7.256   3.844 124.226  0.00  0.00    +0.000 N 
ATOM     33  H   UNL     1      -8.145   4.316 124.111  0.00  0.00    +0.000 HD
BRANCH  31  34
ATOM     34  C   UNL     1      -4.867   4.058 125.142  0.00  0.00    +0.000 C 
BRANCH  34  35
ATOM     35  N   UNL     1      -4.385   4.147 126.538  0.00  0.00    +0.000 N 
ATOM     36  C   UNL     1      -3.872   5.337 127.042  0.00  0.00    +0.000 A 
ATOM     37  C   UNL     1      -3.196   5.377 128.206  0.00  0.00    +0.000 A 
ATOM     38  C   UNL     1      -3.172   4.193 129.044  0.00  0.00    +0.000 A 
ATOM     39  C   UNL     1      -3.826   3.086 128.672  0.00  0.00    +0.000 A 
ATOM     40  C   UNL     1      -4.393   2.975 127.298  0.00  0.00    +0.000 A 
ATOM     41  O   UNL     1      -4.821   1.895 126.908  0.00  0.00    +0.000 OA
BRANCH  37  42
ATOM     42  C   UNL     1      -2.463   6.591 128.700  0.00  0.00    +0.000 C 
ATOM     43  F   UNL     1      -1.930   7.317 127.686  0.00  0.00    +0.000 F 
ATOM     44  F   UNL     1      -3.288   7.423 129.387  0.00  0.00    +0.000 F 
ATOM     45  F   UNL     1      -1.444   6.272 129.538  0.00  0.00    +0.000 F 
ENDBRANCH  37  42
ENDBRANCH  34  35
ENDBRANCH  31  34
ENDBRANCH  29  32
ENDBRANCH   1  29
TORSDOF 7
ENDMDL
MODEL 6
REMARK VINA RESULT:     -11.0      4.318      9.023
REMARK  Name = CHEMBL282767
REMARK  7 active torsions:
REMARK  status: ('A' for Active; 'I' for Inactive)
REMARK    1  A    between atoms: C_2  and  C_3
REMARK    2  A    between atoms: C_3  and  N_4
REMARK    3  A    between atoms: C_6  and  C_7
REMARK    4  A    between atoms: N_15  and  C_16
REMARK    5  A    between atoms: C_16  and  C_17
REMARK    6  A    between atoms: C_21  and  C_22
REMARK    7  A    between atoms: C_27  and  N_28
REMARK                            x       y       z     vdW  Elec       q    Type
REMARK                         _______ _______ _______ _____ _____    ______ ____
ROOT
ATOM      1  C   UNL     1      -4.454   3.889 133.496  0.00  0.00    +0.000 A 
ATOM      2  N   UNL     1      -4.112   5.112 133.881  0.00  0.00    +0.000 NA
ATOM      3  C   UNL     1      -3.455   5.698 132.817  0.00  0.00    +0.000 A 
ATOM      4  C   UNL     1      -3.988   6.338 131.668  0.00  0.00    +0.000 A 
ATOM      5  C   UNL     1      -3.232   6.547 130.492  0.00  0.00    +0.000 A 
ATOM      6  C   UNL     1      -1.839   6.419 130.587  0.00  0.00    +0.000 A 
ATOM      7  C   UNL     1      -1.309   5.769 131.719  0.00  0.00    +0.000 A 
ATOM      8  C   UNL     1      -2.241   5.058 132.557  0.00  0.00    +0.000 A 
ATOM      9  S   UNL     1      -3.416   3.422 132.096  0.00  0.00    +0.000 S 
ENDROOT
BRANCH   5  10
ATOM     10  C   UNL     1      -3.907   6.663 129.135  0.00  0.00    +0.000 C 
ATOM     11  O   UNL     1      -3.797   7.741 128.548  0.00  0.00    +0.000 OA
ATOM     12  N   UNL     1      -4.491   5.498 128.531  0.00  0.00    +0.000 N 
ATOM     13  C   UNL     1      -4.041   4.968 127.236  0.00  0.00    +0.000 C 
ATOM     14  C   UNL     1      -5.213   4.525 126.301  0.00  0.00    +0.000 C 
ATOM     15  C   UNL     1      -6.266   3.128 126.899  0.00  0.00    +0.000 C 
ATOM     16  C   UNL     1      -6.655   4.156 128.315  0.00  0.00    +0.000 C 
ATOM     17  C   UNL     1      -5.445   4.610 129.197  0.00  0.00    +0.000 C 
BRANCH  15  18
ATOM     18  N   UNL     1      -6.260   1.286 126.495  0.00  0.00    +0.000 N 
ATOM     19  C   UNL     1      -7.514   1.697 125.923  0.00  0.00    +0.000 C 
ATOM     20  O   UNL     1      -8.481   2.304 126.478  0.00  0.00    +0.000 OA
ATOM     21  O   UNL     1      -7.582   1.552 124.620  0.00  0.00    +0.000 OA
ATOM     22  C   UNL     1      -8.307   0.377 124.622  0.00  0.00    +0.000 C 
ATOM     23  C   UNL     1      -7.105  -0.409 124.481  0.00  0.00    +0.000 A 
ATOM     24  C   UNL     1      -6.617  -0.817 123.166  0.00  0.00    +0.000 A 
ATOM     25  C   UNL     1      -6.109  -2.037 122.784  0.00  0.00    +0.000 A 
ATOM     26  C   UNL     1      -6.000  -2.798 123.891  0.00  0.00    +0.000 A 
ATOM     27  C   UNL     1      -5.999  -1.987 125.343  0.00  0.00    +0.000 A 
ATOM     28  C   UNL     1      -6.333  -0.387 125.577  0.00  0.00    +0.000 A 
ENDBRANCH  15  18
ENDBRANCH   5  10
BRANCH   1  29
ATOM     29  C   UNL     1      -5.422   2.998 134.340  0.00  0.00    +0.000 C 
BRANCH  29  32
ATOM     30  O   UNL     1      -8.929   3.976 134.366  0.00  0.00    +0.000 OA
ATOM     31  C   UNL     1      -7.877   3.540 133.890  0.00  0.00    +0.000 C 
ATOM     32  N   UNL     1      -6.767   3.423 134.733  0.00  0.00    +0.000 N 
ATOM     33  H   UNL     1      -6.975   3.656 135.697  0.00  0.00    +0.000 HD
BRANCH  31  34
ATOM     34  C   UNL     1      -7.754   3.157 132.377  0.00  0.00    +0.000 C 
BRANCH  34  35
ATOM     35  N   UNL     1      -8.859   3.661 131.532  0.00  0.00    +0.000 N 
ATOM     36  C   UNL     1      -8.816   4.940 130.989  0.00  0.00    +0.000 A 
ATOM     37  C   UNL     1      -9.906   5.511 130.442  0.00  0.00    +0.000 A 
ATOM     38  C   UNL     1     -11.096   4.704 130.243  0.00  0.00    +0.000 A 
ATOM     39  C   UNL     1     -11.100   3.409 130.580  0.00  0.00    +0.000 A 
ATOM     40  C   UNL     1      -9.974   2.836 131.370  0.00  0.00    +0.000 A 
ATOM     41  O   UNL     1     -10.077   1.704 131.832  0.00  0.00    +0.000 OA
BRANCH  37  42
ATOM     42  C   UNL     1      -9.965   6.950 130.015  0.00  0.00    +0.000 C 
ATOM     43  F   UNL     1      -8.890   7.657 130.443  0.00  0.00    +0.000 F 
ATOM     44  F   UNL     1      -9.997   7.064 128.662  0.00  0.00    +0.000 F 
ATOM     45  F   UNL     1     -11.069   7.583 130.487  0.00  0.00    +0.000 F 
ENDBRANCH  37  42
ENDBRANCH  34  35
ENDBRANCH  31  34
ENDBRANCH  29  32
ENDBRANCH   1  29
TORSDOF 7
ENDMDL
MODEL 7
REMARK VINA RESULT:     -11.0      3.945      5.595
REMARK  Name = CHEMBL282767
REMARK  7 active torsions:
REMARK  status: ('A' for Active; 'I' for Inactive)
REMARK    1  A    between atoms: C_2  and  C_3
REMARK    2  A    between atoms: C_3  and  N_4
REMARK    3  A    between atoms: C_6  and  C_7
REMARK    4  A    between atoms: N_15  and  C_16
REMARK    5  A    between atoms: C_16  and  C_17
REMARK    6  A    between atoms: C_21  and  C_22
REMARK    7  A    between atoms: C_27  and  N_28
REMARK                            x       y       z     vdW  Elec       q    Type
REMARK                         _______ _______ _______ _____ _____    ______ ____
ROOT
ATOM      1  C   UNL     1      -5.895  -1.836 127.077  0.00  0.00    +0.000 A 
ATOM      2  N   UNL     1      -6.894  -2.674 127.331  0.00  0.00    +0.000 NA
ATOM      3  C   UNL     1      -7.236  -2.499 128.657  0.00  0.00    +0.000 A 
ATOM      4  C   UNL     1      -8.067  -1.515 129.254  0.00  0.00    +0.000 A 
ATOM      5  C   UNL     1      -8.027  -1.220 130.636  0.00  0.00    +0.000 A 
ATOM      6  C   UNL     1      -7.394  -2.145 131.477  0.00  0.00    +0.000 A 
ATOM      7  C   UNL     1      -6.555  -3.112 130.888  0.00  0.00    +0.000 A 
ATOM      8  C   UNL     1      -6.206  -2.913 129.505  0.00  0.00    +0.000 A 
ATOM      9  S   UNL     1      -5.131  -1.372 128.645  0.00  0.00    +0.000 S 
ENDROOT
BRANCH   5  10
ATOM     10  C   UNL     1      -8.430   0.150 131.157  0.00  0.00    +0.000 C 
ATOM     11  O   UNL     1      -9.514   0.229 131.737  0.00  0.00    +0.000 OA
ATOM     12  N   UNL     1      -7.491   1.235 131.102  0.00  0.00    +0.000 N 
ATOM     13  C   UNL     1      -7.016   1.933 132.305  0.00  0.00    +0.000 C 
ATOM     14  C   UNL     1      -6.940   3.486 132.138  0.00  0.00    +0.000 C 
ATOM     15  C   UNL     1      -5.750   4.125 130.877  0.00  0.00    +0.000 C 
ATOM     16  C   UNL     1      -6.681   3.188 129.666  0.00  0.00    +0.000 C 
ATOM     17  C   UNL     1      -6.764   1.642 129.898  0.00  0.00    +0.000 C 
BRANCH  15  18
ATOM     18  N   UNL     1      -4.004   4.820 131.034  0.00  0.00    +0.000 N 
ATOM     19  C   UNL     1      -4.731   5.979 130.591  0.00  0.00    +0.000 C 
ATOM     20  O   UNL     1      -5.464   6.113 129.564  0.00  0.00    +0.000 OA
ATOM     21  O   UNL     1      -4.748   6.966 131.456  0.00  0.00    +0.000 OA
ATOM     22  C   UNL     1      -3.760   7.725 130.862  0.00  0.00    +0.000 C 
ATOM     23  C   UNL     1      -2.757   7.183 131.747  0.00  0.00    +0.000 A 
ATOM     24  C   UNL     1      -2.401   7.858 132.993  0.00  0.00    +0.000 A 
ATOM     25  C   UNL     1      -1.151   8.055 133.531  0.00  0.00    +0.000 A 
ATOM     26  C   UNL     1      -0.268   7.384 132.766  0.00  0.00    +0.000 A 
ATOM     27  C   UNL     1      -0.896   6.188 131.796  0.00  0.00    +0.000 A 
ATOM     28  C   UNL     1      -2.495   5.889 131.513  0.00  0.00    +0.000 A 
ENDBRANCH  15  18
ENDBRANCH   5  10
BRANCH   1  29
ATOM     29  C   UNL     1      -5.391  -1.569 125.622  0.00  0.00    +0.000 C 
BRANCH  29  32
ATOM     30  O   UNL     1      -7.865   0.064 123.508  0.00  0.00    +0.000 OA
ATOM     31  C   UNL     1      -7.128  -0.079 124.488  0.00  0.00    +0.000 C 
ATOM     32  N   UNL     1      -6.280  -1.191 124.522  0.00  0.00    +0.000 N 
ATOM     33  H   UNL     1      -6.316  -1.743 123.674  0.00  0.00    +0.000 HD
BRANCH  31  34
ATOM     34  C   UNL     1      -7.152   0.924 125.690  0.00  0.00    +0.000 C 
BRANCH  34  35
ATOM     35  N   UNL     1      -6.099   1.962 125.633  0.00  0.00    +0.000 N 
ATOM     36  C   UNL     1      -4.998   1.911 126.480  0.00  0.00    +0.000 A 
ATOM     37  C   UNL     1      -4.172   2.964 126.628  0.00  0.00    +0.000 A 
ATOM     38  C   UNL     1      -4.322   4.103 125.741  0.00  0.00    +0.000 A 
ATOM     39  C   UNL     1      -5.254   4.096 124.781  0.00  0.00    +0.000 A 
ATOM     40  C   UNL     1      -6.296   3.030 124.754  0.00  0.00    +0.000 A 
ATOM     41  O   UNL     1      -7.249   3.138 123.990  0.00  0.00    +0.000 OA
BRANCH  37  42
ATOM     42  C   UNL     1      -3.087   3.030 127.664  0.00  0.00    +0.000 C 
ATOM     43  F   UNL     1      -1.881   2.655 127.169  0.00  0.00    +0.000 F 
ATOM     44  F   UNL     1      -2.938   4.291 128.147  0.00  0.00    +0.000 F 
ATOM     45  F   UNL     1      -3.343   2.231 128.731  0.00  0.00    +0.000 F 
ENDBRANCH  37  42
ENDBRANCH  34  35
ENDBRANCH  31  34
ENDBRANCH  29  32
ENDBRANCH   1  29
TORSDOF 7
ENDMDL
MODEL 8
REMARK VINA RESULT:     -10.9      4.491      8.902
REMARK  Name = CHEMBL282767
REMARK  7 active torsions:
REMARK  status: ('A' for Active; 'I' for Inactive)
REMARK    1  A    between atoms: C_2  and  C_3
REMARK    2  A    between atoms: C_3  and  N_4
REMARK    3  A    between atoms: C_6  and  C_7
REMARK    4  A    between atoms: N_15  and  C_16
REMARK    5  A    between atoms: C_16  and  C_17
REMARK    6  A    between atoms: C_21  and  C_22
REMARK    7  A    between atoms: C_27  and  N_28
REMARK                            x       y       z     vdW  Elec       q    Type
REMARK                         _______ _______ _______ _____ _____    ______ ____
ROOT
ATOM      1  C   UNL     1      -6.249   4.369 132.919  0.00  0.00    +0.000 A 
ATOM      2  N   UNL     1      -6.715   5.506 132.416  0.00  0.00    +0.000 NA
ATOM      3  C   UNL     1      -5.710   6.040 131.635  0.00  0.00    +0.000 A 
ATOM      4  C   UNL     1      -5.347   5.735 130.297  0.00  0.00    +0.000 A 
ATOM      5  C   UNL     1      -4.085   6.068 129.755  0.00  0.00    +0.000 A 
ATOM      6  C   UNL     1      -3.309   7.006 130.450  0.00  0.00    +0.000 A 
ATOM      7  C   UNL     1      -3.657   7.297 131.784  0.00  0.00    +0.000 A 
ATOM      8  C   UNL     1      -4.613   6.421 132.412  0.00  0.00    +0.000 A 
ATOM      9  S   UNL     1      -4.447   4.405 132.834  0.00  0.00    +0.000 S 
ENDROOT
BRANCH   5  10
ATOM     10  C   UNL     1      -3.487   5.268 128.609  0.00  0.00    +0.000 C 
ATOM     11  O   UNL     1      -2.273   5.371 128.429  0.00  0.00    +0.000 OA
ATOM     12  N   UNL     1      -4.306   4.322 127.901  0.00  0.00    +0.000 N 
ATOM     13  C   UNL     1      -3.994   2.887 127.851  0.00  0.00    +0.000 C 
ATOM     14  C   UNL     1      -4.196   2.252 126.437  0.00  0.00    +0.000 C 
ATOM     15  C   UNL     1      -5.919   2.255 125.766  0.00  0.00    +0.000 C 
ATOM     16  C   UNL     1      -5.861   4.042 125.892  0.00  0.00    +0.000 C 
ATOM     17  C   UNL     1      -5.615   4.630 127.322  0.00  0.00    +0.000 C 
BRANCH  15  18
ATOM     18  N   UNL     1      -7.250   0.920 125.717  0.00  0.00    +0.000 N 
ATOM     19  C   UNL     1      -6.886   1.009 124.328  0.00  0.00    +0.000 C 
ATOM     20  O   UNL     1      -6.867   2.029 123.574  0.00  0.00    +0.000 OA
ATOM     21  O   UNL     1      -6.361  -0.092 123.841  0.00  0.00    +0.000 OA
ATOM     22  C   UNL     1      -7.498  -0.551 123.207  0.00  0.00    +0.000 C 
ATOM     23  C   UNL     1      -7.825  -1.399 124.327  0.00  0.00    +0.000 A 
ATOM     24  C   UNL     1      -7.395  -2.795 124.372  0.00  0.00    +0.000 A 
ATOM     25  C   UNL     1      -8.111  -3.898 124.777  0.00  0.00    +0.000 A 
ATOM     26  C   UNL     1      -9.285  -3.461 125.275  0.00  0.00    +0.000 A 
ATOM     27  C   UNL     1      -9.344  -1.860 125.720  0.00  0.00    +0.000 A 
ATOM     28  C   UNL     1      -8.198  -0.710 125.416  0.00  0.00    +0.000 A 
ENDBRANCH  15  18
ENDBRANCH   5  10
BRANCH   1  29
ATOM     29  C   UNL     1      -7.176   3.355 133.664  0.00  0.00    +0.000 C 
BRANCH  29  32
ATOM     30  O   UNL     1      -9.813   1.417 132.067  0.00  0.00    +0.000 OA
ATOM     31  C   UNL     1      -8.692   1.636 132.537  0.00  0.00    +0.000 C 
ATOM     32  N   UNL     1      -8.452   2.884 133.121  0.00  0.00    +0.000 N 
ATOM     33  H   UNL     1      -9.276   3.472 133.154  0.00  0.00    +0.000 HD
BRANCH  31  34
ATOM     34  C   UNL     1      -7.545   0.573 132.463  0.00  0.00    +0.000 C 
BRANCH  34  35
ATOM     35  N   UNL     1      -7.286   0.056 131.100  0.00  0.00    +0.000 N 
ATOM     36  C   UNL     1      -7.799  -1.169 130.692  0.00  0.00    +0.000 A 
ATOM     37  C   UNL     1      -7.371  -1.775 129.568  0.00  0.00    +0.000 A 
ATOM     38  C   UNL     1      -6.499  -1.044 128.667  0.00  0.00    +0.000 A 
ATOM     39  C   UNL     1      -6.144   0.217 128.941  0.00  0.00    +0.000 A 
ATOM     40  C   UNL     1      -6.445   0.808 130.276  0.00  0.00    +0.000 A 
ATOM     41  O   UNL     1      -5.954   1.889 130.581  0.00  0.00    +0.000 OA
BRANCH  37  42
ATOM     42  C   UNL     1      -7.749  -3.175 129.182  0.00  0.00    +0.000 C 
ATOM     43  F   UNL     1      -9.085  -3.392 129.279  0.00  0.00    +0.000 F 
ATOM     44  F   UNL     1      -7.400  -3.448 127.898  0.00  0.00    +0.000 F 
ATOM     45  F   UNL     1      -7.139  -4.107 129.958  0.00  0.00    +0.000 F 
ENDBRANCH  37  42
ENDBRANCH  34  35
ENDBRANCH  31  34
ENDBRANCH  29  32
ENDBRANCH   1  29
TORSDOF 7
ENDMDL
MODEL 9
REMARK VINA RESULT:     -10.8      3.463      5.089
REMARK  Name = CHEMBL282767
REMARK  7 active torsions:
REMARK  status: ('A' for Active; 'I' for Inactive)
REMARK    1  A    between atoms: C_2  and  C_3
REMARK    2  A    between atoms: C_3  and  N_4
REMARK    3  A    between atoms: C_6  and  C_7
REMARK    4  A    between atoms: N_15  and  C_16
REMARK    5  A    between atoms: C_16  and  C_17
REMARK    6  A    between atoms: C_21  and  C_22
REMARK    7  A    between atoms: C_27  and  N_28
REMARK                            x       y       z     vdW  Elec       q    Type
REMARK                         _______ _______ _______ _____ _____    ______ ____
ROOT
ATOM      1  C   UNL     1      -7.173  -2.536 127.114  0.00  0.00    +0.000 A 
ATOM      2  N   UNL     1      -7.801  -3.372 127.932  0.00  0.00    +0.000 NA
ATOM      3  C   UNL     1      -7.635  -2.881 129.211  0.00  0.00    +0.000 A 
ATOM      4  C   UNL     1      -8.358  -1.864 129.889  0.00  0.00    +0.000 A 
ATOM      5  C   UNL     1      -7.853  -1.202 131.031  0.00  0.00    +0.000 A 
ATOM      6  C   UNL     1      -6.769  -1.792 131.695  0.00  0.00    +0.000 A 
ATOM      7  C   UNL     1      -6.040  -2.789 131.017  0.00  0.00    +0.000 A 
ATOM      8  C   UNL     1      -6.297  -2.938 129.608  0.00  0.00    +0.000 A 
ATOM      9  S   UNL     1      -5.979  -1.586 128.078  0.00  0.00    +0.000 S 
ENDROOT
BRANCH   5  10
ATOM     10  C   UNL     1      -8.300   0.208 131.382  0.00  0.00    +0.000 C 
ATOM     11  O   UNL     1      -9.420   0.330 131.880  0.00  0.00    +0.000 OA
ATOM     12  N   UNL     1      -7.367   1.295 131.277  0.00  0.00    +0.000 N 
ATOM     13  C   UNL     1      -6.977   2.119 132.430  0.00  0.00    +0.000 C 
ATOM     14  C   UNL     1      -6.902   3.647 132.110  0.00  0.00    +0.000 C 
ATOM     15  C   UNL     1      -5.636   4.171 130.869  0.00  0.00    +0.000 C 
ATOM     16  C   UNL     1      -6.479   3.103 129.703  0.00  0.00    +0.000 C 
ATOM     17  C   UNL     1      -6.566   1.588 130.087  0.00  0.00    +0.000 C 
BRANCH  15  18
ATOM     18  N   UNL     1      -3.909   4.903 131.067  0.00  0.00    +0.000 N 
ATOM     19  C   UNL     1      -4.645   6.040 130.581  0.00  0.00    +0.000 C 
ATOM     20  O   UNL     1      -5.349   6.142 129.530  0.00  0.00    +0.000 OA
ATOM     21  O   UNL     1      -4.707   7.041 131.428  0.00  0.00    +0.000 OA
ATOM     22  C   UNL     1      -3.716   7.809 130.850  0.00  0.00    +0.000 C 
ATOM     23  C   UNL     1      -2.731   7.302 131.775  0.00  0.00    +0.000 A 
ATOM     24  C   UNL     1      -2.426   8.006 133.018  0.00  0.00    +0.000 A 
ATOM     25  C   UNL     1      -1.197   8.237 133.591  0.00  0.00    +0.000 A 
ATOM     26  C   UNL     1      -0.278   7.569 132.865  0.00  0.00    +0.000 A 
ATOM     27  C   UNL     1      -0.853   6.346 131.898  0.00  0.00    +0.000 A 
ATOM     28  C   UNL     1      -2.437   6.009 131.571  0.00  0.00    +0.000 A 
ENDBRANCH  15  18
ENDBRANCH   5  10
BRANCH   1  29
ATOM     29  C   UNL     1      -7.333  -2.623 125.562  0.00  0.00    +0.000 C 
BRANCH  29  32
ATOM     30  O   UNL     1     -10.090  -3.221 123.260  0.00  0.00    +0.000 OA
ATOM     31  C   UNL     1      -9.014  -2.752 123.644  0.00  0.00    +0.000 C 
ATOM     32  N   UNL     1      -8.542  -3.125 124.906  0.00  0.00    +0.000 N 
ATOM     33  H   UNL     1      -9.126  -3.818 125.360  0.00  0.00    +0.000 HD
BRANCH  31  34
ATOM     34  C   UNL     1      -8.200  -1.738 122.772  0.00  0.00    +0.000 C 
BRANCH  34  35
ATOM     35  N   UNL     1      -8.329  -0.329 123.204  0.00  0.00    +0.000 N 
ATOM     36  C   UNL     1      -7.292   0.311 123.874  0.00  0.00    +0.000 A 
ATOM     37  C   UNL     1      -7.477   1.489 124.499  0.00  0.00    +0.000 A 
ATOM     38  C   UNL     1      -8.728   2.198 124.304  0.00  0.00    +0.000 A 
ATOM     39  C   UNL     1      -9.674   1.695 123.501  0.00  0.00    +0.000 A 
ATOM     40  C   UNL     1      -9.555   0.303 122.982  0.00  0.00    +0.000 A 
ATOM     41  O   UNL     1     -10.509  -0.209 122.407  0.00  0.00    +0.000 OA
BRANCH  37  42
ATOM     42  C   UNL     1      -6.451   2.127 125.391  0.00  0.00    +0.000 C 
ATOM     43  F   UNL     1      -7.010   2.727 126.471  0.00  0.00    +0.000 F 
ATOM     44  F   UNL     1      -5.568   1.209 125.865  0.00  0.00    +0.000 F 
ATOM     45  F   UNL     1      -5.722   3.072 124.745  0.00  0.00    +0.000 F 
ENDBRANCH  37  42
ENDBRANCH  34  35
ENDBRANCH  31  34
ENDBRANCH  29  32
ENDBRANCH   1  29
TORSDOF 7
ENDMDL
