MODEL 1
REMARK VINA RESULT:      -8.9      0.000      0.000
REMARK  Name = CHEMBL328348
REMARK  16 active torsions:
REMARK  status: ('A' for Active; 'I' for Inactive)
REMARK    1  A    between atoms: C_1  and  C_2
REMARK    2  A    between atoms: C_2  and  C_3
REMARK    3  A    between atoms: C_3  and  C_4
REMARK    4  A    between atoms: C_3  and  C_5
REMARK    5  A    between atoms: C_9  and  C_10
REMARK    6  A    between atoms: C_10  and  C_11
REMARK    7  A    between atoms: C_10  and  C_12
REMARK    8  A    between atoms: C_12  and  C_13
REMARK    9  A    between atoms: C_17  and  C_18
REMARK   10  A    between atoms: C_18  and  C_19
REMARK   11  A    between atoms: C_36  and  C_37
REMARK   12  A    between atoms: C_37  and  C_38
REMARK   13  A    between atoms: C_38  and  C_39
REMARK   14  A    between atoms: C_39  and  N_40
REMARK   15  A    between atoms: C_44  and  C_45
REMARK   16  A    between atoms: C_45  and  C_46
REMARK                            x       y       z     vdW  Elec       q    Type
REMARK                         _______ _______ _______ _____ _____    ______ ____
ROOT
ATOM      1  C   UNL     1      -6.740  -2.022 127.809  0.00  0.00    +0.000 C 
ATOM      2  N   UNL     1      -5.873  -1.115 126.372  0.00  0.00    +0.000 N 
ATOM      3  C   UNL     1      -5.322   0.327 126.847  0.00  0.00    +0.000 C 
ATOM      4  O   UNL     1      -4.795   0.397 128.465  0.00  0.00    +0.000 OA
ATOM      5  C   UNL     1      -7.121   1.300 126.788  0.00  0.00    +0.000 C 
ATOM      6  N   UNL     1      -8.079   1.782 128.305  0.00  0.00    +0.000 N 
ATOM      7  C   UNL     1      -7.845   2.511 129.339  0.00  0.00    +0.000 C 
ATOM      8  O   UNL     1      -8.749   2.405 130.189  0.00  0.00    +0.000 OA
ATOM      9  C   UNL     1      -6.473   3.198 129.254  0.00  0.00    +0.000 C 
ATOM     10  N   UNL     1      -6.977   4.487 129.353  0.00  0.00    +0.000 N 
ATOM     11  C   UNL     1      -7.601   4.977 130.443  0.00  0.00    +0.000 C 
ATOM     12  O   UNL     1      -8.079   6.103 130.343  0.00  0.00    +0.000 OA
ATOM     13  C   UNL     1      -7.704   4.181 131.757  0.00  0.00    +0.000 C 
ATOM     14  C   UNL     1      -6.939   2.902 131.938  0.00  0.00    +0.000 C 
ATOM     15  C   UNL     1      -7.334   2.062 133.110  0.00  0.00    +0.000 C 
ATOM     16  S   UNL     1      -6.177   0.764 133.332  0.00  0.00    +0.000 S 
ATOM     17  C   UNL     1      -6.739  -0.680 134.230  0.00  0.00    +0.000 C 
ATOM     18  C   UNL     1      -6.080  -2.061 133.894  0.00  0.00    +0.000 C 
ATOM     19  N   UNL     1      -6.832  -2.750 132.915  0.00  0.00    +0.000 N 
ATOM     20  C   UNL     1      -6.884  -2.333 131.686  0.00  0.00    +0.000 C 
ATOM     21  O   UNL     1      -7.506  -3.090 130.963  0.00  0.00    +0.000 OA
ATOM     22  C   UNL     1      -6.124  -1.079 131.368  0.00  0.00    +0.000 C 
ATOM     23  N   UNL     1      -5.017  -1.484 130.522  0.00  0.00    +0.000 N 
ATOM     24  C   UNL     1      -5.205  -2.355 129.493  0.00  0.00    +0.000 C 
ATOM     25  O   UNL     1      -3.878  -2.649 129.089  0.00  0.00    +0.000 OA
ATOM     26  H   UNL     1      -4.851  -1.423 126.320  0.00  0.00    +0.000 HD
ATOM     27  H   UNL     1      -8.799   1.234 128.891  0.00  0.00    +0.000 HD
ATOM     28  H   UNL     1      -7.033   4.947 128.456  0.00  0.00    +0.000 HD
ATOM     29  H   UNL     1      -7.280  -3.654 132.974  0.00  0.00    +0.000 HD
ATOM     30  H   UNL     1      -4.180  -0.853 130.430  0.00  0.00    +0.000 HD
ENDROOT
BRANCH   1  31
ATOM     31  C   UNL     1      -8.267  -3.066 126.955  0.00  0.00    +0.000 C 
ATOM     32  C   UNL     1      -8.858  -4.066 128.030  0.00  0.00    +0.000 C 
BRANCH  31  34
ATOM     33  C   UNL     1      -8.860  -3.139 124.916  0.00  0.00    +0.000 C 
ATOM     34  C   UNL     1      -8.895  -2.128 125.982  0.00  0.00    +0.000 C 
ENDBRANCH  31  34
ENDBRANCH   1  31
BRANCH   5  35
ATOM     35  C   UNL     1      -7.610   2.397 126.057  0.00  0.00    +0.000 C 
ATOM     36  C   UNL     1      -8.956   2.048 125.523  0.00  0.00    +0.000 C 
BRANCH  35  37
ATOM     37  C   UNL     1      -6.326   2.400 125.316  0.00  0.00    +0.000 C 
ATOM     38  C   UNL     1      -6.246   3.593 124.344  0.00  0.00    +0.000 C 
ENDBRANCH  35  37
ENDBRANCH   5  35
BRANCH   9  39
ATOM     39  C   UNL     1      -5.629   3.177 128.039  0.00  0.00    +0.000 C 
BRANCH  39  40
ATOM     40  C   UNL     1      -4.529   3.982 128.247  0.00  0.00    +0.000 A 
ATOM     41  C   UNL     1      -3.641   5.181 127.201  0.00  0.00    +0.000 A 
ATOM     42  N   UNL     1      -2.628   6.300 128.256  0.00  0.00    +0.000 N 
ATOM     43  C   UNL     1      -2.446   5.668 129.906  0.00  0.00    +0.000 A 
ATOM     44  C   UNL     1      -1.003   6.339 131.272  0.00  0.00    +0.000 A 
ATOM     45  C   UNL     1      -1.519   5.723 133.027  0.00  0.00    +0.000 A 
ATOM     46  C   UNL     1      -2.650   4.093 133.098  0.00  0.00    +0.000 A 
ATOM     47  C   UNL     1      -3.273   3.181 131.671  0.00  0.00    +0.000 A 
ATOM     48  C   UNL     1      -3.749   4.245 130.164  0.00  0.00    +0.000 A 
ATOM     49  H   UNL     1      -2.457   7.297 128.321  0.00  0.00    +0.000 HD
ENDBRANCH  39  40
ENDBRANCH   9  39
BRANCH  18  50
ATOM     50  C   UNL     1      -4.583  -2.024 133.530  0.00  0.00    +0.000 C 
BRANCH  50  51
ATOM     51  C   UNL     1      -3.791  -3.084 134.268  0.00  0.00    +0.000 C 
BRANCH  51  52
ATOM     52  C   UNL     1      -3.484  -4.241 133.338  0.00  0.00    +0.000 C 
BRANCH  52  53
ATOM     53  N   UNL     1      -3.275  -3.724 132.000  0.00  0.00    +0.000 NA
ATOM     54  H   UNL     1      -4.163  -3.419 131.608  0.00  0.00    +0.000 HD
ATOM     55  H   UNL     1      -2.919  -4.466 131.404  0.00  0.00    +0.000 HD
ENDBRANCH  52  53
ENDBRANCH  51  52
ENDBRANCH  50  51
ENDBRANCH  18  50
BRANCH  22  56
ATOM     56  C   UNL     1      -7.237   0.048 131.042  0.00  0.00    +0.000 C 
BRANCH  56  57
ATOM     57  C   UNL     1      -8.575  -0.334 131.249  0.00  0.00    +0.000 C 
ATOM     58  N   UNL     1      -8.287  -0.491 130.014  0.00  0.00    +0.000 N 
ATOM     59  O   UNL     1      -9.569  -0.014 131.843  0.00  0.00    +0.000 OA
ATOM     60  H   UNL     1      -7.727  -1.120 129.512  0.00  0.00    +0.000 HD
ATOM     61  H   UNL     1      -8.928  -0.596 129.333  0.00  0.00    +0.000 HD
ENDBRANCH  56  57
ENDBRANCH  22  56
TORSDOF 12
ENDMDL
MODEL 2
REMARK VINA RESULT:      -8.1      2.839      8.539
REMARK  Name = CHEMBL328348
REMARK  16 active torsions:
REMARK  status: ('A' for Active; 'I' for Inactive)
REMARK    1  A    between atoms: C_1  and  C_2
REMARK    2  A    between atoms: C_2  and  C_3
REMARK    3  A    between atoms: C_3  and  C_4
REMARK    4  A    between atoms: C_3  and  C_5
REMARK    5  A    between atoms: C_9  and  C_10
REMARK    6  A    between atoms: C_10  and  C_11
REMARK    7  A    between atoms: C_10  and  C_12
REMARK    8  A    between atoms: C_12  and  C_13
REMARK    9  A    between atoms: C_17  and  C_18
REMARK   10  A    between atoms: C_18  and  C_19
REMARK   11  A    between atoms: C_36  and  C_37
REMARK   12  A    between atoms: C_37  and  C_38
REMARK   13  A    between atoms: C_38  and  C_39
REMARK   14  A    between atoms: C_39  and  N_40
REMARK   15  A    between atoms: C_44  and  C_45
REMARK   16  A    between atoms: C_45  and  C_46
REMARK                            x       y       z     vdW  Elec       q    Type
REMARK                         _______ _______ _______ _____ _____    ______ ____
ROOT
ATOM      1  C   UNL     1      -7.720   4.580 129.079  0.00  0.00    +0.000 C 
ATOM      2  N   UNL     1      -6.683   4.332 130.661  0.00  0.00    +0.000 N 
ATOM      3  C   UNL     1      -5.802   2.983 130.569  0.00  0.00    +0.000 C 
ATOM      4  O   UNL     1      -5.251   2.589 129.006  0.00  0.00    +0.000 OA
ATOM      5  C   UNL     1      -7.321   1.677 130.986  0.00  0.00    +0.000 C 
ATOM      6  N   UNL     1      -8.118   0.586 129.712  0.00  0.00    +0.000 N 
ATOM      7  C   UNL     1      -7.704  -0.328 128.905  0.00  0.00    +0.000 C 
ATOM      8  O   UNL     1      -8.597  -0.673 128.107  0.00  0.00    +0.000 OA
ATOM      9  C   UNL     1      -6.210  -0.629 129.101  0.00  0.00    +0.000 C 
ATOM     10  N   UNL     1      -6.395  -1.974 129.384  0.00  0.00    +0.000 N 
ATOM     11  C   UNL     1      -6.871  -2.877 128.504  0.00  0.00    +0.000 C 
ATOM     12  O   UNL     1      -7.072  -4.010 128.932  0.00  0.00    +0.000 OA
ATOM     13  C   UNL     1      -7.142  -2.523 127.030  0.00  0.00    +0.000 C 
ATOM     14  C   UNL     1      -6.698  -1.205 126.466  0.00  0.00    +0.000 C 
ATOM     15  C   UNL     1      -7.264  -0.837 125.133  0.00  0.00    +0.000 C 
ATOM     16  S   UNL     1      -6.443   0.578 124.504  0.00  0.00    +0.000 S 
ATOM     17  C   UNL     1      -7.317   1.546 123.278  0.00  0.00    +0.000 C 
ATOM     18  C   UNL     1      -7.007   3.079 123.188  0.00  0.00    +0.000 C 
ATOM     19  N   UNL     1      -7.913   3.821 123.980  0.00  0.00    +0.000 N 
ATOM     20  C   UNL     1      -7.881   3.760 125.278  0.00  0.00    +0.000 C 
ATOM     21  O   UNL     1      -8.675   4.524 125.799  0.00  0.00    +0.000 OA
ATOM     22  C   UNL     1      -6.852   2.854 125.886  0.00  0.00    +0.000 C 
ATOM     23  N   UNL     1      -5.883   3.721 126.529  0.00  0.00    +0.000 N 
ATOM     24  C   UNL     1      -6.285   4.776 127.290  0.00  0.00    +0.000 C 
ATOM     25  O   UNL     1      -5.070   5.468 127.527  0.00  0.00    +0.000 OA
ATOM     26  H   UNL     1      -5.764   4.869 130.573  0.00  0.00    +0.000 HD
ATOM     27  H   UNL     1      -8.939   0.769 129.037  0.00  0.00    +0.000 HD
ATOM     28  H   UNL     1      -6.353  -2.167 130.374  0.00  0.00    +0.000 HD
ATOM     29  H   UNL     1      -8.561   4.544 123.702  0.00  0.00    +0.000 HD
ATOM     30  H   UNL     1      -4.922   3.351 126.745  0.00  0.00    +0.000 HD
ENDROOT
BRANCH   1  31
ATOM     31  C   UNL     1      -9.462   5.439 129.696  0.00  0.00    +0.000 C 
ATOM     32  C   UNL     1     -10.374   4.322 130.346  0.00  0.00    +0.000 C 
BRANCH  31  34
ATOM     33  C   UNL     1     -10.488   7.282 129.959  0.00  0.00    +0.000 C 
ATOM     34  C   UNL     1      -9.099   6.825 130.105  0.00  0.00    +0.000 C 
ENDBRANCH  31  34
ENDBRANCH   1  31
BRANCH   5  35
ATOM     35  C   UNL     1      -7.548   0.744 132.013  0.00  0.00    +0.000 C 
ATOM     36  C   UNL     1      -9.012   0.493 132.112  0.00  0.00    +0.000 C 
BRANCH  35  37
ATOM     37  C   UNL     1      -6.726   1.607 132.897  0.00  0.00    +0.000 C 
ATOM     38  C   UNL     1      -7.607   2.593 133.689  0.00  0.00    +0.000 C 
ENDBRANCH  35  37
ENDBRANCH   5  35
BRANCH   9  39
ATOM     39  C   UNL     1      -5.411  -0.078 130.217  0.00  0.00    +0.000 C 
BRANCH  39  40
ATOM     40  C   UNL     1      -4.796  -1.118 130.881  0.00  0.00    +0.000 A 
ATOM     41  C   UNL     1      -3.080  -1.726 130.936  0.00  0.00    +0.000 A 
ATOM     42  N   UNL     1      -2.838  -2.779 132.427  0.00  0.00    +0.000 N 
ATOM     43  C   UNL     1      -4.385  -3.264 133.152  0.00  0.00    +0.000 A 
ATOM     44  C   UNL     1      -4.600  -4.828 134.532  0.00  0.00    +0.000 A 
ATOM     45  C   UNL     1      -6.328  -4.640 135.374  0.00  0.00    +0.000 A 
ATOM     46  C   UNL     1      -7.722  -3.687 134.332  0.00  0.00    +0.000 A 
ATOM     47  C   UNL     1      -7.496  -2.942 132.704  0.00  0.00    +0.000 A 
ATOM     48  C   UNL     1      -5.792  -2.150 132.396  0.00  0.00    +0.000 A 
ATOM     49  H   UNL     1      -2.147  -2.866 133.164  0.00  0.00    +0.000 HD
ENDBRANCH  39  40
ENDBRANCH   9  39
BRANCH  18  50
ATOM     50  C   UNL     1      -5.549   3.490 123.469  0.00  0.00    +0.000 C 
BRANCH  50  51
ATOM     51  C   UNL     1      -5.066   4.563 122.515  0.00  0.00    +0.000 C 
BRANCH  51  52
ATOM     52  C   UNL     1      -5.344   4.146 121.084  0.00  0.00    +0.000 C 
BRANCH  52  53
ATOM     53  N   UNL     1      -5.256   5.314 120.230  0.00  0.00    +0.000 NA
ATOM     54  H   UNL     1      -4.464   5.219 119.599  0.00  0.00    +0.000 HD
ATOM     55  H   UNL     1      -5.090   6.138 120.802  0.00  0.00    +0.000 HD
ENDBRANCH  52  53
ENDBRANCH  51  52
ENDBRANCH  50  51
ENDBRANCH  18  50
BRANCH  22  56
ATOM     56  C   UNL     1      -7.672   1.637 126.565  0.00  0.00    +0.000 C 
BRANCH  56  57
ATOM     57  C   UNL     1      -9.060   1.630 126.335  0.00  0.00    +0.000 C 
ATOM     58  N   UNL     1      -8.839   2.066 127.515  0.00  0.00    +0.000 N 
ATOM     59  O   UNL     1      -9.933   0.972 125.835  0.00  0.00    +0.000 OA
ATOM     60  H   UNL     1      -8.463   2.893 127.886  0.00  0.00    +0.000 HD
ATOM     61  H   UNL     1      -9.496   2.123 128.187  0.00  0.00    +0.000 HD
ENDBRANCH  56  57
ENDBRANCH  22  56
TORSDOF 12
ENDMDL
MODEL 3
REMARK VINA RESULT:      -8.0      2.667      7.972
REMARK  Name = CHEMBL328348
REMARK  16 active torsions:
REMARK  status: ('A' for Active; 'I' for Inactive)
REMARK    1  A    between atoms: C_1  and  C_2
REMARK    2  A    between atoms: C_2  and  C_3
REMARK    3  A    between atoms: C_3  and  C_4
REMARK    4  A    between atoms: C_3  and  C_5
REMARK    5  A    between atoms: C_9  and  C_10
REMARK    6  A    between atoms: C_10  and  C_11
REMARK    7  A    between atoms: C_10  and  C_12
REMARK    8  A    between atoms: C_12  and  C_13
REMARK    9  A    between atoms: C_17  and  C_18
REMARK   10  A    between atoms: C_18  and  C_19
REMARK   11  A    between atoms: C_36  and  C_37
REMARK   12  A    between atoms: C_37  and  C_38
REMARK   13  A    between atoms: C_38  and  C_39
REMARK   14  A    between atoms: C_39  and  N_40
REMARK   15  A    between atoms: C_44  and  C_45
REMARK   16  A    between atoms: C_45  and  C_46
REMARK                            x       y       z     vdW  Elec       q    Type
REMARK                         _______ _______ _______ _____ _____    ______ ____
ROOT
ATOM      1  C   UNL     1      -6.450   1.739 128.189  0.00  0.00    +0.000 C 
ATOM      2  N   UNL     1      -6.951  -0.101 128.114  0.00  0.00    +0.000 N 
ATOM      3  C   UNL     1      -7.310  -0.662 129.585  0.00  0.00    +0.000 C 
ATOM      4  O   UNL     1      -8.031   0.473 130.631  0.00  0.00    +0.000 OA
ATOM      5  C   UNL     1      -5.382  -0.891 130.230  0.00  0.00    +0.000 C 
ATOM      6  N   UNL     1      -4.570   0.237 131.462  0.00  0.00    +0.000 N 
ATOM      7  C   UNL     1      -4.815   0.592 132.675  0.00  0.00    +0.000 C 
ATOM      8  O   UNL     1      -4.064   1.516 133.042  0.00  0.00    +0.000 OA
ATOM      9  C   UNL     1      -6.028  -0.153 133.254  0.00  0.00    +0.000 C 
ATOM     10  N   UNL     1      -5.332  -0.706 134.319  0.00  0.00    +0.000 N 
ATOM     11  C   UNL     1      -4.787   0.009 135.323  0.00  0.00    +0.000 C 
ATOM     12  O   UNL     1      -4.117  -0.614 136.141  0.00  0.00    +0.000 OA
ATOM     13  C   UNL     1      -4.997   1.528 135.457  0.00  0.00    +0.000 C 
ATOM     14  C   UNL     1      -5.983   2.244 134.581  0.00  0.00    +0.000 C 
ATOM     15  C   UNL     1      -5.897   3.737 134.579  0.00  0.00    +0.000 C 
ATOM     16  S   UNL     1      -7.274   4.414 133.733  0.00  0.00    +0.000 S 
ATOM     17  C   UNL     1      -7.089   6.068 133.074  0.00  0.00    +0.000 C 
ATOM     18  C   UNL     1      -7.920   6.455 131.804  0.00  0.00    +0.000 C 
ATOM     19  N   UNL     1      -7.170   6.228 130.627  0.00  0.00    +0.000 N 
ATOM     20  C   UNL     1      -6.884   5.024 130.230  0.00  0.00    +0.000 C 
ATOM     21  O   UNL     1      -6.306   5.012 129.158  0.00  0.00    +0.000 OA
ATOM     22  C   UNL     1      -7.372   3.897 131.091  0.00  0.00    +0.000 C 
ATOM     23  N   UNL     1      -8.407   3.226 130.327  0.00  0.00    +0.000 N 
ATOM     24  C   UNL     1      -8.231   2.946 129.007  0.00  0.00    +0.000 C 
ATOM     25  O   UNL     1      -9.523   2.518 128.606  0.00  0.00    +0.000 OA
ATOM     26  H   UNL     1      -7.994  -0.178 127.894  0.00  0.00    +0.000 HD
ATOM     27  H   UNL     1      -4.037   1.165 131.329  0.00  0.00    +0.000 HD
ATOM     28  H   UNL     1      -5.079  -1.669 134.153  0.00  0.00    +0.000 HD
ATOM     29  H   UNL     1      -6.892   6.884 129.910  0.00  0.00    +0.000 HD
ATOM     30  H   UNL     1      -9.106   2.619 130.828  0.00  0.00    +0.000 HD
ENDROOT
BRANCH   1  31
ATOM     31  C   UNL     1      -5.020   1.975 126.758  0.00  0.00    +0.000 C 
ATOM     32  C   UNL     1      -5.729   2.084 125.347  0.00  0.00    +0.000 C 
BRANCH  31  34
ATOM     33  C   UNL     1      -3.870   3.701 126.295  0.00  0.00    +0.000 C 
ATOM     34  C   UNL     1      -3.926   2.748 127.412  0.00  0.00    +0.000 C 
ENDBRANCH  31  34
ENDBRANCH   1  31
BRANCH   5  35
ATOM     35  C   UNL     1      -4.621  -1.996 130.650  0.00  0.00    +0.000 C 
ATOM     36  C   UNL     1      -3.179  -1.637 130.571  0.00  0.00    +0.000 C 
BRANCH  35  37
ATOM     37  C   UNL     1      -5.393  -2.818 129.686  0.00  0.00    +0.000 C 
ATOM     38  C   UNL     1      -5.837  -4.151 130.319  0.00  0.00    +0.000 C 
ENDBRANCH  35  37
ENDBRANCH   5  35
BRANCH   9  39
ATOM     39  C   UNL     1      -6.692  -1.281 132.565  0.00  0.00    +0.000 C 
BRANCH  39  40
ATOM     40  C   UNL     1      -6.769  -2.350 133.432  0.00  0.00    +0.000 A 
ATOM     41  C   UNL     1      -8.155  -3.174 134.281  0.00  0.00    +0.000 A 
ATOM     42  N   UNL     1      -7.639  -4.853 134.833  0.00  0.00    +0.000 N 
ATOM     43  C   UNL     1      -5.874  -5.052 134.785  0.00  0.00    +0.000 A 
ATOM     44  C   UNL     1      -4.834  -6.584 135.768  0.00  0.00    +0.000 A 
ATOM     45  C   UNL     1      -3.054  -6.662 135.023  0.00  0.00    +0.000 A 
ATOM     46  C   UNL     1      -2.355  -4.988 134.220  0.00  0.00    +0.000 A 
ATOM     47  C   UNL     1      -3.255  -3.430 134.081  0.00  0.00    +0.000 A 
ATOM     48  C   UNL     1      -5.122  -3.591 133.739  0.00  0.00    +0.000 A 
ATOM     49  H   UNL     1      -8.024  -5.790 134.802  0.00  0.00    +0.000 HD
ENDBRANCH  39  40
ENDBRANCH   9  39
BRANCH  18  50
ATOM     50  C   UNL     1      -9.326   5.833 131.702  0.00  0.00    +0.000 C 
BRANCH  50  51
ATOM     51  C   UNL     1     -10.203   6.568 130.708  0.00  0.00    +0.000 C 
BRANCH  51  52
ATOM     52  C   UNL     1     -11.526   5.845 130.553  0.00  0.00    +0.000 C 
BRANCH  52  53
ATOM     53  N   UNL     1     -11.266   4.436 130.325  0.00  0.00    +0.000 NA
ATOM     54  H   UNL     1     -10.434   4.154 130.836  0.00  0.00    +0.000 HD
ATOM     55  H   UNL     1     -11.082   4.285 129.337  0.00  0.00    +0.000 HD
ENDBRANCH  52  53
ENDBRANCH  51  52
ENDBRANCH  50  51
ENDBRANCH  18  50
BRANCH  22  56
ATOM     56  C   UNL     1      -6.052   3.225 131.741  0.00  0.00    +0.000 C 
BRANCH  56  57
ATOM     57  C   UNL     1      -4.835   3.876 131.466  0.00  0.00    +0.000 C 
ATOM     58  N   UNL     1      -4.951   2.871 130.686  0.00  0.00    +0.000 N 
ATOM     59  O   UNL     1      -3.906   4.413 132.007  0.00  0.00    +0.000 OA
ATOM     60  H   UNL     1      -5.516   2.660 129.913  0.00  0.00    +0.000 HD
ATOM     61  H   UNL     1      -4.236   2.494 130.202  0.00  0.00    +0.000 HD
ENDBRANCH  56  57
ENDBRANCH  22  56
TORSDOF 12
ENDMDL
MODEL 4
REMARK VINA RESULT:      -7.9      3.235      7.199
REMARK  Name = CHEMBL328348
REMARK  16 active torsions:
REMARK  status: ('A' for Active; 'I' for Inactive)
REMARK    1  A    between atoms: C_1  and  C_2
REMARK    2  A    between atoms: C_2  and  C_3
REMARK    3  A    between atoms: C_3  and  C_4
REMARK    4  A    between atoms: C_3  and  C_5
REMARK    5  A    between atoms: C_9  and  C_10
REMARK    6  A    between atoms: C_10  and  C_11
REMARK    7  A    between atoms: C_10  and  C_12
REMARK    8  A    between atoms: C_12  and  C_13
REMARK    9  A    between atoms: C_17  and  C_18
REMARK   10  A    between atoms: C_18  and  C_19
REMARK   11  A    between atoms: C_36  and  C_37
REMARK   12  A    between atoms: C_37  and  C_38
REMARK   13  A    between atoms: C_38  and  C_39
REMARK   14  A    between atoms: C_39  and  N_40
REMARK   15  A    between atoms: C_44  and  C_45
REMARK   16  A    between atoms: C_45  and  C_46
REMARK                            x       y       z     vdW  Elec       q    Type
REMARK                         _______ _______ _______ _____ _____    ______ ____
ROOT
ATOM      1  C   UNL     1      -5.690  -0.705 129.525  0.00  0.00    +0.000 C 
ATOM      2  N   UNL     1      -6.490  -0.806 131.254  0.00  0.00    +0.000 N 
ATOM      3  C   UNL     1      -6.808   0.667 131.832  0.00  0.00    +0.000 C 
ATOM      4  O   UNL     1      -7.239   1.822 130.657  0.00  0.00    +0.000 OA
ATOM      5  C   UNL     1      -4.895   1.117 132.402  0.00  0.00    +0.000 C 
ATOM      6  N   UNL     1      -3.805   2.312 131.489  0.00  0.00    +0.000 N 
ATOM      7  C   UNL     1      -3.882   3.556 131.167  0.00  0.00    +0.000 C 
ATOM      8  O   UNL     1      -2.961   3.888 130.397  0.00  0.00    +0.000 OA
ATOM      9  C   UNL     1      -5.146   4.216 131.740  0.00  0.00    +0.000 C 
ATOM     10  N   UNL     1      -4.461   5.187 132.455  0.00  0.00    +0.000 N 
ATOM     11  C   UNL     1      -3.721   6.164 131.893  0.00  0.00    +0.000 C 
ATOM     12  O   UNL     1      -3.093   6.888 132.660  0.00  0.00    +0.000 OA
ATOM     13  C   UNL     1      -3.666   6.379 130.370  0.00  0.00    +0.000 C 
ATOM     14  C   UNL     1      -4.594   5.630 129.458  0.00  0.00    +0.000 C 
ATOM     15  C   UNL     1      -4.264   5.681 128.001  0.00  0.00    +0.000 C 
ATOM     16  S   UNL     1      -5.580   4.998 127.066  0.00  0.00    +0.000 S 
ATOM     17  C   UNL     1      -5.184   4.393 125.428  0.00  0.00    +0.000 C 
ATOM     18  C   UNL     1      -6.047   3.223 124.844  0.00  0.00    +0.000 C 
ATOM     19  N   UNL     1      -5.450   1.972 125.122  0.00  0.00    +0.000 N 
ATOM     20  C   UNL     1      -5.400   1.502 126.332  0.00  0.00    +0.000 C 
ATOM     21  O   UNL     1      -4.928   0.380 126.376  0.00  0.00    +0.000 OA
ATOM     22  C   UNL     1      -5.990   2.358 127.413  0.00  0.00    +0.000 C 
ATOM     23  N   UNL     1      -7.184   1.669 127.866  0.00  0.00    +0.000 N 
ATOM     24  C   UNL     1      -7.171   0.327 128.096  0.00  0.00    +0.000 C 
ATOM     25  O   UNL     1      -8.545   0.034 128.290  0.00  0.00    +0.000 OA
ATOM     26  H   UNL     1      -7.547  -0.930 131.152  0.00  0.00    +0.000 HD
ATOM     27  H   UNL     1      -3.141   2.167 130.651  0.00  0.00    +0.000 HD
ATOM     28  H   UNL     1      -4.385   4.959 133.436  0.00  0.00    +0.000 HD
ATOM     29  H   UNL     1      -5.131   1.260 124.480  0.00  0.00    +0.000 HD
ATOM     30  H   UNL     1      -7.927   2.208 128.381  0.00  0.00    +0.000 HD
ENDROOT
BRANCH   1  31
ATOM     31  C   UNL     1      -4.370  -2.254 129.441  0.00  0.00    +0.000 C 
ATOM     32  C   UNL     1      -3.145  -1.926 130.387  0.00  0.00    +0.000 C 
BRANCH  31  34
ATOM     33  C   UNL     1      -4.684  -4.090 130.463  0.00  0.00    +0.000 C 
ATOM     34  C   UNL     1      -5.200  -3.474 129.233  0.00  0.00    +0.000 C 
ENDBRANCH  31  34
ENDBRANCH   1  31
BRANCH   5  35
ATOM     35  C   UNL     1      -4.292   1.417 133.636  0.00  0.00    +0.000 C 
ATOM     36  C   UNL     1      -2.928   0.821 133.655  0.00  0.00    +0.000 C 
BRANCH  35  37
ATOM     37  C   UNL     1      -5.511   0.885 134.292  0.00  0.00    +0.000 C 
ATOM     38  C   UNL     1      -5.255   0.581 135.781  0.00  0.00    +0.000 C 
ENDBRANCH  35  37
ENDBRANCH   5  35
BRANCH   9  39
ATOM     39  C   UNL     1      -6.043   3.547 132.707  0.00  0.00    +0.000 C 
BRANCH  39  40
ATOM     40  C   UNL     1      -6.603   4.501 133.529  0.00  0.00    +0.000 A 
ATOM     41  C   UNL     1      -7.902   5.755 133.288  0.00  0.00    +0.000 A 
ATOM     42  N   UNL     1      -8.546   6.311 134.921  0.00  0.00    +0.000 N 
ATOM     43  C   UNL     1      -7.476   5.824 136.253  0.00  0.00    +0.000 A 
ATOM     44  C   UNL     1      -7.551   6.644 138.182  0.00  0.00    +0.000 A 
ATOM     45  C   UNL     1      -6.565   5.474 139.360  0.00  0.00    +0.000 A 
ATOM     46  C   UNL     1      -5.149   4.362 138.523  0.00  0.00    +0.000 A 
ATOM     47  C   UNL     1      -4.748   4.315 136.765  0.00  0.00    +0.000 A 
ATOM     48  C   UNL     1      -6.232   4.486 135.582  0.00  0.00    +0.000 A 
ATOM     49  H   UNL     1      -9.456   6.469 135.339  0.00  0.00    +0.000 HD
ENDBRANCH  39  40
ENDBRANCH   9  39
BRANCH  18  50
ATOM     50  C   UNL     1      -7.540   3.230 125.227  0.00  0.00    +0.000 C 
BRANCH  50  51
ATOM     51  C   UNL     1      -8.438   3.042 124.021  0.00  0.00    +0.000 C 
BRANCH  51  52
ATOM     52  C   UNL     1      -9.391   1.888 124.261  0.00  0.00    +0.000 C 
BRANCH  52  53
ATOM     53  N   UNL     1      -9.361   1.541 125.669  0.00  0.00    +0.000 NA
ATOM     54  H   UNL     1      -9.195   0.543 125.773  0.00  0.00    +0.000 HD
ATOM     55  H   UNL     1     -10.267   1.743 126.084  0.00  0.00    +0.000 HD
ENDBRANCH  52  53
ENDBRANCH  51  52
ENDBRANCH  50  51
ENDBRANCH  18  50
BRANCH  22  56
ATOM     56  C   UNL     1      -4.747   2.852 128.322  0.00  0.00    +0.000 C 
BRANCH  56  57
ATOM     57  C   UNL     1      -3.467   2.518 127.842  0.00  0.00    +0.000 C 
ATOM     58  N   UNL     1      -3.808   1.670 128.735  0.00  0.00    +0.000 N 
ATOM     59  O   UNL     1      -2.422   3.011 127.511  0.00  0.00    +0.000 OA
ATOM     60  H   UNL     1      -4.461   0.939 128.777  0.00  0.00    +0.000 HD
ATOM     61  H   UNL     1      -3.206   1.089 129.167  0.00  0.00    +0.000 HD
ENDBRANCH  56  57
ENDBRANCH  22  56
TORSDOF 12
ENDMDL
MODEL 5
REMARK VINA RESULT:      -7.9      2.983      6.557
REMARK  Name = CHEMBL328348
REMARK  16 active torsions:
REMARK  status: ('A' for Active; 'I' for Inactive)
REMARK    1  A    between atoms: C_1  and  C_2
REMARK    2  A    between atoms: C_2  and  C_3
REMARK    3  A    between atoms: C_3  and  C_4
REMARK    4  A    between atoms: C_3  and  C_5
REMARK    5  A    between atoms: C_9  and  C_10
REMARK    6  A    between atoms: C_10  and  C_11
REMARK    7  A    between atoms: C_10  and  C_12
REMARK    8  A    between atoms: C_12  and  C_13
REMARK    9  A    between atoms: C_17  and  C_18
REMARK   10  A    between atoms: C_18  and  C_19
REMARK   11  A    between atoms: C_36  and  C_37
REMARK   12  A    between atoms: C_37  and  C_38
REMARK   13  A    between atoms: C_38  and  C_39
REMARK   14  A    between atoms: C_39  and  N_40
REMARK   15  A    between atoms: C_44  and  C_45
REMARK   16  A    between atoms: C_45  and  C_46
REMARK                            x       y       z     vdW  Elec       q    Type
REMARK                         _______ _______ _______ _____ _____    ______ ____
ROOT
ATOM      1  C   UNL     1      -9.718   4.359 130.832  0.00  0.00    +0.000 C 
ATOM      2  N   UNL     1     -10.098   2.868 129.705  0.00  0.00    +0.000 N 
ATOM      3  C   UNL     1      -8.752   2.047 129.358  0.00  0.00    +0.000 C 
ATOM      4  O   UNL     1      -7.586   2.022 130.599  0.00  0.00    +0.000 OA
ATOM      5  C   UNL     1      -8.046   3.339 127.936  0.00  0.00    +0.000 C 
ATOM      6  N   UNL     1      -6.615   4.490 128.212  0.00  0.00    +0.000 N 
ATOM      7  C   UNL     1      -5.378   4.347 128.536  0.00  0.00    +0.000 C 
ATOM      8  O   UNL     1      -4.834   5.444 128.766  0.00  0.00    +0.000 OA
ATOM      9  C   UNL     1      -4.985   2.865 128.648  0.00  0.00    +0.000 C 
ATOM     10  N   UNL     1      -3.980   2.935 127.694  0.00  0.00    +0.000 N 
ATOM     11  C   UNL     1      -2.851   3.658 127.831  0.00  0.00    +0.000 C 
ATOM     12  O   UNL     1      -2.102   3.699 126.859  0.00  0.00    +0.000 OA
ATOM     13  C   UNL     1      -2.499   4.390 129.138  0.00  0.00    +0.000 C 
ATOM     14  C   UNL     1      -3.308   4.164 130.383  0.00  0.00    +0.000 C 
ATOM     15  C   UNL     1      -3.079   5.132 131.499  0.00  0.00    +0.000 C 
ATOM     16  S   UNL     1      -3.884   4.571 132.951  0.00  0.00    +0.000 S 
ATOM     17  C   UNL     1      -4.273   5.802 134.191  0.00  0.00    +0.000 C 
ATOM     18  C   UNL     1      -5.512   5.554 135.116  0.00  0.00    +0.000 C 
ATOM     19  N   UNL     1      -6.668   6.167 134.579  0.00  0.00    +0.000 N 
ATOM     20  C   UNL     1      -7.227   5.721 133.495  0.00  0.00    +0.000 C 
ATOM     21  O   UNL     1      -8.256   6.313 133.224  0.00  0.00    +0.000 OA
ATOM     22  C   UNL     1      -6.575   4.541 132.837  0.00  0.00    +0.000 C 
ATOM     23  N   UNL     1      -7.487   3.426 133.015  0.00  0.00    +0.000 N 
ATOM     24  C   UNL     1      -8.823   3.575 132.802  0.00  0.00    +0.000 C 
ATOM     25  O   UNL     1      -9.353   2.356 133.296  0.00  0.00    +0.000 OA
ATOM     26  H   UNL     1     -10.384   2.031 130.305  0.00  0.00    +0.000 HD
ATOM     27  H   UNL     1      -6.577   5.486 128.624  0.00  0.00    +0.000 HD
ATOM     28  H   UNL     1      -4.276   2.576 126.798  0.00  0.00    +0.000 HD
ATOM     29  H   UNL     1      -7.261   6.878 134.985  0.00  0.00    +0.000 HD
ATOM     30  H   UNL     1      -7.123   2.443 132.925  0.00  0.00    +0.000 HD
ENDROOT
BRANCH   1  31
ATOM     31  C   UNL     1     -11.018   5.821 130.262  0.00  0.00    +0.000 C 
ATOM     32  C   UNL     1     -11.781   6.347 131.544  0.00  0.00    +0.000 C 
BRANCH  31  34
ATOM     33  C   UNL     1     -11.067   7.765 129.403  0.00  0.00    +0.000 C 
ATOM     34  C   UNL     1     -10.366   6.507 129.111  0.00  0.00    +0.000 C 
ENDBRANCH  31  34
ENDBRANCH   1  31
BRANCH   5  35
ATOM     35  C   UNL     1      -7.759   3.214 126.565  0.00  0.00    +0.000 C 
ATOM     36  C   UNL     1      -8.149   4.478 125.882  0.00  0.00    +0.000 C 
BRANCH  35  37
ATOM     37  C   UNL     1      -8.514   1.937 126.584  0.00  0.00    +0.000 C 
ATOM     38  C   UNL     1      -8.157   1.061 125.368  0.00  0.00    +0.000 C 
ENDBRANCH  35  37
ENDBRANCH   5  35
BRANCH   9  39
ATOM     39  C   UNL     1      -5.872   1.757 128.233  0.00  0.00    +0.000 C 
BRANCH  39  40
ATOM     40  C   UNL     1      -5.383   0.577 128.752  0.00  0.00    +0.000 A 
ATOM     41  C   UNL     1      -5.143  -1.090 128.058  0.00  0.00    +0.000 A 
ATOM     42  N   UNL     1      -3.948  -2.033 129.095  0.00  0.00    +0.000 N 
ATOM     43  C   UNL     1      -3.692  -1.260 130.674  0.00  0.00    +0.000 A 
ATOM     44  C   UNL     1      -2.822  -2.216 132.325  0.00  0.00    +0.000 A 
ATOM     45  C   UNL     1      -2.320  -0.855 133.600  0.00  0.00    +0.000 A 
ATOM     46  C   UNL     1      -3.344   0.844 133.531  0.00  0.00    +0.000 A 
ATOM     47  C   UNL     1      -4.653   1.238 132.353  0.00  0.00    +0.000 A 
ATOM     48  C   UNL     1      -4.406   0.549 130.594  0.00  0.00    +0.000 A 
ATOM     49  H   UNL     1      -3.135  -2.617 128.937  0.00  0.00    +0.000 HD
ENDBRANCH  39  40
ENDBRANCH   9  39
BRANCH  18  50
ATOM     50  C   UNL     1      -5.783   4.087 135.503  0.00  0.00    +0.000 C 
BRANCH  50  51
ATOM     51  C   UNL     1      -5.142   3.720 136.826  0.00  0.00    +0.000 C 
BRANCH  51  52
ATOM     52  C   UNL     1      -4.037   2.707 136.601  0.00  0.00    +0.000 C 
BRANCH  52  53
ATOM     53  N   UNL     1      -2.941   3.002 137.504  0.00  0.00    +0.000 NA
ATOM     54  H   UNL     1      -2.998   3.971 137.807  0.00  0.00    +0.000 HD
ATOM     55  H   UNL     1      -2.060   2.889 137.011  0.00  0.00    +0.000 HD
ENDBRANCH  52  53
ENDBRANCH  51  52
ENDBRANCH  50  51
ENDBRANCH  18  50
BRANCH  22  56
ATOM     56  C   UNL     1      -5.965   5.087 131.442  0.00  0.00    +0.000 C 
BRANCH  56  57
ATOM     57  C   UNL     1      -6.083   6.471 131.222  0.00  0.00    +0.000 C 
ATOM     58  N   UNL     1      -7.053   5.877 130.641  0.00  0.00    +0.000 N 
ATOM     59  O   UNL     1      -5.429   7.448 130.973  0.00  0.00    +0.000 OA
ATOM     60  H   UNL     1      -7.862   5.416 130.949  0.00  0.00    +0.000 HD
ATOM     61  H   UNL     1      -7.593   6.274 129.979  0.00  0.00    +0.000 HD
ENDBRANCH  56  57
ENDBRANCH  22  56
TORSDOF 12
ENDMDL
MODEL 6
REMARK VINA RESULT:      -7.7      2.750      7.583
REMARK  Name = CHEMBL328348
REMARK  16 active torsions:
REMARK  status: ('A' for Active; 'I' for Inactive)
REMARK    1  A    between atoms: C_1  and  C_2
REMARK    2  A    between atoms: C_2  and  C_3
REMARK    3  A    between atoms: C_3  and  C_4
REMARK    4  A    between atoms: C_3  and  C_5
REMARK    5  A    between atoms: C_9  and  C_10
REMARK    6  A    between atoms: C_10  and  C_11
REMARK    7  A    between atoms: C_10  and  C_12
REMARK    8  A    between atoms: C_12  and  C_13
REMARK    9  A    between atoms: C_17  and  C_18
REMARK   10  A    between atoms: C_18  and  C_19
REMARK   11  A    between atoms: C_36  and  C_37
REMARK   12  A    between atoms: C_37  and  C_38
REMARK   13  A    between atoms: C_38  and  C_39
REMARK   14  A    between atoms: C_39  and  N_40
REMARK   15  A    between atoms: C_44  and  C_45
REMARK   16  A    between atoms: C_45  and  C_46
REMARK                            x       y       z     vdW  Elec       q    Type
REMARK                         _______ _______ _______ _____ _____    ______ ____
ROOT
ATOM      1  C   UNL     1      -5.439   3.311 132.380  0.00  0.00    +0.000 C 
ATOM      2  N   UNL     1      -6.597   3.474 130.873  0.00  0.00    +0.000 N 
ATOM      3  C   UNL     1      -7.006   2.022 130.297  0.00  0.00    +0.000 C 
ATOM      4  O   UNL     1      -7.149   0.798 131.472  0.00  0.00    +0.000 OA
ATOM      5  C   UNL     1      -5.253   1.659 129.304  0.00  0.00    +0.000 C 
ATOM      6  N   UNL     1      -3.969   0.454 129.893  0.00  0.00    +0.000 N 
ATOM      7  C   UNL     1      -3.951  -0.806 130.155  0.00  0.00    +0.000 C 
ATOM      8  O   UNL     1      -2.879  -1.148 130.689  0.00  0.00    +0.000 OA
ATOM      9  C   UNL     1      -5.297  -1.475 129.833  0.00  0.00    +0.000 C 
ATOM     10  N   UNL     1      -4.766  -2.388 128.934  0.00  0.00    +0.000 N 
ATOM     11  C   UNL     1      -3.903  -3.369 129.268  0.00  0.00    +0.000 C 
ATOM     12  O   UNL     1      -3.443  -4.035 128.345  0.00  0.00    +0.000 OA
ATOM     13  C   UNL     1      -3.515  -3.657 130.729  0.00  0.00    +0.000 C 
ATOM     14  C   UNL     1      -4.236  -2.983 131.860  0.00  0.00    +0.000 C 
ATOM     15  C   UNL     1      -3.597  -3.096 133.207  0.00  0.00    +0.000 C 
ATOM     16  S   UNL     1      -4.690  -2.501 134.440  0.00  0.00    +0.000 S 
ATOM     17  C   UNL     1      -3.960  -1.966 135.984  0.00  0.00    +0.000 C 
ATOM     18  C   UNL     1      -4.697  -0.853 136.805  0.00  0.00    +0.000 C 
ATOM     19  N   UNL     1      -4.197   0.427 136.474  0.00  0.00    +0.000 N 
ATOM     20  C   UNL     1      -4.421   0.959 135.309  0.00  0.00    +0.000 C 
ATOM     21  O   UNL     1      -3.990   2.095 135.226  0.00  0.00    +0.000 OA
ATOM     22  C   UNL     1      -5.216   0.140 134.336  0.00  0.00    +0.000 C 
ATOM     23  N   UNL     1      -6.492   0.814 134.190  0.00  0.00    +0.000 N 
ATOM     24  C   UNL     1      -6.555   2.165 134.036  0.00  0.00    +0.000 C 
ATOM     25  O   UNL     1      -7.943   2.427 134.161  0.00  0.00    +0.000 OA
ATOM     26  H   UNL     1      -7.608   3.561 131.208  0.00  0.00    +0.000 HD
ATOM     27  H   UNL     1      -3.142   0.577 130.574  0.00  0.00    +0.000 HD
ATOM     28  H   UNL     1      -4.908  -2.109 127.975  0.00  0.00    +0.000 HD
ATOM     29  H   UNL     1      -3.760   1.116 137.070  0.00  0.00    +0.000 HD
ATOM     30  H   UNL     1      -7.318   0.279 133.819  0.00  0.00    +0.000 HD
ENDROOT
BRANCH   1  31
ATOM     31  C   UNL     1      -4.161   4.893 132.262  0.00  0.00    +0.000 C 
ATOM     32  C   UNL     1      -3.166   4.650 131.057  0.00  0.00    +0.000 C 
BRANCH  31  34
ATOM     33  C   UNL     1      -4.546   6.851 131.531  0.00  0.00    +0.000 C 
ATOM     34  C   UNL     1      -4.949   6.076 132.712  0.00  0.00    +0.000 C 
ENDBRANCH  31  34
ENDBRANCH   1  31
BRANCH   5  35
ATOM     35  C   UNL     1      -4.928   1.439 127.955  0.00  0.00    +0.000 C 
ATOM     36  C   UNL     1      -3.683   2.192 127.638  0.00  0.00    +0.000 C 
BRANCH  35  37
ATOM     37  C   UNL     1      -6.319   1.827 127.618  0.00  0.00    +0.000 C 
ATOM     38  C   UNL     1      -6.407   2.404 126.191  0.00  0.00    +0.000 C 
ENDBRANCH  35  37
ENDBRANCH   5  35
BRANCH   9  39
ATOM     39  C   UNL     1      -6.396  -0.786 129.121  0.00  0.00    +0.000 C 
BRANCH  39  40
ATOM     40  C   UNL     1      -7.074  -1.707 128.352  0.00  0.00    +0.000 A 
ATOM     41  C   UNL     1      -8.182  -3.097 128.752  0.00  0.00    +0.000 A 
ATOM     42  N   UNL     1      -9.172  -3.554 127.267  0.00  0.00    +0.000 N 
ATOM     43  C   UNL     1      -8.504  -2.842 125.783  0.00  0.00    +0.000 A 
ATOM     44  C   UNL     1      -8.999  -3.477 123.847  0.00  0.00    +0.000 A 
ATOM     45  C   UNL     1      -8.422  -2.111 122.611  0.00  0.00    +0.000 A 
ATOM     46  C   UNL     1      -6.923  -0.953 123.206  0.00  0.00    +0.000 A 
ATOM     47  C   UNL     1      -6.101  -1.036 124.810  0.00  0.00    +0.000 A 
ATOM     48  C   UNL     1      -7.228  -1.460 126.286  0.00  0.00    +0.000 A 
ATOM     49  H   UNL     1     -10.144  -3.758 127.064  0.00  0.00    +0.000 HD
ENDBRANCH  39  40
ENDBRANCH   9  39
BRANCH  18  50
ATOM     50  C   UNL     1      -6.237  -0.886 136.754  0.00  0.00    +0.000 C 
BRANCH  50  51
ATOM     51  C   UNL     1      -6.826  -1.722 137.872  0.00  0.00    +0.000 C 
BRANCH  51  52
ATOM     52  C   UNL     1      -7.601  -2.888 137.292  0.00  0.00    +0.000 C 
BRANCH  52  53
ATOM     53  N   UNL     1      -7.933  -2.590 135.911  0.00  0.00    +0.000 NA
ATOM     54  H   UNL     1      -8.915  -2.336 135.842  0.00  0.00    +0.000 HD
ATOM     55  H   UNL     1      -7.794  -3.422 135.345  0.00  0.00    +0.000 HD
ENDBRANCH  52  53
ENDBRANCH  51  52
ENDBRANCH  50  51
ENDBRANCH  18  50
BRANCH  22  56
ATOM     56  C   UNL     1      -4.190  -0.270 133.154  0.00  0.00    +0.000 C 
BRANCH  56  57
ATOM     57  C   UNL     1      -2.837   0.043 133.381  0.00  0.00    +0.000 C 
ATOM     58  N   UNL     1      -3.349   0.940 132.630  0.00  0.00    +0.000 N 
ATOM     59  O   UNL     1      -1.750  -0.462 133.461  0.00  0.00    +0.000 OA
ATOM     60  H   UNL     1      -3.993   1.668 132.765  0.00  0.00    +0.000 HD
ATOM     61  H   UNL     1      -2.845   1.550 132.119  0.00  0.00    +0.000 HD
ENDBRANCH  56  57
ENDBRANCH  22  56
TORSDOF 12
ENDMDL
MODEL 7
REMARK VINA RESULT:      -7.6      2.839      7.290
REMARK  Name = CHEMBL328348
REMARK  16 active torsions:
REMARK  status: ('A' for Active; 'I' for Inactive)
REMARK    1  A    between atoms: C_1  and  C_2
REMARK    2  A    between atoms: C_2  and  C_3
REMARK    3  A    between atoms: C_3  and  C_4
REMARK    4  A    between atoms: C_3  and  C_5
REMARK    5  A    between atoms: C_9  and  C_10
REMARK    6  A    between atoms: C_10  and  C_11
REMARK    7  A    between atoms: C_10  and  C_12
REMARK    8  A    between atoms: C_12  and  C_13
REMARK    9  A    between atoms: C_17  and  C_18
REMARK   10  A    between atoms: C_18  and  C_19
REMARK   11  A    between atoms: C_36  and  C_37
REMARK   12  A    between atoms: C_37  and  C_38
REMARK   13  A    between atoms: C_38  and  C_39
REMARK   14  A    between atoms: C_39  and  N_40
REMARK   15  A    between atoms: C_44  and  C_45
REMARK   16  A    between atoms: C_45  and  C_46
REMARK                            x       y       z     vdW  Elec       q    Type
REMARK                         _______ _______ _______ _____ _____    ______ ____
ROOT
ATOM      1  C   UNL     1      -5.392  -0.655 129.570  0.00  0.00    +0.000 C 
ATOM      2  N   UNL     1      -6.141  -0.806 131.318  0.00  0.00    +0.000 N 
ATOM      3  C   UNL     1      -6.554   0.644 131.897  0.00  0.00    +0.000 C 
ATOM      4  O   UNL     1      -7.096   1.757 130.728  0.00  0.00    +0.000 OA
ATOM      5  C   UNL     1      -4.666   1.237 132.420  0.00  0.00    +0.000 C 
ATOM      6  N   UNL     1      -3.689   2.503 131.476  0.00  0.00    +0.000 N 
ATOM      7  C   UNL     1      -3.865   3.736 131.151  0.00  0.00    +0.000 C 
ATOM      8  O   UNL     1      -2.990   4.131 130.358  0.00  0.00    +0.000 OA
ATOM      9  C   UNL     1      -5.161   4.305 131.751  0.00  0.00    +0.000 C 
ATOM     10  N   UNL     1      -4.533   5.328 132.447  0.00  0.00    +0.000 N 
ATOM     11  C   UNL     1      -3.880   6.353 131.864  0.00  0.00    +0.000 C 
ATOM     12  O   UNL     1      -3.290   7.127 132.613  0.00  0.00    +0.000 OA
ATOM     13  C   UNL     1      -3.877   6.563 130.339  0.00  0.00    +0.000 C 
ATOM     14  C   UNL     1      -4.768   5.743 129.452  0.00  0.00    +0.000 C 
ATOM     15  C   UNL     1      -4.477   5.809 127.987  0.00  0.00    +0.000 C 
ATOM     16  S   UNL     1      -5.760   5.026 127.086  0.00  0.00    +0.000 S 
ATOM     17  C   UNL     1      -5.359   4.442 125.442  0.00  0.00    +0.000 C 
ATOM     18  C   UNL     1      -6.146   3.209 124.883  0.00  0.00    +0.000 C 
ATOM     19  N   UNL     1      -5.452   2.007 125.152  0.00  0.00    +0.000 N 
ATOM     20  C   UNL     1      -5.340   1.548 126.362  0.00  0.00    +0.000 C 
ATOM     21  O   UNL     1      -4.784   0.465 126.399  0.00  0.00    +0.000 OA
ATOM     22  C   UNL     1      -5.966   2.365 127.453  0.00  0.00    +0.000 C 
ATOM     23  N   UNL     1      -7.095   1.592 127.937  0.00  0.00    +0.000 N 
ATOM     24  C   UNL     1      -6.977   0.257 128.172  0.00  0.00    +0.000 C 
ATOM     25  O   UNL     1      -8.321  -0.137 128.399  0.00  0.00    +0.000 OA
ATOM     26  H   UNL     1      -7.188  -1.008 131.241  0.00  0.00    +0.000 HD
ATOM     27  H   UNL     1      -3.036   2.403 130.624  0.00  0.00    +0.000 HD
ATOM     28  H   UNL     1      -4.417   5.112 133.426  0.00  0.00    +0.000 HD
ATOM     29  H   UNL     1      -5.096   1.316 124.505  0.00  0.00    +0.000 HD
ATOM     30  H   UNL     1      -7.863   2.078 128.467  0.00  0.00    +0.000 HD
ENDROOT
BRANCH   1  31
ATOM     31  C   UNL     1      -3.963  -2.103 129.461  0.00  0.00    +0.000 C 
ATOM     32  C   UNL     1      -3.016  -1.975 130.722  0.00  0.00    +0.000 C 
BRANCH  31  34
ATOM     33  C   UNL     1      -3.376  -4.042 128.818  0.00  0.00    +0.000 C 
ATOM     34  C   UNL     1      -4.620  -3.262 128.793  0.00  0.00    +0.000 C 
ENDBRANCH  31  34
ENDBRANCH   1  31
BRANCH   5  35
ATOM     35  C   UNL     1      -4.059   1.588 133.638  0.00  0.00    +0.000 C 
ATOM     36  C   UNL     1      -2.675   1.039 133.654  0.00  0.00    +0.000 C 
BRANCH  35  37
ATOM     37  C   UNL     1      -5.251   1.031 134.323  0.00  0.00    +0.000 C 
ATOM     38  C   UNL     1      -5.049   0.995 135.851  0.00  0.00    +0.000 C 
ENDBRANCH  35  37
ENDBRANCH   5  35
BRANCH   9  39
ATOM     39  C   UNL     1      -5.984   3.577 132.742  0.00  0.00    +0.000 C 
BRANCH  39  40
ATOM     40  C   UNL     1      -7.184   4.238 132.896  0.00  0.00    +0.000 A 
ATOM     41  C   UNL     1      -8.109   4.830 134.350  0.00  0.00    +0.000 A 
ATOM     42  N   UNL     1      -9.335   6.103 133.834  0.00  0.00    +0.000 N 
ATOM     43  C   UNL     1      -9.589   6.103 132.076  0.00  0.00    +0.000 A 
ATOM     44  C   UNL     1     -11.216   7.017 131.121  0.00  0.00    +0.000 A 
ATOM     45  C   UNL     1     -10.790   7.169 129.243  0.00  0.00    +0.000 A 
ATOM     46  C   UNL     1      -9.488   5.857 128.521  0.00  0.00    +0.000 A 
ATOM     47  C   UNL     1      -8.638   4.582 129.474  0.00  0.00    +0.000 A 
ATOM     48  C   UNL     1      -8.156   5.074 131.251  0.00  0.00    +0.000 A 
ATOM     49  H   UNL     1      -9.626   7.019 134.156  0.00  0.00    +0.000 HD
ENDBRANCH  39  40
ENDBRANCH   9  39
BRANCH  18  50
ATOM     50  C   UNL     1      -7.626   3.107 125.301  0.00  0.00    +0.000 C 
BRANCH  50  51
ATOM     51  C   UNL     1      -8.526   2.771 124.130  0.00  0.00    +0.000 C 
BRANCH  51  52
ATOM     52  C   UNL     1      -9.317   1.512 124.430  0.00  0.00    +0.000 C 
BRANCH  52  53
ATOM     53  N   UNL     1      -9.417   1.355 125.869  0.00  0.00    +0.000 NA
ATOM     54  H   UNL     1      -9.279   0.379 126.117  0.00  0.00    +0.000 HD
ATOM     55  H   UNL     1     -10.352   1.615 126.171  0.00  0.00    +0.000 HD
ENDBRANCH  52  53
ENDBRANCH  51  52
ENDBRANCH  50  51
ENDBRANCH  18  50
BRANCH  22  56
ATOM     56  C   UNL     1      -4.742   2.954 128.330  0.00  0.00    +0.000 C 
BRANCH  56  57
ATOM     57  C   UNL     1      -3.451   2.695 127.833  0.00  0.00    +0.000 C 
ATOM     58  N   UNL     1      -3.730   1.829 128.729  0.00  0.00    +0.000 N 
ATOM     59  O   UNL     1      -2.442   3.249 127.488  0.00  0.00    +0.000 OA
ATOM     60  H   UNL     1      -4.338   1.061 128.781  0.00  0.00    +0.000 HD
ATOM     61  H   UNL     1      -3.089   1.284 129.152  0.00  0.00    +0.000 HD
ENDBRANCH  56  57
ENDBRANCH  22  56
TORSDOF 12
ENDMDL
MODEL 8
REMARK VINA RESULT:      -7.6      2.120      2.840
REMARK  Name = CHEMBL328348
REMARK  16 active torsions:
REMARK  status: ('A' for Active; 'I' for Inactive)
REMARK    1  A    between atoms: C_1  and  C_2
REMARK    2  A    between atoms: C_2  and  C_3
REMARK    3  A    between atoms: C_3  and  C_4
REMARK    4  A    between atoms: C_3  and  C_5
REMARK    5  A    between atoms: C_9  and  C_10
REMARK    6  A    between atoms: C_10  and  C_11
REMARK    7  A    between atoms: C_10  and  C_12
REMARK    8  A    between atoms: C_12  and  C_13
REMARK    9  A    between atoms: C_17  and  C_18
REMARK   10  A    between atoms: C_18  and  C_19
REMARK   11  A    between atoms: C_36  and  C_37
REMARK   12  A    between atoms: C_37  and  C_38
REMARK   13  A    between atoms: C_38  and  C_39
REMARK   14  A    between atoms: C_39  and  N_40
REMARK   15  A    between atoms: C_44  and  C_45
REMARK   16  A    between atoms: C_45  and  C_46
REMARK                            x       y       z     vdW  Elec       q    Type
REMARK                         _______ _______ _______ _____ _____    ______ ____
ROOT
ATOM      1  C   UNL     1      -5.762  -2.097 129.108  0.00  0.00    +0.000 C 
ATOM      2  N   UNL     1      -5.279  -0.704 127.898  0.00  0.00    +0.000 N 
ATOM      3  C   UNL     1      -4.742   0.594 128.694  0.00  0.00    +0.000 C 
ATOM      4  O   UNL     1      -3.895   0.254 130.133  0.00  0.00    +0.000 OA
ATOM      5  C   UNL     1      -6.576   1.300 129.264  0.00  0.00    +0.000 C 
ATOM      6  N   UNL     1      -7.227   1.187 130.999  0.00  0.00    +0.000 N 
ATOM      7  C   UNL     1      -6.833   1.605 132.151  0.00  0.00    +0.000 C 
ATOM      8  O   UNL     1      -7.531   1.138 133.071  0.00  0.00    +0.000 OA
ATOM      9  C   UNL     1      -5.560   2.459 132.044  0.00  0.00    +0.000 C 
ATOM     10  N   UNL     1      -6.120   3.585 132.629  0.00  0.00    +0.000 N 
ATOM     11  C   UNL     1      -6.535   3.648 133.910  0.00  0.00    +0.000 C 
ATOM     12  O   UNL     1      -7.101   4.682 134.254  0.00  0.00    +0.000 OA
ATOM     13  C   UNL     1      -6.307   2.496 134.904  0.00  0.00    +0.000 C 
ATOM     14  C   UNL     1      -5.435   1.330 134.538  0.00  0.00    +0.000 C 
ATOM     15  C   UNL     1      -5.517   0.140 135.438  0.00  0.00    +0.000 C 
ATOM     16  S   UNL     1      -4.254  -1.004 135.034  0.00  0.00    +0.000 S 
ATOM     17  C   UNL     1      -4.515  -2.708 135.519  0.00  0.00    +0.000 C 
ATOM     18  C   UNL     1      -3.847  -3.833 134.657  0.00  0.00    +0.000 C 
ATOM     19  N   UNL     1      -4.737  -4.296 133.661  0.00  0.00    +0.000 N 
ATOM     20  C   UNL     1      -5.072  -3.547 132.654  0.00  0.00    +0.000 C 
ATOM     21  O   UNL     1      -5.778  -4.133 131.852  0.00  0.00    +0.000 OA
ATOM     22  C   UNL     1      -4.484  -2.167 132.614  0.00  0.00    +0.000 C 
ATOM     23  N   UNL     1      -3.553  -2.159 131.502  0.00  0.00    +0.000 N 
ATOM     24  C   UNL     1      -3.891  -2.707 130.303  0.00  0.00    +0.000 C 
ATOM     25  O   UNL     1      -2.660  -2.695 129.598  0.00  0.00    +0.000 OA
ATOM     26  H   UNL     1      -4.272  -0.848 127.572  0.00  0.00    +0.000 HD
ATOM     27  H   UNL     1      -7.770   0.403 131.502  0.00  0.00    +0.000 HD
ATOM     28  H   UNL     1      -6.393   4.276 131.946  0.00  0.00    +0.000 HD
ATOM     29  H   UNL     1      -5.100  -5.227 133.511  0.00  0.00    +0.000 HD
ATOM     30  H   UNL     1      -2.799  -1.426 131.466  0.00  0.00    +0.000 HD
ENDROOT
BRANCH   1  31
ATOM     31  C   UNL     1      -7.358  -3.033 128.256  0.00  0.00    +0.000 C 
ATOM     32  C   UNL     1      -8.443  -3.304 129.376  0.00  0.00    +0.000 C 
BRANCH  31  34
ATOM     33  C   UNL     1      -8.693  -3.219 126.612  0.00  0.00    +0.000 C 
ATOM     34  C   UNL     1      -7.438  -2.499 126.867  0.00  0.00    +0.000 C 
ENDBRANCH  31  34
ENDBRANCH   1  31
BRANCH   5  35
ATOM     35  C   UNL     1      -7.282   2.489 129.012  0.00  0.00    +0.000 C 
ATOM     36  C   UNL     1      -8.740   2.204 129.101  0.00  0.00    +0.000 C 
BRANCH  35  37
ATOM     37  C   UNL     1      -6.472   2.638 127.778  0.00  0.00    +0.000 C 
ATOM     38  C   UNL     1      -6.768   3.977 127.075  0.00  0.00    +0.000 C 
ENDBRANCH  35  37
ENDBRANCH   5  35
BRANCH   9  39
ATOM     39  C   UNL     1      -4.988   2.905 130.754  0.00  0.00    +0.000 C 
BRANCH  39  40
ATOM     40  C   UNL     1      -4.857   4.277 130.776  0.00  0.00    +0.000 A 
ATOM     41  C   UNL     1      -5.928   5.645 130.227  0.00  0.00    +0.000 A 
ATOM     42  N   UNL     1      -5.412   7.210 131.046  0.00  0.00    +0.000 N 
ATOM     43  C   UNL     1      -3.802   7.070 131.786  0.00  0.00    +0.000 A 
ATOM     44  C   UNL     1      -2.633   8.705 132.381  0.00  0.00    +0.000 A 
ATOM     45  C   UNL     1      -1.242   8.044 133.546  0.00  0.00    +0.000 A 
ATOM     46  C   UNL     1      -0.714   6.146 133.308  0.00  0.00    +0.000 A 
ATOM     47  C   UNL     1      -1.456   4.984 132.143  0.00  0.00    +0.000 A 
ATOM     48  C   UNL     1      -3.331   5.182 131.871  0.00  0.00    +0.000 A 
ATOM     49  H   UNL     1      -5.870   7.979 131.523  0.00  0.00    +0.000 HD
ENDBRANCH  39  40
ENDBRANCH   9  39
BRANCH  18  50
ATOM     50  C   UNL     1      -2.465  -3.497 134.063  0.00  0.00    +0.000 C 
BRANCH  50  51
ATOM     51  C   UNL     1      -1.366  -3.567 135.103  0.00  0.00    +0.000 C 
BRANCH  51  52
ATOM     52  C   UNL     1      -0.542  -2.295 135.072  0.00  0.00    +0.000 C 
BRANCH  52  53
ATOM     53  N   UNL     1      -0.742  -1.639 133.793  0.00  0.00    +0.000 NA
ATOM     54  H   UNL     1      -1.617  -1.952 133.381  0.00  0.00    +0.000 HD
ATOM     55  H   UNL     1       0.005  -1.906 133.158  0.00  0.00    +0.000 HD
ENDBRANCH  52  53
ENDBRANCH  51  52
ENDBRANCH  50  51
ENDBRANCH  18  50
BRANCH  22  56
ATOM     56  C   UNL     1      -5.715  -1.148 132.861  0.00  0.00    +0.000 C 
BRANCH  56  57
ATOM     57  C   UNL     1      -6.959  -1.745 133.137  0.00  0.00    +0.000 C 
ATOM     58  N   UNL     1      -6.935  -1.388 131.911  0.00  0.00    +0.000 N 
ATOM     59  O   UNL     1      -7.817  -1.800 133.977  0.00  0.00    +0.000 OA
ATOM     60  H   UNL     1      -6.468  -1.706 131.109  0.00  0.00    +0.000 HD
ATOM     61  H   UNL     1      -7.703  -1.309 131.370  0.00  0.00    +0.000 HD
ENDBRANCH  56  57
ENDBRANCH  22  56
TORSDOF 12
ENDMDL
MODEL 9
REMARK VINA RESULT:      -7.6      2.304      7.607
REMARK  Name = CHEMBL328348
REMARK  16 active torsions:
REMARK  status: ('A' for Active; 'I' for Inactive)
REMARK    1  A    between atoms: C_1  and  C_2
REMARK    2  A    between atoms: C_2  and  C_3
REMARK    3  A    between atoms: C_3  and  C_4
REMARK    4  A    between atoms: C_3  and  C_5
REMARK    5  A    between atoms: C_9  and  C_10
REMARK    6  A    between atoms: C_10  and  C_11
REMARK    7  A    between atoms: C_10  and  C_12
REMARK    8  A    between atoms: C_12  and  C_13
REMARK    9  A    between atoms: C_17  and  C_18
REMARK   10  A    between atoms: C_18  and  C_19
REMARK   11  A    between atoms: C_36  and  C_37
REMARK   12  A    between atoms: C_37  and  C_38
REMARK   13  A    between atoms: C_38  and  C_39
REMARK   14  A    between atoms: C_39  and  N_40
REMARK   15  A    between atoms: C_44  and  C_45
REMARK   16  A    between atoms: C_45  and  C_46
REMARK                            x       y       z     vdW  Elec       q    Type
REMARK                         _______ _______ _______ _____ _____    ______ ____
ROOT
ATOM      1  C   UNL     1      -7.927   2.273 127.566  0.00  0.00    +0.000 C 
ATOM      2  N   UNL     1      -8.789   0.573 127.490  0.00  0.00    +0.000 N 
ATOM      3  C   UNL     1      -8.470  -0.297 128.812  0.00  0.00    +0.000 C 
ATOM      4  O   UNL     1      -8.290   0.609 130.243  0.00  0.00    +0.000 OA
ATOM      5  C   UNL     1      -6.586  -0.880 128.264  0.00  0.00    +0.000 C 
ATOM      6  N   UNL     1      -5.036  -0.187 129.015  0.00  0.00    +0.000 N 
ATOM      7  C   UNL     1      -4.548  -0.121 130.205  0.00  0.00    +0.000 C 
ATOM      8  O   UNL     1      -3.532   0.598 130.245  0.00  0.00    +0.000 OA
ATOM      9  C   UNL     1      -5.432  -0.857 131.225  0.00  0.00    +0.000 C 
ATOM     10  N   UNL     1      -4.436  -1.728 131.641  0.00  0.00    +0.000 N 
ATOM     11  C   UNL     1      -3.315  -1.347 132.286  0.00  0.00    +0.000 C 
ATOM     12  O   UNL     1      -2.480  -2.221 132.501  0.00  0.00    +0.000 OA
ATOM     13  C   UNL     1      -3.085   0.104 132.747  0.00  0.00    +0.000 C 
ATOM     14  C   UNL     1      -4.192   1.115 132.669  0.00  0.00    +0.000 C 
ATOM     15  C   UNL     1      -3.791   2.543 132.852  0.00  0.00    +0.000 C 
ATOM     16  S   UNL     1      -5.216   3.550 133.007  0.00  0.00    +0.000 S 
ATOM     17  C   UNL     1      -5.029   5.288 132.619  0.00  0.00    +0.000 C 
ATOM     18  C   UNL     1      -6.279   6.064 132.080  0.00  0.00    +0.000 C 
ATOM     19  N   UNL     1      -6.299   6.061 130.666  0.00  0.00    +0.000 N 
ATOM     20  C   UNL     1      -6.528   4.971 129.997  0.00  0.00    +0.000 C 
ATOM     21  O   UNL     1      -6.591   5.168 128.797  0.00  0.00    +0.000 OA
ATOM     22  C   UNL     1      -6.749   3.722 130.798  0.00  0.00    +0.000 C 
ATOM     23  N   UNL     1      -8.147   3.375 130.624  0.00  0.00    +0.000 N 
ATOM     24  C   UNL     1      -8.730   3.417 129.395  0.00  0.00    +0.000 C 
ATOM     25  O   UNL     1     -10.105   3.240 129.698  0.00  0.00    +0.000 OA
ATOM     26  H   UNL     1      -9.787   0.662 127.861  0.00  0.00    +0.000 HD
ATOM     27  H   UNL     1      -4.454   0.685 128.761  0.00  0.00    +0.000 HD
ATOM     28  H   UNL     1      -4.522  -2.640 131.218  0.00  0.00    +0.000 HD
ATOM     29  H   UNL     1      -6.285   6.842 130.026  0.00  0.00    +0.000 HD
ATOM     30  H   UNL     1      -8.611   2.739 131.322  0.00  0.00    +0.000 HD
ENDROOT
BRANCH   1  31
ATOM     31  C   UNL     1      -7.406   2.708 125.645  0.00  0.00    +0.000 C 
ATOM     32  C   UNL     1      -7.829   4.201 125.332  0.00  0.00    +0.000 C 
BRANCH  31  34
ATOM     33  C   UNL     1      -6.856   1.078 124.397  0.00  0.00    +0.000 C 
ATOM     34  C   UNL     1      -6.167   1.923 125.381  0.00  0.00    +0.000 C 
ENDBRANCH  31  34
ENDBRANCH   1  31
BRANCH   5  35
ATOM     35  C   UNL     1      -5.985  -2.128 128.026  0.00  0.00    +0.000 C 
ATOM     36  C   UNL     1      -5.046  -1.992 126.878  0.00  0.00    +0.000 C 
BRANCH  35  37
ATOM     37  C   UNL     1      -7.347  -2.713 128.004  0.00  0.00    +0.000 C 
ATOM     38  C   UNL     1      -7.864  -2.870 126.560  0.00  0.00    +0.000 C 
ENDBRANCH  35  37
ENDBRANCH   5  35
BRANCH   9  39
ATOM     39  C   UNL     1      -6.584  -1.701 130.841  0.00  0.00    +0.000 C 
BRANCH  39  40
ATOM     40  C   UNL     1      -6.428  -2.950 131.402  0.00  0.00    +0.000 A 
ATOM     41  C   UNL     1      -5.580  -4.469 130.858  0.00  0.00    +0.000 A 
ATOM     42  N   UNL     1      -5.283  -5.570 132.304  0.00  0.00    +0.000 N 
ATOM     43  C   UNL     1      -6.248  -5.085 133.714  0.00  0.00    +0.000 A 
ATOM     44  C   UNL     1      -6.598  -6.310 135.379  0.00  0.00    +0.000 A 
ATOM     45  C   UNL     1      -7.254  -5.190 136.810  0.00  0.00    +0.000 A 
ATOM     46  C   UNL     1      -8.168  -3.512 136.273  0.00  0.00    +0.000 A 
ATOM     47  C   UNL     1      -8.386  -2.926 134.581  0.00  0.00    +0.000 A 
ATOM     48  C   UNL     1      -6.942  -3.294 133.394  0.00  0.00    +0.000 A 
ATOM     49  H   UNL     1      -4.509  -6.112 132.671  0.00  0.00    +0.000 HD
ENDBRANCH  39  40
ENDBRANCH   9  39
BRANCH  18  50
ATOM     50  C   UNL     1      -7.641   5.638 132.662  0.00  0.00    +0.000 C 
BRANCH  50  51
ATOM     51  C   UNL     1      -8.787   6.432 132.070  0.00  0.00    +0.000 C 
BRANCH  51  52
ATOM     52  C   UNL     1     -10.110   5.839 132.513  0.00  0.00    +0.000 C 
BRANCH  52  53
ATOM     53  N   UNL     1      -9.861   4.557 133.144  0.00  0.00    +0.000 NA
ATOM     54  H   UNL     1     -10.720   4.209 133.563  0.00  0.00    +0.000 HD
ATOM     55  H   UNL     1      -9.185   4.677 133.894  0.00  0.00    +0.000 HD
ENDBRANCH  52  53
ENDBRANCH  51  52
ENDBRANCH  50  51
ENDBRANCH  18  50
BRANCH  22  56
ATOM     56  C   UNL     1      -5.469   2.776 130.514  0.00  0.00    +0.000 C 
BRANCH  56  57
ATOM     57  C   UNL     1      -4.455   3.339 129.717  0.00  0.00    +0.000 C 
ATOM     58  N   UNL     1      -5.179   2.579 128.988  0.00  0.00    +0.000 N 
ATOM     59  O   UNL     1      -3.287   3.621 129.731  0.00  0.00    +0.000 OA
ATOM     60  H   UNL     1      -6.092   2.631 128.632  0.00  0.00    +0.000 HD
ATOM     61  H   UNL     1      -4.921   2.261 128.141  0.00  0.00    +0.000 HD
ENDBRANCH  56  57
ENDBRANCH  22  56
TORSDOF 12
ENDMDL
