MODEL 1
REMARK VINA RESULT:      -9.9      0.000      0.000
REMARK  Name = CHEMBL2369831
REMARK  20 active torsions:
REMARK  status: ('A' for Active; 'I' for Inactive)
REMARK    1  A    between atoms: C_1  and  C_2
REMARK    2  A    between atoms: C_2  and  O_3
REMARK    3  A    between atoms: C_2  and  C_4
REMARK    4  A    between atoms: C_8  and  C_9
REMARK    5  A    between atoms: C_9  and  C_10
REMARK    6  A    between atoms: C_19  and  C_20
REMARK    7  A    between atoms: C_20  and  C_21
REMARK    8  A    between atoms: C_24  and  O_25
REMARK    9  A    between atoms: C_36  and  C_37
REMARK   10  A    between atoms: C_43  and  C_44
REMARK   11  A    between atoms: N_46  and  C_47
REMARK   12  A    between atoms: C_47  and  C_48
REMARK   13  A    between atoms: C_47  and  C_55
REMARK   14  A    between atoms: C_48  and  C_49
REMARK   15  A    between atoms: C_49  and  C_50
REMARK   16  A    between atoms: C_50  and  N_51
REMARK   17  A    between atoms: N_57  and  C_58
REMARK   18  A    between atoms: C_58  and  C_59
REMARK   19  A    between atoms: C_65  and  C_66
REMARK   20  A    between atoms: C_66  and  C_67
REMARK                            x       y       z     vdW  Elec       q    Type
REMARK                         _______ _______ _______ _____ _____    ______ ____
ROOT
ATOM      1  C   UNL     1      -8.208   5.683 132.389  0.00  0.00    +0.000 C 
ATOM      2  N   UNL     1      -6.953   6.203 133.067  0.00  0.00    +0.000 N 
ATOM      3  C   UNL     1      -5.933   5.455 133.647  0.00  0.00    +0.000 C 
ATOM      4  O   UNL     1      -4.743   5.674 133.411  0.00  0.00    +0.000 OA
ATOM      5  C   UNL     1      -6.390   4.455 134.692  0.00  0.00    +0.000 C 
ATOM      6  N   UNL     1      -6.613   3.140 134.150  0.00  0.00    +0.000 N 
ATOM      7  C   UNL     1      -5.675   2.136 134.171  0.00  0.00    +0.000 C 
ATOM      8  O   UNL     1      -6.133   1.075 134.620  0.00  0.00    +0.000 OA
ATOM      9  C   UNL     1      -4.050   2.342 133.746  0.00  0.00    +0.000 C 
ATOM     10  N   UNL     1      -3.422   1.325 134.562  0.00  0.00    +0.000 N 
ATOM     11  C   UNL     1      -3.426  -0.029 134.406  0.00  0.00    +0.000 C 
ATOM     12  O   UNL     1      -2.830  -0.650 135.297  0.00  0.00    +0.000 OA
ATOM     13  C   UNL     1      -4.065  -0.850 133.243  0.00  0.00    +0.000 C 
ATOM     14  C   UNL     1      -4.810  -0.204 132.114  0.00  0.00    +0.000 C 
ATOM     15  S   UNL     1      -5.763  -1.335 130.645  0.00  0.00    +0.000 S 
ATOM     16  S   UNL     1      -7.821  -0.558 129.869  0.00  0.00    +0.000 S 
ATOM     17  C   UNL     1      -7.679   0.545 128.304  0.00  0.00    +0.000 C 
ATOM     18  C   UNL     1      -8.227   1.849 127.606  0.00  0.00    +0.000 C 
ATOM     19  N   UNL     1      -9.266   2.597 128.331  0.00  0.00    +0.000 N 
ATOM     20  C   UNL     1      -9.176   3.341 129.429  0.00  0.00    +0.000 C 
ATOM     21  O   UNL     1     -10.212   3.739 130.035  0.00  0.00    +0.000 OA
ATOM     22  C   UNL     1      -7.859   3.701 129.957  0.00  0.00    +0.000 C 
ATOM     23  N   UNL     1      -7.896   5.301 130.001  0.00  0.00    +0.000 N 
ATOM     24  C   UNL     1      -7.979   6.201 131.017  0.00  0.00    +0.000 C 
ATOM     25  O   UNL     1      -7.373   7.272 130.833  0.00  0.00    +0.000 OA
ATOM     26  H   UNL     1      -6.461   6.906 132.497  0.00  0.00    +0.000 HD
ATOM     27  H   UNL     1      -7.549   2.776 134.329  0.00  0.00    +0.000 HD
ATOM     28  H   UNL     1      -3.016   1.645 135.435  0.00  0.00    +0.000 HD
ATOM     29  H   UNL     1     -10.199   2.611 127.921  0.00  0.00    +0.000 HD
ATOM     30  H   UNL     1      -7.085   5.819 129.647  0.00  0.00    +0.000 HD
ENDROOT
BRANCH  18  31
ATOM     31  C   UNL     1      -8.835   1.468 126.199  0.00  0.00    +0.000 C 
ATOM     32  O   UNL     1      -9.944   0.928 126.153  0.00  0.00    +0.000 OA
ATOM     33  N   UNL     1      -8.181   1.905 125.054  0.00  0.00    +0.000 N 
ATOM     34  C   UNL     1      -6.757   1.905 124.757  0.00  0.00    +0.000 C 
ATOM     35  C   UNL     1      -6.650   3.020 123.754  0.00  0.00    +0.000 C 
ATOM     36  C   UNL     1      -7.845   2.755 122.857  0.00  0.00    +0.000 C 
ATOM     37  C   UNL     1      -8.893   2.086 123.769  0.00  0.00    +0.000 C 
BRANCH  37  38
ATOM     38  C   UNL     1      -9.225   0.760 123.064  0.00  0.00    +0.000 C 
ATOM     39  O   UNL     1     -10.033   0.728 122.137  0.00  0.00    +0.000 OA
ATOM     40  N   UNL     1      -8.656  -0.388 123.599  0.00  0.00    +0.000 N 
ATOM     41  H   UNL     1      -8.272  -0.390 124.539  0.00  0.00    +0.000 HD
BRANCH  40  42
ATOM     42  C   UNL     1      -8.725  -1.697 122.917  0.00  0.00    +0.000 C 
BRANCH  42  43
ATOM     43  C   UNL     1      -9.188  -2.813 123.913  0.00  0.00    +0.000 C 
ATOM     44  O   UNL     1      -9.676  -3.873 123.520  0.00  0.00    +0.000 OA
ATOM     45  N   UNL     1      -9.008  -2.536 125.257  0.00  0.00    +0.000 N 
ATOM     46  H   UNL     1      -8.582  -1.664 125.519  0.00  0.00    +0.000 HD
BRANCH  45  47
ATOM     47  C   UNL     1      -9.415  -3.468 126.312  0.00  0.00    +0.000 C 
BRANCH  47  48
ATOM     48  C   UNL     1      -8.556  -3.475 127.591  0.00  0.00    +0.000 C 
ATOM     49  N   UNL     1      -7.261  -3.050 127.503  0.00  0.00    +0.000 N 
ATOM     50  O   UNL     1      -8.991  -3.845 128.679  0.00  0.00    +0.000 OA
ATOM     51  H   UNL     1      -6.796  -2.733 126.672  0.00  0.00    +0.000 HD
ATOM     52  H   UNL     1      -6.713  -3.068 128.356  0.00  0.00    +0.000 HD
ENDBRANCH  47  48
ENDBRANCH  45  47
ENDBRANCH  42  43
BRANCH  42  53
ATOM     53  C   UNL     1      -7.348  -2.075 122.327  0.00  0.00    +0.000 C 
BRANCH  53  54
ATOM     54  C   UNL     1      -6.199  -1.347 123.015  0.00  0.00    +0.000 C 
BRANCH  54  55
ATOM     55  C   UNL     1      -5.561  -2.100 124.147  0.00  0.00    +0.000 C 
BRANCH  55  56
ATOM     56  N   UNL     1      -4.607  -3.044 123.565  0.00  0.00    +0.000 NA
ATOM     57  C   UNL     1      -4.878  -4.287 123.711  0.00  0.00    +0.000 C 
ATOM     58  N   UNL     1      -5.960  -4.794 124.325  0.00  0.00    +0.000 N 
ATOM     59  N   UNL     1      -4.054  -5.223 123.217  0.00  0.00    +0.000 N 
ATOM     60  H   UNL     1      -6.623  -4.162 124.746  0.00  0.00    +0.000 HD
ATOM     61  H   UNL     1      -6.132  -5.778 124.414  0.00  0.00    +0.000 HD
ATOM     62  H   UNL     1      -3.203  -4.902 122.771  0.00  0.00    +0.000 HD
ATOM     63  H   UNL     1      -4.201  -6.212 123.309  0.00  0.00    +0.000 HD
ENDBRANCH  55  56
ENDBRANCH  54  55
ENDBRANCH  53  54
ENDBRANCH  42  53
ENDBRANCH  40  42
ENDBRANCH  37  38
ENDBRANCH  18  31
BRANCH   1  65
ATOM     64  C   UNL     1     -10.431   6.501 131.693  0.00  0.00    +0.000 C 
ATOM     65  C   UNL     1      -9.670   5.830 132.807  0.00  0.00    +0.000 C 
BRANCH  65  66
ATOM     66  O   UNL     1      -9.912   6.701 133.923  0.00  0.00    +0.000 OA
ATOM     67  H   UNL     1      -9.302   6.581 134.682  0.00  0.00    +0.000 HD
ENDBRANCH  65  66
ENDBRANCH   1  65
BRANCH   9  68
ATOM     68  C   UNL     1      -3.160   2.462 132.371  0.00  0.00    +0.000 C 
BRANCH  68  69
ATOM     69  C   UNL     1      -3.157   3.715 131.559  0.00  0.00    +0.000 A 
ATOM     70  C   UNL     1      -4.114   3.702 130.645  0.00  0.00    +0.000 A 
ATOM     71  C   UNL     1      -4.319   4.730 129.784  0.00  0.00    +0.000 A 
ATOM     72  C   UNL     1      -3.472   5.786 129.582  0.00  0.00    +0.000 A 
ATOM     73  C   UNL     1      -2.439   5.829 130.464  0.00  0.00    +0.000 A 
ATOM     74  C   UNL     1      -2.317   4.832 131.484  0.00  0.00    +0.000 A 
BRANCH  72  75
ATOM     75  O   UNL     1      -3.430   6.659 128.525  0.00  0.00    +0.000 OA
ATOM     76  H   UNL     1      -3.505   6.389 127.583  0.00  0.00    +0.000 HD
ENDBRANCH  72  75
ENDBRANCH  68  69
ENDBRANCH   9  68
BRANCH   5  77
ATOM     77  C   UNL     1      -5.537   4.441 135.950  0.00  0.00    +0.000 C 
BRANCH  77  78
ATOM     78  C   UNL     1      -6.094   5.269 137.072  0.00  0.00    +0.000 A 
ATOM     79  C   UNL     1      -5.672   5.145 138.408  0.00  0.00    +0.000 A 
ATOM     80  C   UNL     1      -6.489   5.518 139.453  0.00  0.00    +0.000 A 
ATOM     81  C   UNL     1      -7.577   6.316 139.170  0.00  0.00    +0.000 A 
ATOM     82  C   UNL     1      -7.920   6.601 137.845  0.00  0.00    +0.000 A 
ATOM     83  C   UNL     1      -7.211   6.039 136.793  0.00  0.00    +0.000 A 
ENDBRANCH  77  78
ENDBRANCH   5  77
BRANCH  22  84
ATOM     84  C   UNL     1      -7.678   2.837 131.181  0.00  0.00    +0.000 C 
BRANCH  84  85
ATOM     85  C   UNL     1      -8.847   2.274 131.842  0.00  0.00    +0.000 C 
ATOM     86  N   UNL     1      -9.535   1.177 131.389  0.00  0.00    +0.000 N 
ATOM     87  O   UNL     1      -9.084   2.912 132.871  0.00  0.00    +0.000 OA
ATOM     88  H   UNL     1      -9.542   0.770 130.471  0.00  0.00    +0.000 HD
ATOM     89  H   UNL     1     -10.410   0.915 131.844  0.00  0.00    +0.000 HD
ENDBRANCH  84  85
ENDBRANCH  22  84
TORSDOF 19
ENDMDL
MODEL 2
REMARK VINA RESULT:      -9.2      2.093      4.026
REMARK  Name = CHEMBL2369831
REMARK  20 active torsions:
REMARK  status: ('A' for Active; 'I' for Inactive)
REMARK    1  A    between atoms: C_1  and  C_2
REMARK    2  A    between atoms: C_2  and  O_3
REMARK    3  A    between atoms: C_2  and  C_4
REMARK    4  A    between atoms: C_8  and  C_9
REMARK    5  A    between atoms: C_9  and  C_10
REMARK    6  A    between atoms: C_19  and  C_20
REMARK    7  A    between atoms: C_20  and  C_21
REMARK    8  A    between atoms: C_24  and  O_25
REMARK    9  A    between atoms: C_36  and  C_37
REMARK   10  A    between atoms: C_43  and  C_44
REMARK   11  A    between atoms: N_46  and  C_47
REMARK   12  A    between atoms: C_47  and  C_48
REMARK   13  A    between atoms: C_47  and  C_55
REMARK   14  A    between atoms: C_48  and  C_49
REMARK   15  A    between atoms: C_49  and  C_50
REMARK   16  A    between atoms: C_50  and  N_51
REMARK   17  A    between atoms: N_57  and  C_58
REMARK   18  A    between atoms: C_58  and  C_59
REMARK   19  A    between atoms: C_65  and  C_66
REMARK   20  A    between atoms: C_66  and  C_67
REMARK                            x       y       z     vdW  Elec       q    Type
REMARK                         _______ _______ _______ _____ _____    ______ ____
ROOT
ATOM      1  C   UNL     1      -7.194   1.371 133.173  0.00  0.00    +0.000 C 
ATOM      2  N   UNL     1      -7.097   2.505 134.178  0.00  0.00    +0.000 N 
ATOM      3  C   UNL     1      -6.178   3.551 134.187  0.00  0.00    +0.000 C 
ATOM      4  O   UNL     1      -6.522   4.725 134.335  0.00  0.00    +0.000 OA
ATOM      5  C   UNL     1      -4.724   3.123 134.146  0.00  0.00    +0.000 C 
ATOM      6  N   UNL     1      -4.188   3.086 132.811  0.00  0.00    +0.000 N 
ATOM      7  C   UNL     1      -3.488   4.121 132.239  0.00  0.00    +0.000 C 
ATOM      8  O   UNL     1      -2.417   3.746 131.741  0.00  0.00    +0.000 OA
ATOM      9  C   UNL     1      -3.967   5.743 132.304  0.00  0.00    +0.000 C 
ATOM     10  N   UNL     1      -2.684   6.410 132.235  0.00  0.00    +0.000 N 
ATOM     11  C   UNL     1      -1.848   6.565 131.170  0.00  0.00    +0.000 C 
ATOM     12  O   UNL     1      -0.788   7.151 131.429  0.00  0.00    +0.000 OA
ATOM     13  C   UNL     1      -2.093   6.111 129.697  0.00  0.00    +0.000 C 
ATOM     14  C   UNL     1      -3.338   5.393 129.270  0.00  0.00    +0.000 C 
ATOM     15  S   UNL     1      -3.579   4.686 127.324  0.00  0.00    +0.000 S 
ATOM     16  S   UNL     1      -4.638   2.624 127.062  0.00  0.00    +0.000 S 
ATOM     17  C   UNL     1      -6.531   2.770 126.773  0.00  0.00    +0.000 C 
ATOM     18  C   UNL     1      -7.931   2.143 127.136  0.00  0.00    +0.000 C 
ATOM     19  N   UNL     1      -7.917   0.975 128.032  0.00  0.00    +0.000 N 
ATOM     20  C   UNL     1      -7.654   0.898 129.332  0.00  0.00    +0.000 C 
ATOM     21  O   UNL     1      -7.480  -0.220 129.899  0.00  0.00    +0.000 OA
ATOM     22  C   UNL     1      -7.553   2.122 130.128  0.00  0.00    +0.000 C 
ATOM     23  N   UNL     1      -8.640   1.911 131.284  0.00  0.00    +0.000 N 
ATOM     24  C   UNL     1      -8.541   1.651 132.616  0.00  0.00    +0.000 C 
ATOM     25  O   UNL     1      -9.433   2.151 133.324  0.00  0.00    +0.000 OA
ATOM     26  H   UNL     1      -8.005   2.963 134.343  0.00  0.00    +0.000 HD
ATOM     27  H   UNL     1      -3.788   2.183 132.554  0.00  0.00    +0.000 HD
ATOM     28  H   UNL     1      -2.291   6.709 133.122  0.00  0.00    +0.000 HD
ATOM     29  H   UNL     1      -8.202   0.081 127.634  0.00  0.00    +0.000 HD
ATOM     30  H   UNL     1      -9.270   2.687 131.511  0.00  0.00    +0.000 HD
ENDROOT
BRANCH  18  31
ATOM     31  C   UNL     1      -8.658   1.693 125.809  0.00  0.00    +0.000 C 
ATOM     32  O   UNL     1      -9.743   1.109 125.890  0.00  0.00    +0.000 OA
ATOM     33  N   UNL     1      -8.140   2.118 124.592  0.00  0.00    +0.000 N 
ATOM     34  C   UNL     1      -6.753   2.164 124.155  0.00  0.00    +0.000 C 
ATOM     35  C   UNL     1      -6.793   3.249 123.114  0.00  0.00    +0.000 C 
ATOM     36  C   UNL     1      -8.058   2.908 122.350  0.00  0.00    +0.000 C 
ATOM     37  C   UNL     1      -8.983   2.229 123.380  0.00  0.00    +0.000 C 
BRANCH  37  38
ATOM     38  C   UNL     1      -9.326   0.869 122.750  0.00  0.00    +0.000 C 
ATOM     39  O   UNL     1     -10.133   0.793 121.824  0.00  0.00    +0.000 OA
ATOM     40  N   UNL     1      -8.769  -0.253 123.350  0.00  0.00    +0.000 N 
ATOM     41  H   UNL     1      -8.387  -0.206 124.290  0.00  0.00    +0.000 HD
BRANCH  40  42
ATOM     42  C   UNL     1      -8.850  -1.597 122.743  0.00  0.00    +0.000 C 
BRANCH  42  43
ATOM     43  C   UNL     1      -9.340  -2.648 123.794  0.00  0.00    +0.000 C 
ATOM     44  O   UNL     1     -10.020  -3.622 123.471  0.00  0.00    +0.000 OA
ATOM     45  N   UNL     1      -8.957  -2.417 125.104  0.00  0.00    +0.000 N 
ATOM     46  H   UNL     1      -8.381  -1.618 125.306  0.00  0.00    +0.000 HD
BRANCH  45  47
ATOM     47  C   UNL     1      -9.358  -3.294 126.207  0.00  0.00    +0.000 C 
BRANCH  47  48
ATOM     48  C   UNL     1      -8.559  -3.161 127.517  0.00  0.00    +0.000 C 
ATOM     49  N   UNL     1      -7.412  -2.420 127.502  0.00  0.00    +0.000 N 
ATOM     50  O   UNL     1      -8.916  -3.691 128.567  0.00  0.00    +0.000 OA
ATOM     51  H   UNL     1      -7.020  -1.949 126.708  0.00  0.00    +0.000 HD
ATOM     52  H   UNL     1      -6.900  -2.351 128.375  0.00  0.00    +0.000 HD
ENDBRANCH  47  48
ENDBRANCH  45  47
ENDBRANCH  42  43
BRANCH  42  53
ATOM     53  C   UNL     1      -7.472  -2.028 122.191  0.00  0.00    +0.000 C 
BRANCH  53  54
ATOM     54  C   UNL     1      -6.320  -1.280 122.853  0.00  0.00    +0.000 C 
BRANCH  54  55
ATOM     55  C   UNL     1      -5.686  -1.993 124.012  0.00  0.00    +0.000 C 
BRANCH  55  56
ATOM     56  N   UNL     1      -4.730  -2.956 123.467  0.00  0.00    +0.000 NA
ATOM     57  C   UNL     1      -4.976  -4.192 123.697  0.00  0.00    +0.000 C 
ATOM     58  N   UNL     1      -6.034  -4.676 124.368  0.00  0.00    +0.000 N 
ATOM     59  N   UNL     1      -4.148  -5.144 123.241  0.00  0.00    +0.000 N 
ATOM     60  H   UNL     1      -6.698  -4.030 124.765  0.00  0.00    +0.000 HD
ATOM     61  H   UNL     1      -6.187  -5.656 124.522  0.00  0.00    +0.000 HD
ATOM     62  H   UNL     1      -3.314  -4.838 122.756  0.00  0.00    +0.000 HD
ATOM     63  H   UNL     1      -4.277  -6.128 123.399  0.00  0.00    +0.000 HD
ENDBRANCH  55  56
ENDBRANCH  54  55
ENDBRANCH  53  54
ENDBRANCH  42  53
ENDBRANCH  40  42
ENDBRANCH  37  38
ENDBRANCH  18  31
BRANCH   1  65
ATOM     64  C   UNL     1      -5.905  -0.326 134.420  0.00  0.00    +0.000 C 
ATOM     65  C   UNL     1      -6.972  -0.126 133.374  0.00  0.00    +0.000 C 
BRANCH  65  66
ATOM     66  O   UNL     1      -6.439  -0.833 132.242  0.00  0.00    +0.000 OA
ATOM     67  H   UNL     1      -7.088  -1.025 131.531  0.00  0.00    +0.000 HD
ENDBRANCH  65  66
ENDBRANCH   1  65
BRANCH   9  68
ATOM     68  C   UNL     1      -5.049   6.722 131.552  0.00  0.00    +0.000 C 
BRANCH  68  69
ATOM     69  C   UNL     1      -6.457   6.281 131.316  0.00  0.00    +0.000 A 
ATOM     70  C   UNL     1      -6.610   5.781 130.101  0.00  0.00    +0.000 A 
ATOM     71  C   UNL     1      -7.798   5.308 129.648  0.00  0.00    +0.000 A 
ATOM     72  C   UNL     1      -9.012   5.475 130.260  0.00  0.00    +0.000 A 
ATOM     73  C   UNL     1      -8.923   6.028 131.498  0.00  0.00    +0.000 A 
ATOM     74  C   UNL     1      -7.647   6.374 132.046  0.00  0.00    +0.000 A 
BRANCH  72  75
ATOM     75  O   UNL     1     -10.267   5.337 129.723  0.00  0.00    +0.000 OA
ATOM     76  H   UNL     1     -10.895   4.621 129.966  0.00  0.00    +0.000 HD
ENDBRANCH  72  75
ENDBRANCH  68  69
ENDBRANCH   9  68
BRANCH   5  77
ATOM     77  C   UNL     1      -3.831   3.869 135.123  0.00  0.00    +0.000 C 
BRANCH  77  78
ATOM     78  C   UNL     1      -4.015   3.457 136.555  0.00  0.00    +0.000 A 
ATOM     79  C   UNL     1      -3.980   2.118 136.986  0.00  0.00    +0.000 A 
ATOM     80  C   UNL     1      -4.618   1.723 138.141  0.00  0.00    +0.000 A 
ATOM     81  C   UNL     1      -5.001   2.700 139.035  0.00  0.00    +0.000 A 
ATOM     82  C   UNL     1      -4.883   4.052 138.699  0.00  0.00    +0.000 A 
ATOM     83  C   UNL     1      -4.438   4.433 137.442  0.00  0.00    +0.000 A 
ENDBRANCH  77  78
ENDBRANCH   5  77
BRANCH  22  84
ATOM     84  C   UNL     1      -6.077   2.298 130.392  0.00  0.00    +0.000 C 
BRANCH  84  85
ATOM     85  C   UNL     1      -5.173   1.177 130.183  0.00  0.00    +0.000 C 
ATOM     86  N   UNL     1      -4.956   0.576 128.969  0.00  0.00    +0.000 N 
ATOM     87  O   UNL     1      -4.619   0.890 131.249  0.00  0.00    +0.000 OA
ATOM     88  H   UNL     1      -5.526   0.600 128.142  0.00  0.00    +0.000 HD
ATOM     89  H   UNL     1      -4.396  -0.276 128.927  0.00  0.00    +0.000 HD
ENDBRANCH  84  85
ENDBRANCH  22  84
TORSDOF 19
ENDMDL
MODEL 3
REMARK VINA RESULT:      -8.7      3.914     12.106
REMARK  Name = CHEMBL2369831
REMARK  20 active torsions:
REMARK  status: ('A' for Active; 'I' for Inactive)
REMARK    1  A    between atoms: C_1  and  C_2
REMARK    2  A    between atoms: C_2  and  O_3
REMARK    3  A    between atoms: C_2  and  C_4
REMARK    4  A    between atoms: C_8  and  C_9
REMARK    5  A    between atoms: C_9  and  C_10
REMARK    6  A    between atoms: C_19  and  C_20
REMARK    7  A    between atoms: C_20  and  C_21
REMARK    8  A    between atoms: C_24  and  O_25
REMARK    9  A    between atoms: C_36  and  C_37
REMARK   10  A    between atoms: C_43  and  C_44
REMARK   11  A    between atoms: N_46  and  C_47
REMARK   12  A    between atoms: C_47  and  C_48
REMARK   13  A    between atoms: C_47  and  C_55
REMARK   14  A    between atoms: C_48  and  C_49
REMARK   15  A    between atoms: C_49  and  C_50
REMARK   16  A    between atoms: C_50  and  N_51
REMARK   17  A    between atoms: N_57  and  C_58
REMARK   18  A    between atoms: C_58  and  C_59
REMARK   19  A    between atoms: C_65  and  C_66
REMARK   20  A    between atoms: C_66  and  C_67
REMARK                            x       y       z     vdW  Elec       q    Type
REMARK                         _______ _______ _______ _____ _____    ______ ____
ROOT
ATOM      1  C   UNL     1      -4.907   5.725 130.311  0.00  0.00    +0.000 C 
ATOM      2  N   UNL     1      -5.758   5.000 129.284  0.00  0.00    +0.000 N 
ATOM      3  C   UNL     1      -6.004   3.632 129.203  0.00  0.00    +0.000 C 
ATOM      4  O   UNL     1      -7.140   3.177 129.056  0.00  0.00    +0.000 OA
ATOM      5  C   UNL     1      -4.763   2.762 129.163  0.00  0.00    +0.000 C 
ATOM      6  N   UNL     1      -4.366   2.291 130.465  0.00  0.00    +0.000 N 
ATOM      7  C   UNL     1      -4.726   1.067 130.976  0.00  0.00    +0.000 C 
ATOM      8  O   UNL     1      -3.754   0.437 131.415  0.00  0.00    +0.000 OA
ATOM      9  C   UNL     1      -6.294   0.434 130.913  0.00  0.00    +0.000 C 
ATOM     10  N   UNL     1      -6.015  -0.987 130.894  0.00  0.00    +0.000 N 
ATOM     11  C   UNL     1      -5.590  -1.795 131.905  0.00  0.00    +0.000 C 
ATOM     12  O   UNL     1      -5.394  -2.973 131.573  0.00  0.00    +0.000 OA
ATOM     13  C   UNL     1      -5.352  -1.406 133.398  0.00  0.00    +0.000 C 
ATOM     14  C   UNL     1      -5.555  -0.012 133.910  0.00  0.00    +0.000 C 
ATOM     15  S   UNL     1      -5.105   0.506 135.878  0.00  0.00    +0.000 S 
ATOM     16  S   UNL     1      -4.145   2.602 136.237  0.00  0.00    +0.000 S 
ATOM     17  C   UNL     1      -5.432   3.971 136.636  0.00  0.00    +0.000 C 
ATOM     18  C   UNL     1      -5.822   5.475 136.368  0.00  0.00    +0.000 C 
ATOM     19  N   UNL     1      -4.922   6.242 135.492  0.00  0.00    +0.000 N 
ATOM     20  C   UNL     1      -4.730   6.159 134.180  0.00  0.00    +0.000 C 
ATOM     21  O   UNL     1      -3.761   6.752 133.622  0.00  0.00    +0.000 OA
ATOM     22  C   UNL     1      -5.644   5.364 133.359  0.00  0.00    +0.000 C 
ATOM     23  N   UNL     1      -6.184   6.409 132.274  0.00  0.00    +0.000 N 
ATOM     24  C   UNL     1      -5.952   6.570 130.943  0.00  0.00    +0.000 C 
ATOM     25  O   UNL     1      -6.915   6.994 130.281  0.00  0.00    +0.000 OA
ATOM     26  H   UNL     1      -6.686   5.432 129.166  0.00  0.00    +0.000 HD
ATOM     27  H   UNL     1      -3.405   2.527 130.712  0.00  0.00    +0.000 HD
ATOM     28  H   UNL     1      -6.026  -1.428 129.981  0.00  0.00    +0.000 HD
ATOM     29  H   UNL     1      -4.391   6.999 135.921  0.00  0.00    +0.000 HD
ATOM     30  H   UNL     1      -7.188   6.430 132.072  0.00  0.00    +0.000 HD
ENDROOT
BRANCH  18  31
ATOM     31  C   UNL     1      -5.891   6.247 137.743  0.00  0.00    +0.000 C 
ATOM     32  O   UNL     1      -6.986   6.641 138.155  0.00  0.00    +0.000 OA
ATOM     33  N   UNL     1      -4.746   6.308 138.527  0.00  0.00    +0.000 N 
ATOM     34  C   UNL     1      -3.373   6.570 138.122  0.00  0.00    +0.000 C 
ATOM     35  C   UNL     1      -2.593   5.890 139.212  0.00  0.00    +0.000 C 
ATOM     36  C   UNL     1      -3.352   6.312 140.456  0.00  0.00    +0.000 C 
ATOM     37  C   UNL     1      -4.811   6.503 139.993  0.00  0.00    +0.000 C 
BRANCH  37  38
ATOM     38  C   UNL     1      -5.158   7.944 140.401  0.00  0.00    +0.000 C 
ATOM     39  O   UNL     1      -5.087   8.297 141.578  0.00  0.00    +0.000 OA
ATOM     40  N   UNL     1      -5.653   8.772 139.402  0.00  0.00    +0.000 N 
ATOM     41  H   UNL     1      -6.013   8.384 138.535  0.00  0.00    +0.000 HD
BRANCH  40  42
ATOM     42  C   UNL     1      -5.842  10.224 139.599  0.00  0.00    +0.000 C 
BRANCH  42  43
ATOM     43  C   UNL     1      -7.334  10.624 139.346  0.00  0.00    +0.000 C 
ATOM     44  O   UNL     1      -7.706  11.797 139.380  0.00  0.00    +0.000 OA
ATOM     45  N   UNL     1      -8.203   9.581 139.077  0.00  0.00    +0.000 N 
ATOM     46  H   UNL     1      -7.837   8.645 139.038  0.00  0.00    +0.000 HD
BRANCH  45  47
ATOM     47  C   UNL     1      -9.634   9.790 138.845  0.00  0.00    +0.000 C 
BRANCH  47  48
ATOM     48  C   UNL     1     -10.300   8.882 137.793  0.00  0.00    +0.000 C 
ATOM     49  N   UNL     1      -9.496   8.105 137.008  0.00  0.00    +0.000 N 
ATOM     50  O   UNL     1     -11.518   8.831 137.639  0.00  0.00    +0.000 OA
ATOM     51  H   UNL     1      -8.494   8.067 137.039  0.00  0.00    +0.000 HD
ATOM     52  H   UNL     1      -9.957   7.520 136.320  0.00  0.00    +0.000 HD
ENDBRANCH  47  48
ENDBRANCH  45  47
ENDBRANCH  42  43
BRANCH  42  53
ATOM     53  C   UNL     1      -4.927  11.025 138.645  0.00  0.00    +0.000 C 
BRANCH  53  54
ATOM     54  C   UNL     1      -4.574  10.244 137.384  0.00  0.00    +0.000 C 
BRANCH  54  55
ATOM     55  C   UNL     1      -3.126  10.298 136.991  0.00  0.00    +0.000 C 
BRANCH  55  56
ATOM     56  N   UNL     1      -3.069  10.447 135.537  0.00  0.00    +0.000 NA
ATOM     57  C   UNL     1      -2.431   9.538 134.898  0.00  0.00    +0.000 C 
ATOM     58  N   UNL     1      -1.836   8.462 135.438  0.00  0.00    +0.000 N 
ATOM     59  N   UNL     1      -2.322   9.599 133.562  0.00  0.00    +0.000 N 
ATOM     60  H   UNL     1      -1.850   8.346 136.439  0.00  0.00    +0.000 HD
ATOM     61  H   UNL     1      -1.347   7.773 134.895  0.00  0.00    +0.000 HD
ATOM     62  H   UNL     1      -2.723  10.406 133.101  0.00  0.00    +0.000 HD
ATOM     63  H   UNL     1      -1.825   8.928 133.004  0.00  0.00    +0.000 HD
ENDBRANCH  55  56
ENDBRANCH  54  55
ENDBRANCH  53  54
ENDBRANCH  42  53
ENDBRANCH  40  42
ENDBRANCH  37  38
ENDBRANCH  18  31
BRANCH   1  65
ATOM     64  C   UNL     1      -3.713   7.348 128.883  0.00  0.00    +0.000 C 
ATOM     65  C   UNL     1      -3.603   6.496 130.122  0.00  0.00    +0.000 C 
BRANCH  65  66
ATOM     66  O   UNL     1      -2.442   5.695 129.850  0.00  0.00    +0.000 OA
ATOM     67  H   UNL     1      -1.923   5.971 129.064  0.00  0.00    +0.000 HD
ENDBRANCH  65  66
ENDBRANCH   1  65
BRANCH   9  68
ATOM     68  C   UNL     1      -7.715   0.626 131.713  0.00  0.00    +0.000 C 
BRANCH  68  69
ATOM     69  C   UNL     1      -8.328   1.976 131.890  0.00  0.00    +0.000 A 
ATOM     70  C   UNL     1      -8.236   2.390 133.144  0.00  0.00    +0.000 A 
ATOM     71  C   UNL     1      -8.716   3.589 133.557  0.00  0.00    +0.000 A 
ATOM     72  C   UNL     1      -9.530   4.418 132.832  0.00  0.00    +0.000 A 
ATOM     73  C   UNL     1      -9.699   4.021 131.544  0.00  0.00    +0.000 A 
ATOM     74  C   UNL     1      -9.053   2.838 131.060  0.00  0.00    +0.000 A 
BRANCH  72  75
ATOM     75  O   UNL     1     -10.316   5.450 133.279  0.00  0.00    +0.000 OA
ATOM     76  H   UNL     1      -9.976   6.227 133.775  0.00  0.00    +0.000 HD
ENDBRANCH  72  75
ENDBRANCH  68  69
ENDBRANCH   9  68
BRANCH   5  77
ATOM     77  C   UNL     1      -4.813   1.656 128.123  0.00  0.00    +0.000 C 
BRANCH  77  78
ATOM     78  C   UNL     1      -4.999   2.150 126.717  0.00  0.00    +0.000 A 
ATOM     79  C   UNL     1      -4.334   3.276 126.199  0.00  0.00    +0.000 A 
ATOM     80  C   UNL     1      -4.855   3.988 125.141  0.00  0.00    +0.000 A 
ATOM     81  C   UNL     1      -5.848   3.397 124.390  0.00  0.00    +0.000 A 
ATOM     82  C   UNL     1      -6.410   2.181 124.790  0.00  0.00    +0.000 A 
ATOM     83  C   UNL     1      -6.023   1.580 125.978  0.00  0.00    +0.000 A 
ENDBRANCH  77  78
ENDBRANCH   5  77
BRANCH  22  84
ATOM     84  C   UNL     1      -4.868   4.118 133.004  0.00  0.00    +0.000 C 
BRANCH  84  85
ATOM     85  C   UNL     1      -3.416   4.122 133.110  0.00  0.00    +0.000 C 
ATOM     86  N   UNL     1      -2.729   4.209 134.294  0.00  0.00    +0.000 N 
ATOM     87  O   UNL     1      -2.922   4.000 131.986  0.00  0.00    +0.000 OA
ATOM     88  H   UNL     1      -3.049   4.537 135.188  0.00  0.00    +0.000 HD
ATOM     89  H   UNL     1      -1.715   4.322 134.275  0.00  0.00    +0.000 HD
ENDBRANCH  84  85
ENDBRANCH  22  84
TORSDOF 19
ENDMDL
MODEL 4
REMARK VINA RESULT:      -8.6      3.708     12.240
REMARK  Name = CHEMBL2369831
REMARK  20 active torsions:
REMARK  status: ('A' for Active; 'I' for Inactive)
REMARK    1  A    between atoms: C_1  and  C_2
REMARK    2  A    between atoms: C_2  and  O_3
REMARK    3  A    between atoms: C_2  and  C_4
REMARK    4  A    between atoms: C_8  and  C_9
REMARK    5  A    between atoms: C_9  and  C_10
REMARK    6  A    between atoms: C_19  and  C_20
REMARK    7  A    between atoms: C_20  and  C_21
REMARK    8  A    between atoms: C_24  and  O_25
REMARK    9  A    between atoms: C_36  and  C_37
REMARK   10  A    between atoms: C_43  and  C_44
REMARK   11  A    between atoms: N_46  and  C_47
REMARK   12  A    between atoms: C_47  and  C_48
REMARK   13  A    between atoms: C_47  and  C_55
REMARK   14  A    between atoms: C_48  and  C_49
REMARK   15  A    between atoms: C_49  and  C_50
REMARK   16  A    between atoms: C_50  and  N_51
REMARK   17  A    between atoms: N_57  and  C_58
REMARK   18  A    between atoms: C_58  and  C_59
REMARK   19  A    between atoms: C_65  and  C_66
REMARK   20  A    between atoms: C_66  and  C_67
REMARK                            x       y       z     vdW  Elec       q    Type
REMARK                         _______ _______ _______ _____ _____    ______ ____
ROOT
ATOM      1  C   UNL     1      -4.654   5.692 129.834  0.00  0.00    +0.000 C 
ATOM      2  N   UNL     1      -5.830   5.422 128.911  0.00  0.00    +0.000 N 
ATOM      3  C   UNL     1      -6.530   4.228 128.760  0.00  0.00    +0.000 C 
ATOM      4  O   UNL     1      -7.762   4.184 128.773  0.00  0.00    +0.000 OA
ATOM      5  C   UNL     1      -5.671   3.021 128.436  0.00  0.00    +0.000 C 
ATOM      6  N   UNL     1      -5.286   2.277 129.607  0.00  0.00    +0.000 N 
ATOM      7  C   UNL     1      -5.964   1.175 130.069  0.00  0.00    +0.000 C 
ATOM      8  O   UNL     1      -5.211   0.214 130.281  0.00  0.00    +0.000 OA
ATOM      9  C   UNL     1      -7.648   1.090 130.223  0.00  0.00    +0.000 C 
ATOM     10  N   UNL     1      -7.868  -0.329 130.039  0.00  0.00    +0.000 N 
ATOM     11  C   UNL     1      -7.608  -1.360 130.891  0.00  0.00    +0.000 C 
ATOM     12  O   UNL     1      -7.867  -2.482 130.434  0.00  0.00    +0.000 OA
ATOM     13  C   UNL     1      -7.055  -1.272 132.348  0.00  0.00    +0.000 C 
ATOM     14  C   UNL     1      -6.706   0.031 133.001  0.00  0.00    +0.000 C 
ATOM     15  S   UNL     1      -5.848   0.107 134.899  0.00  0.00    +0.000 S 
ATOM     16  S   UNL     1      -4.200   1.718 135.261  0.00  0.00    +0.000 S 
ATOM     17  C   UNL     1      -4.885   3.359 135.987  0.00  0.00    +0.000 C 
ATOM     18  C   UNL     1      -4.779   4.930 135.916  0.00  0.00    +0.000 C 
ATOM     19  N   UNL     1      -3.799   5.481 134.966  0.00  0.00    +0.000 N 
ATOM     20  C   UNL     1      -3.824   5.519 133.637  0.00  0.00    +0.000 C 
ATOM     21  O   UNL     1      -2.796   5.842 132.973  0.00  0.00    +0.000 OA
ATOM     22  C   UNL     1      -5.053   5.176 132.922  0.00  0.00    +0.000 C 
ATOM     23  N   UNL     1      -5.351   6.475 132.036  0.00  0.00    +0.000 N 
ATOM     24  C   UNL     1      -5.259   6.732 130.703  0.00  0.00    +0.000 C 
ATOM     25  O   UNL     1      -6.103   7.527 130.254  0.00  0.00    +0.000 OA
ATOM     26  H   UNL     1      -6.564   6.139 128.990  0.00  0.00    +0.000 HD
ATOM     27  H   UNL     1      -4.277   2.158 129.704  0.00  0.00    +0.000 HD
ATOM     28  H   UNL     1      -8.150  -0.616 129.107  0.00  0.00    +0.000 HD
ATOM     29  H   UNL     1      -2.991   5.964 135.359  0.00  0.00    +0.000 HD
ATOM     30  H   UNL     1      -6.307   6.843 132.012  0.00  0.00    +0.000 HD
ENDROOT
BRANCH  18  31
ATOM     31  C   UNL     1      -4.398   5.491 137.342  0.00  0.00    +0.000 C 
ATOM     32  O   UNL     1      -4.146   4.693 138.250  0.00  0.00    +0.000 OA
ATOM     33  N   UNL     1      -4.192   6.857 137.484  0.00  0.00    +0.000 N 
ATOM     34  C   UNL     1      -4.971   7.961 136.944  0.00  0.00    +0.000 C 
ATOM     35  C   UNL     1      -3.949   9.062 136.885  0.00  0.00    +0.000 C 
ATOM     36  C   UNL     1      -3.244   8.911 138.219  0.00  0.00    +0.000 C 
ATOM     37  C   UNL     1      -3.342   7.411 138.562  0.00  0.00    +0.000 C 
BRANCH  37  38
ATOM     38  C   UNL     1      -4.013   7.376 139.945  0.00  0.00    +0.000 C 
ATOM     39  O   UNL     1      -3.581   6.641 140.833  0.00  0.00    +0.000 OA
ATOM     40  N   UNL     1      -5.175   8.121 140.092  0.00  0.00    +0.000 N 
ATOM     41  H   UNL     1      -5.692   8.446 139.280  0.00  0.00    +0.000 HD
BRANCH  40  42
ATOM     42  C   UNL     1      -5.815   8.338 141.406  0.00  0.00    +0.000 C 
BRANCH  42  43
ATOM     43  C   UNL     1      -6.481   7.018 141.919  0.00  0.00    +0.000 C 
ATOM     44  O   UNL     1      -6.719   6.832 143.113  0.00  0.00    +0.000 OA
ATOM     45  N   UNL     1      -6.792   6.081 140.949  0.00  0.00    +0.000 N 
ATOM     46  H   UNL     1      -6.598   6.298 139.987  0.00  0.00    +0.000 HD
BRANCH  45  47
ATOM     47  C   UNL     1      -7.395   4.786 141.273  0.00  0.00    +0.000 C 
BRANCH  47  48
ATOM     48  C   UNL     1      -6.447   3.571 141.291  0.00  0.00    +0.000 C 
ATOM     49  N   UNL     1      -5.143   3.763 140.932  0.00  0.00    +0.000 N 
ATOM     50  O   UNL     1      -6.819   2.446 141.618  0.00  0.00    +0.000 OA
ATOM     51  H   UNL     1      -4.729   4.630 140.643  0.00  0.00    +0.000 HD
ATOM     52  H   UNL     1      -4.540   2.948 140.948  0.00  0.00    +0.000 HD
ENDBRANCH  47  48
ENDBRANCH  45  47
ENDBRANCH  42  43
BRANCH  42  53
ATOM     53  C   UNL     1      -6.884   9.450 141.312  0.00  0.00    +0.000 C 
BRANCH  53  54
ATOM     54  C   UNL     1      -7.140   9.892 139.876  0.00  0.00    +0.000 C 
BRANCH  54  55
ATOM     55  C   UNL     1      -8.381   9.323 139.251  0.00  0.00    +0.000 C 
BRANCH  55  56
ATOM     56  N   UNL     1      -8.059   7.975 138.781  0.00  0.00    +0.000 NA
ATOM     57  C   UNL     1      -8.638   7.596 137.703  0.00  0.00    +0.000 C 
ATOM     58  N   UNL     1      -9.489   8.327 136.964  0.00  0.00    +0.000 N 
ATOM     59  N   UNL     1      -8.407   6.373 137.205  0.00  0.00    +0.000 N 
ATOM     60  H   UNL     1      -9.737   9.252 137.276  0.00  0.00    +0.000 HD
ATOM     61  H   UNL     1      -9.919   7.987 136.123  0.00  0.00    +0.000 HD
ATOM     62  H   UNL     1      -7.799   5.763 137.737  0.00  0.00    +0.000 HD
ATOM     63  H   UNL     1      -8.840   6.010 136.373  0.00  0.00    +0.000 HD
ENDBRANCH  55  56
ENDBRANCH  54  55
ENDBRANCH  53  54
ENDBRANCH  42  53
ENDBRANCH  40  42
ENDBRANCH  37  38
ENDBRANCH  18  31
BRANCH   1  65
ATOM     64  C   UNL     1      -3.185   7.179 128.521  0.00  0.00    +0.000 C 
ATOM     65  C   UNL     1      -3.205   6.023 129.488  0.00  0.00    +0.000 C 
BRANCH  65  66
ATOM     66  O   UNL     1      -2.487   5.003 128.776  0.00  0.00    +0.000 OA
ATOM     67  H   UNL     1      -1.609   5.278 128.432  0.00  0.00    +0.000 HD
ENDBRANCH  65  66
ENDBRANCH   1  65
BRANCH   9  68
ATOM     68  C   UNL     1      -8.800   1.615 131.268  0.00  0.00    +0.000 C 
BRANCH  68  69
ATOM     69  C   UNL     1      -8.720   2.971 131.890  0.00  0.00    +0.000 A 
ATOM     70  C   UNL     1      -8.536   2.893 133.198  0.00  0.00    +0.000 A 
ATOM     71  C   UNL     1      -8.427   3.989 133.989  0.00  0.00    +0.000 A 
ATOM     72  C   UNL     1      -8.704   5.277 133.615  0.00  0.00    +0.000 A 
ATOM     73  C   UNL     1      -8.948   5.414 132.285  0.00  0.00    +0.000 A 
ATOM     74  C   UNL     1      -8.896   4.276 131.419  0.00  0.00    +0.000 A 
BRANCH  72  75
ATOM     75  O   UNL     1      -8.946   6.366 134.413  0.00  0.00    +0.000 OA
ATOM     76  H   UNL     1      -9.580   7.084 134.190  0.00  0.00    +0.000 HD
ENDBRANCH  72  75
ENDBRANCH  68  69
ENDBRANCH   9  68
BRANCH   5  77
ATOM     77  C   UNL     1      -6.231   2.140 127.331  0.00  0.00    +0.000 C 
BRANCH  77  78
ATOM     78  C   UNL     1      -6.342   2.828 126.001  0.00  0.00    +0.000 A 
ATOM     79  C   UNL     1      -7.375   2.571 125.081  0.00  0.00    +0.000 A 
ATOM     80  C   UNL     1      -7.207   2.808 123.735  0.00  0.00    +0.000 A 
ATOM     81  C   UNL     1      -6.151   3.603 123.345  0.00  0.00    +0.000 A 
ATOM     82  C   UNL     1      -5.197   4.021 124.278  0.00  0.00    +0.000 A 
ATOM     83  C   UNL     1      -5.262   3.595 125.596  0.00  0.00    +0.000 A 
ENDBRANCH  77  78
ENDBRANCH   5  77
BRANCH  22  84
ATOM     84  C   UNL     1      -4.798   3.808 132.338  0.00  0.00    +0.000 C 
BRANCH  84  85
ATOM     85  C   UNL     1      -3.428   3.351 132.152  0.00  0.00    +0.000 C 
ATOM     86  N   UNL     1      -2.608   2.938 133.170  0.00  0.00    +0.000 N 
ATOM     87  O   UNL     1      -3.150   3.364 130.950  0.00  0.00    +0.000 OA
ATOM     88  H   UNL     1      -2.683   3.119 134.156  0.00  0.00    +0.000 HD
ATOM     89  H   UNL     1      -1.626   2.743 132.973  0.00  0.00    +0.000 HD
ENDBRANCH  84  85
ENDBRANCH  22  84
TORSDOF 19
ENDMDL
MODEL 5
REMARK VINA RESULT:      -8.5      4.854     12.622
REMARK  Name = CHEMBL2369831
REMARK  20 active torsions:
REMARK  status: ('A' for Active; 'I' for Inactive)
REMARK    1  A    between atoms: C_1  and  C_2
REMARK    2  A    between atoms: C_2  and  O_3
REMARK    3  A    between atoms: C_2  and  C_4
REMARK    4  A    between atoms: C_8  and  C_9
REMARK    5  A    between atoms: C_9  and  C_10
REMARK    6  A    between atoms: C_19  and  C_20
REMARK    7  A    between atoms: C_20  and  C_21
REMARK    8  A    between atoms: C_24  and  O_25
REMARK    9  A    between atoms: C_36  and  C_37
REMARK   10  A    between atoms: C_43  and  C_44
REMARK   11  A    between atoms: N_46  and  C_47
REMARK   12  A    between atoms: C_47  and  C_48
REMARK   13  A    between atoms: C_47  and  C_55
REMARK   14  A    between atoms: C_48  and  C_49
REMARK   15  A    between atoms: C_49  and  C_50
REMARK   16  A    between atoms: C_50  and  N_51
REMARK   17  A    between atoms: N_57  and  C_58
REMARK   18  A    between atoms: C_58  and  C_59
REMARK   19  A    between atoms: C_65  and  C_66
REMARK   20  A    between atoms: C_66  and  C_67
REMARK                            x       y       z     vdW  Elec       q    Type
REMARK                         _______ _______ _______ _____ _____    ______ ____
ROOT
ATOM      1  C   UNL     1      -6.775   3.628 127.052  0.00  0.00    +0.000 C 
ATOM      2  N   UNL     1      -7.944   2.732 126.681  0.00  0.00    +0.000 N 
ATOM      3  C   UNL     1      -8.134   1.399 127.034  0.00  0.00    +0.000 C 
ATOM      4  O   UNL     1      -9.202   0.987 127.491  0.00  0.00    +0.000 OA
ATOM      5  C   UNL     1      -6.984   0.476 126.680  0.00  0.00    +0.000 C 
ATOM      6  N   UNL     1      -6.053   0.298 127.763  0.00  0.00    +0.000 N 
ATOM      7  C   UNL     1      -6.103  -0.751 128.649  0.00  0.00    +0.000 C 
ATOM      8  O   UNL     1      -5.006  -1.315 128.772  0.00  0.00    +0.000 OA
ATOM      9  C   UNL     1      -7.517  -1.292 129.404  0.00  0.00    +0.000 C 
ATOM     10  N   UNL     1      -7.204  -2.691 129.602  0.00  0.00    +0.000 N 
ATOM     11  C   UNL     1      -6.352  -3.266 130.498  0.00  0.00    +0.000 C 
ATOM     12  O   UNL     1      -6.257  -4.497 130.400  0.00  0.00    +0.000 OA
ATOM     13  C   UNL     1      -5.524  -2.554 131.614  0.00  0.00    +0.000 C 
ATOM     14  C   UNL     1      -5.560  -1.069 131.821  0.00  0.00    +0.000 C 
ATOM     15  S   UNL     1      -4.346  -0.134 133.234  0.00  0.00    +0.000 S 
ATOM     16  S   UNL     1      -3.428   1.930 132.653  0.00  0.00    +0.000 S 
ATOM     17  C   UNL     1      -4.491   3.424 133.225  0.00  0.00    +0.000 C 
ATOM     18  C   UNL     1      -5.031   4.844 132.802  0.00  0.00    +0.000 C 
ATOM     19  N   UNL     1      -4.624   5.335 131.476  0.00  0.00    +0.000 N 
ATOM     20  C   UNL     1      -5.000   4.939 130.264  0.00  0.00    +0.000 C 
ATOM     21  O   UNL     1      -4.388   5.330 129.229  0.00  0.00    +0.000 OA
ATOM     22  C   UNL     1      -6.135   4.027 130.117  0.00  0.00    +0.000 C 
ATOM     23  N   UNL     1      -7.134   4.819 129.150  0.00  0.00    +0.000 N 
ATOM     24  C   UNL     1      -7.495   4.653 127.848  0.00  0.00    +0.000 C 
ATOM     25  O   UNL     1      -8.667   4.966 127.575  0.00  0.00    +0.000 OA
ATOM     26  H   UNL     1      -8.854   3.177 126.867  0.00  0.00    +0.000 HD
ATOM     27  H   UNL     1      -5.090   0.531 127.519  0.00  0.00    +0.000 HD
ATOM     28  H   UNL     1      -7.578  -3.332 128.910  0.00  0.00    +0.000 HD
ATOM     29  H   UNL     1      -3.999   6.140 131.450  0.00  0.00    +0.000 HD
ATOM     30  H   UNL     1      -8.129   4.850 129.392  0.00  0.00    +0.000 HD
ENDROOT
BRANCH  18  31
ATOM     31  C   UNL     1      -4.549   5.918 133.855  0.00  0.00    +0.000 C 
ATOM     32  O   UNL     1      -5.314   6.248 134.766  0.00  0.00    +0.000 OA
ATOM     33  N   UNL     1      -3.223   6.328 133.823  0.00  0.00    +0.000 N 
ATOM     34  C   UNL     1      -2.397   6.667 132.674  0.00  0.00    +0.000 C 
ATOM     35  C   UNL     1      -1.014   6.394 133.195  0.00  0.00    +0.000 C 
ATOM     36  C   UNL     1      -1.071   7.003 134.583  0.00  0.00    +0.000 C 
ATOM     37  C   UNL     1      -2.544   6.871 135.022  0.00  0.00    +0.000 C 
BRANCH  37  38
ATOM     38  C   UNL     1      -2.973   8.307 135.366  0.00  0.00    +0.000 C 
ATOM     39  O   UNL     1      -3.866   8.515 136.187  0.00  0.00    +0.000 OA
ATOM     40  N   UNL     1      -2.384   9.326 134.629  0.00  0.00    +0.000 N 
ATOM     41  H   UNL     1      -1.913   9.129 133.751  0.00  0.00    +0.000 HD
BRANCH  40  42
ATOM     42  C   UNL     1      -2.549  10.752 134.977  0.00  0.00    +0.000 C 
BRANCH  42  43
ATOM     43  C   UNL     1      -2.446  11.647 133.698  0.00  0.00    +0.000 C 
ATOM     44  O   UNL     1      -2.342  11.161 132.571  0.00  0.00    +0.000 OA
ATOM     45  N   UNL     1      -2.485  13.015 133.910  0.00  0.00    +0.000 N 
ATOM     46  H   UNL     1      -2.595  13.355 134.850  0.00  0.00    +0.000 HD
BRANCH  45  47
ATOM     47  C   UNL     1      -2.373  13.984 132.818  0.00  0.00    +0.000 C 
BRANCH  47  48
ATOM     48  C   UNL     1      -2.845  15.419 133.121  0.00  0.00    +0.000 C 
ATOM     49  N   UNL     1      -3.448  16.126 132.120  0.00  0.00    +0.000 N 
ATOM     50  O   UNL     1      -2.702  15.944 134.223  0.00  0.00    +0.000 OA
ATOM     51  H   UNL     1      -3.613  15.806 131.184  0.00  0.00    +0.000 HD
ATOM     52  H   UNL     1      -3.745  17.070 132.341  0.00  0.00    +0.000 HD
ENDBRANCH  47  48
ENDBRANCH  45  47
ENDBRANCH  42  43
BRANCH  42  53
ATOM     53  C   UNL     1      -1.475  11.190 135.998  0.00  0.00    +0.000 C 
BRANCH  53  54
ATOM     54  C   UNL     1      -0.058  10.928 135.500  0.00  0.00    +0.000 C 
BRANCH  54  55
ATOM     55  C   UNL     1       0.777  12.159 135.291  0.00  0.00    +0.000 C 
BRANCH  55  56
ATOM     56  N   UNL     1      -0.048  13.315 135.640  0.00  0.00    +0.000 NA
ATOM     57  C   UNL     1       0.522  14.460 135.572  0.00  0.00    +0.000 C 
ATOM     58  N   UNL     1       1.789  14.691 135.191  0.00  0.00    +0.000 N 
ATOM     59  N   UNL     1      -0.158  15.574 135.883  0.00  0.00    +0.000 N 
ATOM     60  H   UNL     1       2.380  13.909 134.960  0.00  0.00    +0.000 HD
ATOM     61  H   UNL     1       2.193  15.609 135.152  0.00  0.00    +0.000 HD
ATOM     62  H   UNL     1      -1.109  15.460 136.209  0.00  0.00    +0.000 HD
ATOM     63  H   UNL     1       0.234  16.499 135.863  0.00  0.00    +0.000 HD
ENDBRANCH  55  56
ENDBRANCH  54  55
ENDBRANCH  53  54
ENDBRANCH  42  53
ENDBRANCH  40  42
ENDBRANCH  37  38
ENDBRANCH  18  31
BRANCH   1  65
ATOM     64  C   UNL     1      -6.394   4.979 125.021  0.00  0.00    +0.000 C 
ATOM     65  C   UNL     1      -5.712   4.258 126.155  0.00  0.00    +0.000 C 
BRANCH  65  66
ATOM     66  O   UNL     1      -4.851   3.336 125.470  0.00  0.00    +0.000 OA
ATOM     67  H   UNL     1      -5.225   2.438 125.340  0.00  0.00    +0.000 HD
ENDBRANCH  65  66
ENDBRANCH   1  65
BRANCH   9  68
ATOM     68  C   UNL     1      -8.475  -0.840 130.659  0.00  0.00    +0.000 C 
BRANCH  68  69
ATOM     69  C   UNL     1      -8.598   0.593 131.061  0.00  0.00    +0.000 A 
ATOM     70  C   UNL     1      -8.152   0.791 132.291  0.00  0.00    +0.000 A 
ATOM     71  C   UNL     1      -8.154   2.011 132.883  0.00  0.00    +0.000 A 
ATOM     72  C   UNL     1      -8.794   3.128 132.415  0.00  0.00    +0.000 A 
ATOM     73  C   UNL     1      -9.314   2.971 131.169  0.00  0.00    +0.000 A 
ATOM     74  C   UNL     1      -9.164   1.730 130.473  0.00  0.00    +0.000 A 
BRANCH  72  75
ATOM     75  O   UNL     1      -9.127   4.272 133.095  0.00  0.00    +0.000 OA
ATOM     76  H   UNL     1      -8.547   4.708 133.758  0.00  0.00    +0.000 HD
ENDBRANCH  72  75
ENDBRANCH  68  69
ENDBRANCH   9  68
BRANCH   5  77
ATOM     77  C   UNL     1      -7.416  -0.838 126.049  0.00  0.00    +0.000 C 
BRANCH  77  78
ATOM     78  C   UNL     1      -6.538  -1.288 124.917  0.00  0.00    +0.000 A 
ATOM     79  C   UNL     1      -6.755  -0.924 123.577  0.00  0.00    +0.000 A 
ATOM     80  C   UNL     1      -6.285  -1.699 122.540  0.00  0.00    +0.000 A 
ATOM     81  C   UNL     1      -5.323  -2.645 122.825  0.00  0.00    +0.000 A 
ATOM     82  C   UNL     1      -4.959  -2.907 124.149  0.00  0.00    +0.000 A 
ATOM     83  C   UNL     1      -5.599  -2.267 125.200  0.00  0.00    +0.000 A 
ENDBRANCH  77  78
ENDBRANCH   5  77
BRANCH  22  84
ATOM     84  C   UNL     1      -5.523   2.691 129.771  0.00  0.00    +0.000 C 
BRANCH  84  85
ATOM     85  C   UNL     1      -4.172   2.640 129.230  0.00  0.00    +0.000 C 
ATOM     86  N   UNL     1      -3.045   2.977 129.936  0.00  0.00    +0.000 N 
ATOM     87  O   UNL     1      -4.210   2.217 128.072  0.00  0.00    +0.000 OA
ATOM     88  H   UNL     1      -2.964   3.533 130.769  0.00  0.00    +0.000 HD
ATOM     89  H   UNL     1      -2.149   3.025 129.451  0.00  0.00    +0.000 HD
ENDBRANCH  84  85
ENDBRANCH  22  84
TORSDOF 19
ENDMDL
MODEL 6
REMARK VINA RESULT:      -8.4      3.746     11.674
REMARK  Name = CHEMBL2369831
REMARK  20 active torsions:
REMARK  status: ('A' for Active; 'I' for Inactive)
REMARK    1  A    between atoms: C_1  and  C_2
REMARK    2  A    between atoms: C_2  and  O_3
REMARK    3  A    between atoms: C_2  and  C_4
REMARK    4  A    between atoms: C_8  and  C_9
REMARK    5  A    between atoms: C_9  and  C_10
REMARK    6  A    between atoms: C_19  and  C_20
REMARK    7  A    between atoms: C_20  and  C_21
REMARK    8  A    between atoms: C_24  and  O_25
REMARK    9  A    between atoms: C_36  and  C_37
REMARK   10  A    between atoms: C_43  and  C_44
REMARK   11  A    between atoms: N_46  and  C_47
REMARK   12  A    between atoms: C_47  and  C_48
REMARK   13  A    between atoms: C_47  and  C_55
REMARK   14  A    between atoms: C_48  and  C_49
REMARK   15  A    between atoms: C_49  and  C_50
REMARK   16  A    between atoms: C_50  and  N_51
REMARK   17  A    between atoms: N_57  and  C_58
REMARK   18  A    between atoms: C_58  and  C_59
REMARK   19  A    between atoms: C_65  and  C_66
REMARK   20  A    between atoms: C_66  and  C_67
REMARK                            x       y       z     vdW  Elec       q    Type
REMARK                         _______ _______ _______ _____ _____    ______ ____
ROOT
ATOM      1  C   UNL     1      -6.904   3.468 128.042  0.00  0.00    +0.000 C 
ATOM      2  N   UNL     1      -7.894   2.349 127.769  0.00  0.00    +0.000 N 
ATOM      3  C   UNL     1      -7.778   1.010 128.129  0.00  0.00    +0.000 C 
ATOM      4  O   UNL     1      -8.697   0.396 128.675  0.00  0.00    +0.000 OA
ATOM      5  C   UNL     1      -6.500   0.335 127.672  0.00  0.00    +0.000 C 
ATOM      6  N   UNL     1      -5.462   0.364 128.670  0.00  0.00    +0.000 N 
ATOM      7  C   UNL     1      -5.221  -0.663 129.551  0.00  0.00    +0.000 C 
ATOM      8  O   UNL     1      -4.027  -0.991 129.575  0.00  0.00    +0.000 OA
ATOM      9  C   UNL     1      -6.427  -1.470 130.423  0.00  0.00    +0.000 C 
ATOM     10  N   UNL     1      -5.819  -2.774 130.586  0.00  0.00    +0.000 N 
ATOM     11  C   UNL     1      -4.794  -3.152 131.401  0.00  0.00    +0.000 C 
ATOM     12  O   UNL     1      -4.460  -4.340 131.289  0.00  0.00    +0.000 OA
ATOM     13  C   UNL     1      -4.036  -2.274 132.445  0.00  0.00    +0.000 C 
ATOM     14  C   UNL     1      -4.355  -0.825 132.663  0.00  0.00    +0.000 C 
ATOM     15  S   UNL     1      -3.240   0.354 133.970  0.00  0.00    +0.000 S 
ATOM     16  S   UNL     1      -2.814   2.555 133.323  0.00  0.00    +0.000 S 
ATOM     17  C   UNL     1      -4.105   3.809 133.992  0.00  0.00    +0.000 C 
ATOM     18  C   UNL     1      -4.957   5.084 133.626  0.00  0.00    +0.000 C 
ATOM     19  N   UNL     1      -4.774   5.632 132.272  0.00  0.00    +0.000 N 
ATOM     20  C   UNL     1      -5.165   5.152 131.095  0.00  0.00    +0.000 C 
ATOM     21  O   UNL     1      -4.736   5.647 130.013  0.00  0.00    +0.000 OA
ATOM     22  C   UNL     1      -6.099   4.027 131.042  0.00  0.00    +0.000 C 
ATOM     23  N   UNL     1      -7.317   4.588 130.169  0.00  0.00    +0.000 N 
ATOM     24  C   UNL     1      -7.747   4.336 128.903  0.00  0.00    +0.000 C 
ATOM     25  O   UNL     1      -8.977   4.401 128.734  0.00  0.00    +0.000 OA
ATOM     26  H   UNL     1      -8.857   2.602 128.035  0.00  0.00    +0.000 HD
ATOM     27  H   UNL     1      -4.591   0.784 128.344  0.00  0.00    +0.000 HD
ATOM     28  H   UNL     1      -6.113  -3.486 129.925  0.00  0.00    +0.000 HD
ATOM     29  H   UNL     1      -4.330   6.546 132.197  0.00  0.00    +0.000 HD
ATOM     30  H   UNL     1      -8.273   4.419 130.497  0.00  0.00    +0.000 HD
ENDROOT
BRANCH  18  31
ATOM     31  C   UNL     1      -4.615   6.246 134.639  0.00  0.00    +0.000 C 
ATOM     32  O   UNL     1      -3.881   7.167 134.268  0.00  0.00    +0.000 OA
ATOM     33  N   UNL     1      -5.287   6.285 135.854  0.00  0.00    +0.000 N 
ATOM     34  C   UNL     1      -5.591   5.193 136.766  0.00  0.00    +0.000 C 
ATOM     35  C   UNL     1      -6.804   5.718 137.484  0.00  0.00    +0.000 C 
ATOM     36  C   UNL     1      -6.409   7.156 137.763  0.00  0.00    +0.000 C 
ATOM     37  C   UNL     1      -5.460   7.545 136.611  0.00  0.00    +0.000 C 
BRANCH  37  38
ATOM     38  C   UNL     1      -4.176   8.016 137.314  0.00  0.00    +0.000 C 
ATOM     39  O   UNL     1      -4.034   7.863 138.527  0.00  0.00    +0.000 OA
ATOM     40  N   UNL     1      -3.258   8.708 136.536  0.00  0.00    +0.000 N 
ATOM     41  H   UNL     1      -3.529   9.109 135.643  0.00  0.00    +0.000 HD
BRANCH  40  42
ATOM     42  C   UNL     1      -1.904   9.046 137.022  0.00  0.00    +0.000 C 
BRANCH  42  43
ATOM     43  C   UNL     1      -1.334  10.280 136.247  0.00  0.00    +0.000 C 
ATOM     44  O   UNL     1      -0.179  10.674 136.412  0.00  0.00    +0.000 OA
ATOM     45  N   UNL     1      -2.204  10.894 135.362  0.00  0.00    +0.000 N 
ATOM     46  H   UNL     1      -3.127  10.514 135.250  0.00  0.00    +0.000 HD
BRANCH  45  47
ATOM     47  C   UNL     1      -1.828  12.076 134.582  0.00  0.00    +0.000 C 
BRANCH  47  48
ATOM     48  C   UNL     1      -1.254  11.818 133.176  0.00  0.00    +0.000 C 
ATOM     49  N   UNL     1      -2.090  11.941 132.103  0.00  0.00    +0.000 N 
ATOM     50  O   UNL     1      -0.079  11.511 132.987  0.00  0.00    +0.000 OA
ATOM     51  H   UNL     1      -3.064  12.180 132.135  0.00  0.00    +0.000 HD
ATOM     52  H   UNL     1      -1.691  11.762 131.189  0.00  0.00    +0.000 HD
ENDBRANCH  47  48
ENDBRANCH  45  47
ENDBRANCH  42  43
BRANCH  42  53
ATOM     53  C   UNL     1      -0.949   7.844 136.847  0.00  0.00    +0.000 C 
BRANCH  53  54
ATOM     54  C   UNL     1      -1.055   7.211 135.464  0.00  0.00    +0.000 C 
BRANCH  54  55
ATOM     55  C   UNL     1      -0.025   7.677 134.475  0.00  0.00    +0.000 C 
BRANCH  55  56
ATOM     56  N   UNL     1      -0.182   6.873 133.264  0.00  0.00    +0.000 NA
ATOM     57  C   UNL     1      -1.061   7.277 132.424  0.00  0.00    +0.000 C 
ATOM     58  N   UNL     1      -1.826   8.374 132.547  0.00  0.00    +0.000 N 
ATOM     59  N   UNL     1      -1.278   6.595 131.290  0.00  0.00    +0.000 N 
ATOM     60  H   UNL     1      -1.745   8.936 133.379  0.00  0.00    +0.000 HD
ATOM     61  H   UNL     1      -2.502   8.653 131.860  0.00  0.00    +0.000 HD
ATOM     62  H   UNL     1      -0.753   5.739 131.156  0.00  0.00    +0.000 HD
ATOM     63  H   UNL     1      -1.960   6.850 130.598  0.00  0.00    +0.000 HD
ENDBRANCH  55  56
ENDBRANCH  54  55
ENDBRANCH  53  54
ENDBRANCH  42  53
ENDBRANCH  40  42
ENDBRANCH  37  38
ENDBRANCH  18  31
BRANCH   1  65
ATOM     64  C   UNL     1      -5.773   3.447 125.848  0.00  0.00    +0.000 C 
ATOM     65  C   UNL     1      -6.073   4.290 127.060  0.00  0.00    +0.000 C 
BRANCH  65  66
ATOM     66  O   UNL     1      -4.763   4.665 127.516  0.00  0.00    +0.000 OA
ATOM     67  H   UNL     1      -4.487   4.253 128.363  0.00  0.00    +0.000 HD
ENDBRANCH  65  66
ENDBRANCH   1  65
BRANCH   9  68
ATOM     68  C   UNL     1      -7.344  -1.207 131.759  0.00  0.00    +0.000 C 
BRANCH  68  69
ATOM     69  C   UNL     1      -8.056   0.090 131.964  0.00  0.00    +0.000 A 
ATOM     70  C   UNL     1      -7.417   0.861 132.829  0.00  0.00    +0.000 A 
ATOM     71  C   UNL     1      -7.863   2.093 133.181  0.00  0.00    +0.000 A 
ATOM     72  C   UNL     1      -9.096   2.612 132.888  0.00  0.00    +0.000 A 
ATOM     73  C   UNL     1      -9.820   1.840 132.036  0.00  0.00    +0.000 A 
ATOM     74  C   UNL     1      -9.278   0.616 131.530  0.00  0.00    +0.000 A 
BRANCH  72  75
ATOM     75  O   UNL     1      -9.738   3.673 133.474  0.00  0.00    +0.000 OA
ATOM     76  H   UNL     1     -10.233   4.362 132.977  0.00  0.00    +0.000 HD
ENDBRANCH  72  75
ENDBRANCH  68  69
ENDBRANCH   9  68
BRANCH   5  77
ATOM     77  C   UNL     1      -6.708  -1.047 127.074  0.00  0.00    +0.000 C 
BRANCH  77  78
ATOM     78  C   UNL     1      -6.357  -1.139 125.617  0.00  0.00    +0.000 A 
ATOM     79  C   UNL     1      -6.879  -0.273 124.639  0.00  0.00    +0.000 A 
ATOM     80  C   UNL     1      -6.953  -0.651 123.317  0.00  0.00    +0.000 A 
ATOM     81  C   UNL     1      -6.213  -1.742 122.913  0.00  0.00    +0.000 A 
ATOM     82  C   UNL     1      -5.536  -2.525 123.853  0.00  0.00    +0.000 A 
ATOM     83  C   UNL     1      -5.647  -2.256 125.209  0.00  0.00    +0.000 A 
ENDBRANCH  77  78
ENDBRANCH   5  77
BRANCH  22  84
ATOM     84  C   UNL     1      -5.259   2.839 130.638  0.00  0.00    +0.000 C 
BRANCH  84  85
ATOM     85  C   UNL     1      -3.935   3.056 130.074  0.00  0.00    +0.000 C 
ATOM     86  N   UNL     1      -2.911   3.687 130.732  0.00  0.00    +0.000 N 
ATOM     87  O   UNL     1      -3.880   2.554 128.948  0.00  0.00    +0.000 OA
ATOM     88  H   UNL     1      -2.953   4.305 131.524  0.00  0.00    +0.000 HD
ATOM     89  H   UNL     1      -2.050   3.901 130.227  0.00  0.00    +0.000 HD
ENDBRANCH  84  85
ENDBRANCH  22  84
TORSDOF 19
ENDMDL
MODEL 7
REMARK VINA RESULT:      -8.4      2.492      5.046
REMARK  Name = CHEMBL2369831
REMARK  20 active torsions:
REMARK  status: ('A' for Active; 'I' for Inactive)
REMARK    1  A    between atoms: C_1  and  C_2
REMARK    2  A    between atoms: C_2  and  O_3
REMARK    3  A    between atoms: C_2  and  C_4
REMARK    4  A    between atoms: C_8  and  C_9
REMARK    5  A    between atoms: C_9  and  C_10
REMARK    6  A    between atoms: C_19  and  C_20
REMARK    7  A    between atoms: C_20  and  C_21
REMARK    8  A    between atoms: C_24  and  O_25
REMARK    9  A    between atoms: C_36  and  C_37
REMARK   10  A    between atoms: C_43  and  C_44
REMARK   11  A    between atoms: N_46  and  C_47
REMARK   12  A    between atoms: C_47  and  C_48
REMARK   13  A    between atoms: C_47  and  C_55
REMARK   14  A    between atoms: C_48  and  C_49
REMARK   15  A    between atoms: C_49  and  C_50
REMARK   16  A    between atoms: C_50  and  N_51
REMARK   17  A    between atoms: N_57  and  C_58
REMARK   18  A    between atoms: C_58  and  C_59
REMARK   19  A    between atoms: C_65  and  C_66
REMARK   20  A    between atoms: C_66  and  C_67
REMARK                            x       y       z     vdW  Elec       q    Type
REMARK                         _______ _______ _______ _____ _____    ______ ____
ROOT
ATOM      1  C   UNL     1      -5.871  -1.271 133.086  0.00  0.00    +0.000 C 
ATOM      2  N   UNL     1      -6.066  -0.719 134.487  0.00  0.00    +0.000 N 
ATOM      3  C   UNL     1      -5.611   0.497 134.988  0.00  0.00    +0.000 C 
ATOM      4  O   UNL     1      -6.344   1.264 135.617  0.00  0.00    +0.000 OA
ATOM      5  C   UNL     1      -4.123   0.737 134.826  0.00  0.00    +0.000 C 
ATOM      6  N   UNL     1      -3.800   1.472 133.631  0.00  0.00    +0.000 N 
ATOM      7  C   UNL     1      -3.622   2.834 133.596  0.00  0.00    +0.000 C 
ATOM      8  O   UNL     1      -2.567   3.156 133.030  0.00  0.00    +0.000 OA
ATOM      9  C   UNL     1      -4.657   3.948 134.339  0.00  0.00    +0.000 C 
ATOM     10  N   UNL     1      -3.737   5.030 134.620  0.00  0.00    +0.000 N 
ATOM     11  C   UNL     1      -3.174   5.928 133.764  0.00  0.00    +0.000 C 
ATOM     12  O   UNL     1      -2.384   6.720 134.296  0.00  0.00    +0.000 OA
ATOM     13  C   UNL     1      -3.432   6.070 132.231  0.00  0.00    +0.000 C 
ATOM     14  C   UNL     1      -4.366   5.166 131.483  0.00  0.00    +0.000 C 
ATOM     15  S   UNL     1      -4.591   5.298 129.415  0.00  0.00    +0.000 S 
ATOM     16  S   UNL     1      -4.830   3.297 128.239  0.00  0.00    +0.000 S 
ATOM     17  C   UNL     1      -6.662   2.790 127.964  0.00  0.00    +0.000 C 
ATOM     18  C   UNL     1      -7.664   1.572 127.959  0.00  0.00    +0.000 C 
ATOM     19  N   UNL     1      -7.093   0.249 128.258  0.00  0.00    +0.000 N 
ATOM     20  C   UNL     1      -6.644  -0.249 129.406  0.00  0.00    +0.000 C 
ATOM     21  O   UNL     1      -5.990  -1.332 129.437  0.00  0.00    +0.000 OA
ATOM     22  C   UNL     1      -6.898   0.464 130.658  0.00  0.00    +0.000 C 
ATOM     23  N   UNL     1      -7.658  -0.617 131.561  0.00  0.00    +0.000 N 
ATOM     24  C   UNL     1      -7.288  -1.342 132.651  0.00  0.00    +0.000 C 
ATOM     25  O   UNL     1      -8.195  -1.578 133.468  0.00  0.00    +0.000 OA
ATOM     26  H   UNL     1      -7.048  -0.771 134.797  0.00  0.00    +0.000 HD
ATOM     27  H   UNL     1      -3.132   0.996 133.024  0.00  0.00    +0.000 HD
ATOM     28  H   UNL     1      -3.367   5.063 135.564  0.00  0.00    +0.000 HD
ATOM     29  H   UNL     1      -7.076  -0.432 127.500  0.00  0.00    +0.000 HD
ATOM     30  H   UNL     1      -8.494  -0.324 132.076  0.00  0.00    +0.000 HD
ENDROOT
BRANCH  18  31
ATOM     31  C   UNL     1      -8.345   1.466 126.539  0.00  0.00    +0.000 C 
ATOM     32  O   UNL     1      -9.523   1.101 126.467  0.00  0.00    +0.000 OA
ATOM     33  N   UNL     1      -7.655   1.949 125.435  0.00  0.00    +0.000 N 
ATOM     34  C   UNL     1      -6.252   1.783 125.089  0.00  0.00    +0.000 C 
ATOM     35  C   UNL     1      -6.000   2.990 124.229  0.00  0.00    +0.000 C 
ATOM     36  C   UNL     1      -7.236   3.016 123.350  0.00  0.00    +0.000 C 
ATOM     37  C   UNL     1      -8.356   2.393 124.209  0.00  0.00    +0.000 C 
BRANCH  37  38
ATOM     38  C   UNL     1      -8.890   1.229 123.357  0.00  0.00    +0.000 C 
ATOM     39  O   UNL     1      -9.700   1.435 122.453  0.00  0.00    +0.000 OA
ATOM     40  N   UNL     1      -8.500  -0.049 123.734  0.00  0.00    +0.000 N 
ATOM     41  H   UNL     1      -8.114  -0.225 124.657  0.00  0.00    +0.000 HD
BRANCH  40  42
ATOM     42  C   UNL     1      -8.772  -1.238 122.900  0.00  0.00    +0.000 C 
BRANCH  42  43
ATOM     43  C   UNL     1      -9.385  -2.388 123.766  0.00  0.00    +0.000 C 
ATOM     44  O   UNL     1     -10.029  -3.308 123.261  0.00  0.00    +0.000 OA
ATOM     45  N   UNL     1      -9.153  -2.310 125.128  0.00  0.00    +0.000 N 
ATOM     46  H   UNL     1      -8.599  -1.549 125.481  0.00  0.00    +0.000 HD
BRANCH  45  47
ATOM     47  C   UNL     1      -9.682  -3.296 126.074  0.00  0.00    +0.000 C 
BRANCH  47  48
ATOM     48  C   UNL     1      -8.858  -3.534 127.353  0.00  0.00    +0.000 C 
ATOM     49  N   UNL     1      -7.594  -3.018 127.413  0.00  0.00    +0.000 N 
ATOM     50  O   UNL     1      -9.293  -4.163 128.314  0.00  0.00    +0.000 OA
ATOM     51  H   UNL     1      -7.132  -2.495 126.692  0.00  0.00    +0.000 HD
ATOM     52  H   UNL     1      -7.069  -3.192 128.262  0.00  0.00    +0.000 HD
ENDBRANCH  47  48
ENDBRANCH  45  47
ENDBRANCH  42  43
BRANCH  42  53
ATOM     53  C   UNL     1      -7.474  -1.738 122.227  0.00  0.00    +0.000 C 
BRANCH  53  54
ATOM     54  C   UNL     1      -6.220  -1.219 122.922  0.00  0.00    +0.000 C 
BRANCH  54  55
ATOM     55  C   UNL     1      -5.719  -2.077 124.047  0.00  0.00    +0.000 C 
BRANCH  55  56
ATOM     56  N   UNL     1      -4.738  -3.008 123.489  0.00  0.00    +0.000 NA
ATOM     57  C   UNL     1      -4.959  -4.254 123.690  0.00  0.00    +0.000 C 
ATOM     58  N   UNL     1      -6.011  -4.775 124.343  0.00  0.00    +0.000 N 
ATOM     59  N   UNL     1      -4.107  -5.177 123.220  0.00  0.00    +0.000 N 
ATOM     60  H   UNL     1      -6.691  -4.152 124.749  0.00  0.00    +0.000 HD
ATOM     61  H   UNL     1      -6.143  -5.760 124.476  0.00  0.00    +0.000 HD
ATOM     62  H   UNL     1      -3.277  -4.843 122.748  0.00  0.00    +0.000 HD
ATOM     63  H   UNL     1      -4.215  -6.167 123.356  0.00  0.00    +0.000 HD
ENDBRANCH  55  56
ENDBRANCH  54  55
ENDBRANCH  53  54
ENDBRANCH  42  53
ENDBRANCH  40  42
ENDBRANCH  37  38
ENDBRANCH  18  31
BRANCH   1  65
ATOM     64  C   UNL     1      -5.973  -3.707 132.696  0.00  0.00    +0.000 C 
ATOM     65  C   UNL     1      -5.081  -2.494 132.626  0.00  0.00    +0.000 C 
BRANCH  65  66
ATOM     66  O   UNL     1      -3.974  -2.870 133.462  0.00  0.00    +0.000 OA
ATOM     67  H   UNL     1      -3.732  -2.211 134.149  0.00  0.00    +0.000 HD
ENDBRANCH  65  66
ENDBRANCH   1  65
BRANCH   9  68
ATOM     68  C   UNL     1      -6.118   4.635 134.041  0.00  0.00    +0.000 C 
BRANCH  68  69
ATOM     69  C   UNL     1      -7.200   3.879 133.343  0.00  0.00    +0.000 A 
ATOM     70  C   UNL     1      -7.487   4.418 132.169  0.00  0.00    +0.000 A 
ATOM     71  C   UNL     1      -8.435   3.911 131.342  0.00  0.00    +0.000 A 
ATOM     72  C   UNL     1      -9.354   2.950 131.671  0.00  0.00    +0.000 A 
ATOM     73  C   UNL     1      -9.138   2.389 132.889  0.00  0.00    +0.000 A 
ATOM     74  C   UNL     1      -8.031   2.810 133.695  0.00  0.00    +0.000 A 
BRANCH  72  75
ATOM     75  O   UNL     1     -10.527   2.634 131.034  0.00  0.00    +0.000 OA
ATOM     76  H   UNL     1     -11.277   3.259 130.917  0.00  0.00    +0.000 HD
ENDBRANCH  72  75
ENDBRANCH  68  69
ENDBRANCH   9  68
BRANCH   5  77
ATOM     77  C   UNL     1      -3.447   1.298 136.067  0.00  0.00    +0.000 C 
BRANCH  77  78
ATOM     78  C   UNL     1      -3.454   0.361 137.240  0.00  0.00    +0.000 A 
ATOM     79  C   UNL     1      -2.988  -0.964 137.175  0.00  0.00    +0.000 A 
ATOM     80  C   UNL     1      -3.437  -1.923 138.056  0.00  0.00    +0.000 A 
ATOM     81  C   UNL     1      -4.085  -1.501 139.197  0.00  0.00    +0.000 A 
ATOM     82  C   UNL     1      -4.409  -0.152 139.369  0.00  0.00    +0.000 A 
ATOM     83  C   UNL     1      -4.140   0.773 138.371  0.00  0.00    +0.000 A 
ENDBRANCH  77  78
ENDBRANCH   5  77
BRANCH  22  84
ATOM     84  C   UNL     1      -5.573   1.082 131.034  0.00  0.00    +0.000 C 
BRANCH  84  85
ATOM     85  C   UNL     1      -4.344   0.538 130.474  0.00  0.00    +0.000 C 
ATOM     86  N   UNL     1      -3.907   0.776 129.196  0.00  0.00    +0.000 N 
ATOM     87  O   UNL     1      -3.758  -0.125 131.334  0.00  0.00    +0.000 OA
ATOM     88  H   UNL     1      -4.428   1.097 128.399  0.00  0.00    +0.000 HD
ATOM     89  H   UNL     1      -3.097   0.267 128.842  0.00  0.00    +0.000 HD
ENDBRANCH  84  85
ENDBRANCH  22  84
TORSDOF 19
ENDMDL
MODEL 8
REMARK VINA RESULT:      -8.3      4.344     12.384
REMARK  Name = CHEMBL2369831
REMARK  20 active torsions:
REMARK  status: ('A' for Active; 'I' for Inactive)
REMARK    1  A    between atoms: C_1  and  C_2
REMARK    2  A    between atoms: C_2  and  O_3
REMARK    3  A    between atoms: C_2  and  C_4
REMARK    4  A    between atoms: C_8  and  C_9
REMARK    5  A    between atoms: C_9  and  C_10
REMARK    6  A    between atoms: C_19  and  C_20
REMARK    7  A    between atoms: C_20  and  C_21
REMARK    8  A    between atoms: C_24  and  O_25
REMARK    9  A    between atoms: C_36  and  C_37
REMARK   10  A    between atoms: C_43  and  C_44
REMARK   11  A    between atoms: N_46  and  C_47
REMARK   12  A    between atoms: C_47  and  C_48
REMARK   13  A    between atoms: C_47  and  C_55
REMARK   14  A    between atoms: C_48  and  C_49
REMARK   15  A    between atoms: C_49  and  C_50
REMARK   16  A    between atoms: C_50  and  N_51
REMARK   17  A    between atoms: N_57  and  C_58
REMARK   18  A    between atoms: C_58  and  C_59
REMARK   19  A    between atoms: C_65  and  C_66
REMARK   20  A    between atoms: C_66  and  C_67
REMARK                            x       y       z     vdW  Elec       q    Type
REMARK                         _______ _______ _______ _____ _____    ______ ____
ROOT
ATOM      1  C   UNL     1      -6.760   3.608 127.192  0.00  0.00    +0.000 C 
ATOM      2  N   UNL     1      -7.918   2.683 126.856  0.00  0.00    +0.000 N 
ATOM      3  C   UNL     1      -8.079   1.355 127.239  0.00  0.00    +0.000 C 
ATOM      4  O   UNL     1      -9.133   0.934 127.720  0.00  0.00    +0.000 OA
ATOM      5  C   UNL     1      -6.918   0.445 126.889  0.00  0.00    +0.000 C 
ATOM      6  N   UNL     1      -5.969   0.307 127.964  0.00  0.00    +0.000 N 
ATOM      7  C   UNL     1      -5.988  -0.723 128.872  0.00  0.00    +0.000 C 
ATOM      8  O   UNL     1      -4.880  -1.265 128.992  0.00  0.00    +0.000 OA
ATOM      9  C   UNL     1      -7.383  -1.273 129.657  0.00  0.00    +0.000 C 
ATOM     10  N   UNL     1      -7.041  -2.662 129.881  0.00  0.00    +0.000 N 
ATOM     11  C   UNL     1      -6.167  -3.202 130.777  0.00  0.00    +0.000 C 
ATOM     12  O   UNL     1      -6.052  -4.433 130.704  0.00  0.00    +0.000 OA
ATOM     13  C   UNL     1      -5.338  -2.452 131.866  0.00  0.00    +0.000 C 
ATOM     14  C   UNL     1      -5.398  -0.964 132.043  0.00  0.00    +0.000 C 
ATOM     15  S   UNL     1      -4.183   0.023 133.419  0.00  0.00    +0.000 S 
ATOM     16  S   UNL     1      -3.311   2.090 132.782  0.00  0.00    +0.000 S 
ATOM     17  C   UNL     1      -4.392   3.577 133.336  0.00  0.00    +0.000 C 
ATOM     18  C   UNL     1      -4.964   4.978 132.891  0.00  0.00    +0.000 C 
ATOM     19  N   UNL     1      -4.583   5.448 131.549  0.00  0.00    +0.000 N 
ATOM     20  C   UNL     1      -4.968   5.019 130.352  0.00  0.00    +0.000 C 
ATOM     21  O   UNL     1      -4.377   5.399 129.300  0.00  0.00    +0.000 OA
ATOM     22  C   UNL     1      -6.088   4.083 130.239  0.00  0.00    +0.000 C 
ATOM     23  N   UNL     1      -7.114   4.837 129.269  0.00  0.00    +0.000 N 
ATOM     24  C   UNL     1      -7.488   4.637 127.976  0.00  0.00    +0.000 C 
ATOM     25  O   UNL     1      -8.669   4.922 127.713  0.00  0.00    +0.000 OA
ATOM     26  H   UNL     1      -8.834   3.116 127.045  0.00  0.00    +0.000 HD
ATOM     27  H   UNL     1      -5.013   0.552 127.702  0.00  0.00    +0.000 HD
ATOM     28  H   UNL     1      -7.412  -3.324 129.208  0.00  0.00    +0.000 HD
ATOM     29  H   UNL     1      -3.973   6.263 131.498  0.00  0.00    +0.000 HD
ATOM     30  H   UNL     1      -8.106   4.855 129.523  0.00  0.00    +0.000 HD
ENDROOT
BRANCH  18  31
ATOM     31  C   UNL     1      -4.488   6.082 133.915  0.00  0.00    +0.000 C 
ATOM     32  O   UNL     1      -3.840   7.046 133.496  0.00  0.00    +0.000 OA
ATOM     33  N   UNL     1      -4.959   6.023 135.220  0.00  0.00    +0.000 N 
ATOM     34  C   UNL     1      -5.094   4.866 136.092  0.00  0.00    +0.000 C 
ATOM     35  C   UNL     1      -6.187   5.307 137.025  0.00  0.00    +0.000 C 
ATOM     36  C   UNL     1      -5.782   6.736 137.336  0.00  0.00    +0.000 C 
ATOM     37  C   UNL     1      -5.035   7.226 136.079  0.00  0.00    +0.000 C 
BRANCH  37  38
ATOM     38  C   UNL     1      -3.665   7.689 136.602  0.00  0.00    +0.000 C 
ATOM     39  O   UNL     1      -3.219   7.251 137.663  0.00  0.00    +0.000 OA
ATOM     40  N   UNL     1      -3.028   8.689 135.880  0.00  0.00    +0.000 N 
ATOM     41  H   UNL     1      -3.542   9.261 135.217  0.00  0.00    +0.000 HD
BRANCH  40  42
ATOM     42  C   UNL     1      -1.632   9.092 136.148  0.00  0.00    +0.000 C 
BRANCH  42  43
ATOM     43  C   UNL     1      -1.583  10.524 136.778  0.00  0.00    +0.000 C 
ATOM     44  O   UNL     1      -2.521  10.977 137.434  0.00  0.00    +0.000 OA
ATOM     45  N   UNL     1      -0.421  11.243 136.557  0.00  0.00    +0.000 N 
ATOM     46  H   UNL     1       0.322  10.812 136.034  0.00  0.00    +0.000 HD
BRANCH  45  47
ATOM     47  C   UNL     1      -0.233  12.606 137.058  0.00  0.00    +0.000 C 
BRANCH  47  48
ATOM     48  C   UNL     1      -0.592  13.750 136.091  0.00  0.00    +0.000 C 
ATOM     49  N   UNL     1       0.352  14.156 135.191  0.00  0.00    +0.000 N 
ATOM     50  O   UNL     1      -1.689  14.304 136.098  0.00  0.00    +0.000 OA
ATOM     51  H   UNL     1       1.280  13.784 135.096  0.00  0.00    +0.000 HD
ATOM     52  H   UNL     1       0.096  14.913 134.568  0.00  0.00    +0.000 HD
ENDBRANCH  47  48
ENDBRANCH  45  47
ENDBRANCH  42  43
BRANCH  42  53
ATOM     53  C   UNL     1      -0.802   9.076 134.844  0.00  0.00    +0.000 C 
BRANCH  53  54
ATOM     54  C   UNL     1      -1.574   9.640 133.656  0.00  0.00    +0.000 C 
BRANCH  54  55
ATOM     55  C   UNL     1      -0.948  10.843 133.010  0.00  0.00    +0.000 C 
BRANCH  55  56
ATOM     56  N   UNL     1      -1.679  12.022 133.474  0.00  0.00    +0.000 NA
ATOM     57  C   UNL     1      -1.832  12.967 132.622  0.00  0.00    +0.000 C 
ATOM     58  N   UNL     1      -1.404  12.960 131.349  0.00  0.00    +0.000 N 
ATOM     59  N   UNL     1      -2.482  14.088 132.965  0.00  0.00    +0.000 N 
ATOM     60  H   UNL     1      -0.886  12.164 131.012  0.00  0.00    +0.000 HD
ATOM     61  H   UNL     1      -1.548  13.725 130.716  0.00  0.00    +0.000 HD
ATOM     62  H   UNL     1      -2.800  14.165 133.923  0.00  0.00    +0.000 HD
ATOM     63  H   UNL     1      -2.623  14.870 132.350  0.00  0.00    +0.000 HD
ENDBRANCH  55  56
ENDBRANCH  54  55
ENDBRANCH  53  54
ENDBRANCH  42  53
ENDBRANCH  40  42
ENDBRANCH  37  38
ENDBRANCH  18  31
BRANCH   1  65
ATOM     64  C   UNL     1      -6.427   4.860 125.091  0.00  0.00    +0.000 C 
ATOM     65  C   UNL     1      -5.721   4.238 126.268  0.00  0.00    +0.000 C 
BRANCH  65  66
ATOM     66  O   UNL     1      -4.810   3.321 125.641  0.00  0.00    +0.000 OA
ATOM     67  H   UNL     1      -4.092   2.988 126.222  0.00  0.00    +0.000 HD
ENDBRANCH  65  66
ENDBRANCH   1  65
BRANCH   9  68
ATOM     68  C   UNL     1      -8.331  -0.812 130.915  0.00  0.00    +0.000 C 
BRANCH  68  69
ATOM     69  C   UNL     1      -8.509   0.630 131.262  0.00  0.00    +0.000 A 
ATOM     70  C   UNL     1      -8.006   0.907 132.454  0.00  0.00    +0.000 A 
ATOM     71  C   UNL     1      -8.040   2.151 132.993  0.00  0.00    +0.000 A 
ATOM     72  C   UNL     1      -8.765   3.211 132.515  0.00  0.00    +0.000 A 
ATOM     73  C   UNL     1      -9.345   2.971 131.310  0.00  0.00    +0.000 A 
ATOM     74  C   UNL     1      -9.168   1.708 130.660  0.00  0.00    +0.000 A 
BRANCH  72  75
ATOM     75  O   UNL     1      -9.120   4.366 133.164  0.00  0.00    +0.000 OA
ATOM     76  H   UNL     1      -9.143   4.464 134.142  0.00  0.00    +0.000 HD
ENDBRANCH  72  75
ENDBRANCH  68  69
ENDBRANCH   9  68
BRANCH   5  77
ATOM     77  C   UNL     1      -7.334  -0.889 126.292  0.00  0.00    +0.000 C 
BRANCH  77  78
ATOM     78  C   UNL     1      -6.548  -1.284 125.075  0.00  0.00    +0.000 A 
ATOM     79  C   UNL     1      -6.823  -0.796 123.785  0.00  0.00    +0.000 A 
ATOM     80  C   UNL     1      -6.455  -1.502 122.661  0.00  0.00    +0.000 A 
ATOM     81  C   UNL     1      -5.531  -2.514 122.806  0.00  0.00    +0.000 A 
ATOM     82  C   UNL     1      -5.105  -2.906 124.079  0.00  0.00    +0.000 A 
ATOM     83  C   UNL     1      -5.648  -2.327 125.217  0.00  0.00    +0.000 A 
ENDBRANCH  77  78
ENDBRANCH   5  77
BRANCH  22  84
ATOM     84  C   UNL     1      -5.456   2.752 129.914  0.00  0.00    +0.000 C 
BRANCH  84  85
ATOM     85  C   UNL     1      -4.106   2.713 129.371  0.00  0.00    +0.000 C 
ATOM     86  N   UNL     1      -2.986   3.100 130.061  0.00  0.00    +0.000 N 
ATOM     87  O   UNL     1      -4.136   2.248 128.228  0.00  0.00    +0.000 OA
ATOM     88  H   UNL     1      -2.915   3.686 130.874  0.00  0.00    +0.000 HD
ATOM     89  H   UNL     1      -2.091   3.151 129.573  0.00  0.00    +0.000 HD
ENDBRANCH  84  85
ENDBRANCH  22  84
TORSDOF 19
ENDMDL
MODEL 9
REMARK VINA RESULT:      -8.3      4.141     10.333
REMARK  Name = CHEMBL2369831
REMARK  20 active torsions:
REMARK  status: ('A' for Active; 'I' for Inactive)
REMARK    1  A    between atoms: C_1  and  C_2
REMARK    2  A    between atoms: C_2  and  O_3
REMARK    3  A    between atoms: C_2  and  C_4
REMARK    4  A    between atoms: C_8  and  C_9
REMARK    5  A    between atoms: C_9  and  C_10
REMARK    6  A    between atoms: C_19  and  C_20
REMARK    7  A    between atoms: C_20  and  C_21
REMARK    8  A    between atoms: C_24  and  O_25
REMARK    9  A    between atoms: C_36  and  C_37
REMARK   10  A    between atoms: C_43  and  C_44
REMARK   11  A    between atoms: N_46  and  C_47
REMARK   12  A    between atoms: C_47  and  C_48
REMARK   13  A    between atoms: C_47  and  C_55
REMARK   14  A    between atoms: C_48  and  C_49
REMARK   15  A    between atoms: C_49  and  C_50
REMARK   16  A    between atoms: C_50  and  N_51
REMARK   17  A    between atoms: N_57  and  C_58
REMARK   18  A    between atoms: C_58  and  C_59
REMARK   19  A    between atoms: C_65  and  C_66
REMARK   20  A    between atoms: C_66  and  C_67
REMARK                            x       y       z     vdW  Elec       q    Type
REMARK                         _______ _______ _______ _____ _____    ______ ____
ROOT
ATOM      1  C   UNL     1      -6.653  -0.085 126.679  0.00  0.00    +0.000 C 
ATOM      2  N   UNL     1      -5.556   0.666 125.946  0.00  0.00    +0.000 N 
ATOM      3  C   UNL     1      -5.087   1.949 126.211  0.00  0.00    +0.000 C 
ATOM      4  O   UNL     1      -3.883   2.204 126.298  0.00  0.00    +0.000 OA
ATOM      5  C   UNL     1      -6.154   3.026 126.242  0.00  0.00    +0.000 C 
ATOM      6  N   UNL     1      -6.657   3.280 127.567  0.00  0.00    +0.000 N 
ATOM      7  C   UNL     1      -6.187   4.279 128.384  0.00  0.00    +0.000 C 
ATOM      8  O   UNL     1      -7.100   4.974 128.851  0.00  0.00    +0.000 OA
ATOM      9  C   UNL     1      -4.546   4.605 128.640  0.00  0.00    +0.000 C 
ATOM     10  N   UNL     1      -4.590   6.025 128.921  0.00  0.00    +0.000 N 
ATOM     11  C   UNL     1      -5.025   6.668 130.040  0.00  0.00    +0.000 C 
ATOM     12  O   UNL     1      -4.980   7.904 129.972  0.00  0.00    +0.000 OA
ATOM     13  C   UNL     1      -5.538   6.026 131.367  0.00  0.00    +0.000 C 
ATOM     14  C   UNL     1      -5.637   4.543 131.560  0.00  0.00    +0.000 C 
ATOM     15  S   UNL     1      -6.448   3.718 133.294  0.00  0.00    +0.000 S 
ATOM     16  S   UNL     1      -7.771   1.812 133.051  0.00  0.00    +0.000 S 
ATOM     17  C   UNL     1      -6.791   0.173 133.257  0.00  0.00    +0.000 C 
ATOM     18  C   UNL     1      -6.609  -1.287 132.690  0.00  0.00    +0.000 C 
ATOM     19  N   UNL     1      -7.482  -1.671 131.568  0.00  0.00    +0.000 N 
ATOM     20  C   UNL     1      -7.463  -1.280 130.298  0.00  0.00    +0.000 C 
ATOM     21  O   UNL     1      -8.422  -1.550 129.517  0.00  0.00    +0.000 OA
ATOM     22  C   UNL     1      -6.324  -0.516 129.788  0.00  0.00    +0.000 C 
ATOM     23  N   UNL     1      -5.804  -1.392 128.555  0.00  0.00    +0.000 N 
ATOM     24  C   UNL     1      -5.860  -1.224 127.206  0.00  0.00    +0.000 C 
ATOM     25  O   UNL     1      -4.890  -1.674 126.571  0.00  0.00    +0.000 OA
ATOM     26  H   UNL     1      -4.702   0.102 125.831  0.00  0.00    +0.000 HD
ATOM     27  H   UNL     1      -7.670   3.182 127.648  0.00  0.00    +0.000 HD
ATOM     28  H   UNL     1      -4.374   6.638 128.142  0.00  0.00    +0.000 HD
ATOM     29  H   UNL     1      -8.184  -2.388 131.750  0.00  0.00    +0.000 HD
ATOM     30  H   UNL     1      -4.797  -1.559 128.463  0.00  0.00    +0.000 HD
ENDROOT
BRANCH  18  31
ATOM     31  C   UNL     1      -6.867  -2.329 133.848  0.00  0.00    +0.000 C 
ATOM     32  O   UNL     1      -7.835  -2.164 134.597  0.00  0.00    +0.000 OA
ATOM     33  N   UNL     1      -6.101  -3.487 133.880  0.00  0.00    +0.000 N 
ATOM     34  C   UNL     1      -4.670  -3.643 133.671  0.00  0.00    +0.000 C 
ATOM     35  C   UNL     1      -4.578  -5.069 133.204  0.00  0.00    +0.000 C 
ATOM     36  C   UNL     1      -5.519  -5.777 134.160  0.00  0.00    +0.000 C 
ATOM     37  C   UNL     1      -6.583  -4.725 134.534  0.00  0.00    +0.000 C 
BRANCH  37  38
ATOM     38  C   UNL     1      -6.535  -4.660 136.070  0.00  0.00    +0.000 C 
ATOM     39  O   UNL     1      -5.642  -5.233 136.694  0.00  0.00    +0.000 OA
ATOM     40  N   UNL     1      -7.599  -4.028 136.699  0.00  0.00    +0.000 N 
ATOM     41  H   UNL     1      -8.471  -3.860 136.206  0.00  0.00    +0.000 HD
BRANCH  40  42
ATOM     42  C   UNL     1      -7.593  -3.719 138.144  0.00  0.00    +0.000 C 
BRANCH  42  43
ATOM     43  C   UNL     1      -8.971  -4.084 138.790  0.00  0.00    +0.000 C 
ATOM     44  O   UNL     1      -9.070  -4.398 139.977  0.00  0.00    +0.000 OA
ATOM     45  N   UNL     1     -10.069  -4.026 137.949  0.00  0.00    +0.000 N 
ATOM     46  H   UNL     1      -9.932  -3.739 136.995  0.00  0.00    +0.000 HD
BRANCH  45  47
ATOM     47  C   UNL     1     -11.422  -4.364 138.397  0.00  0.00    +0.000 C 
BRANCH  47  48
ATOM     48  C   UNL     1     -12.441  -3.209 138.439  0.00  0.00    +0.000 C 
ATOM     49  N   UNL     1     -12.268  -2.162 137.580  0.00  0.00    +0.000 N 
ATOM     50  O   UNL     1     -13.397  -3.198 139.211  0.00  0.00    +0.000 OA
ATOM     51  H   UNL     1     -11.526  -2.058 136.912  0.00  0.00    +0.000 HD
ATOM     52  H   UNL     1     -12.948  -1.412 137.629  0.00  0.00    +0.000 HD
ENDBRANCH  47  48
ENDBRANCH  45  47
ENDBRANCH  42  43
BRANCH  42  53
ATOM     53  C   UNL     1      -7.298  -2.220 138.378  0.00  0.00    +0.000 C 
BRANCH  53  54
ATOM     54  C   UNL     1      -5.842  -1.863 138.103  0.00  0.00    +0.000 C 
BRANCH  54  55
ATOM     55  C   UNL     1      -5.639  -0.709 137.165  0.00  0.00    +0.000 C 
BRANCH  55  56
ATOM     56  N   UNL     1      -4.591  -1.089 136.219  0.00  0.00    +0.000 NA
ATOM     57  C   UNL     1      -3.520  -0.386 136.245  0.00  0.00    +0.000 C 
ATOM     58  N   UNL     1      -3.270   0.642 137.072  0.00  0.00    +0.000 N 
ATOM     59  N   UNL     1      -2.510  -0.660 135.406  0.00  0.00    +0.000 N 
ATOM     60  H   UNL     1      -3.983   0.931 137.722  0.00  0.00    +0.000 HD
ATOM     61  H   UNL     1      -2.413   1.164 137.057  0.00  0.00    +0.000 HD
ATOM     62  H   UNL     1      -2.653  -1.405 134.736  0.00  0.00    +0.000 HD
ATOM     63  H   UNL     1      -1.651  -0.140 135.367  0.00  0.00    +0.000 HD
ENDBRANCH  55  56
ENDBRANCH  54  55
ENDBRANCH  53  54
ENDBRANCH  42  53
ENDBRANCH  40  42
ENDBRANCH  37  38
ENDBRANCH  18  31
BRANCH   1  65
ATOM     64  C   UNL     1      -7.883  -1.030 124.758  0.00  0.00    +0.000 C 
ATOM     65  C   UNL     1      -8.021  -0.540 126.176  0.00  0.00    +0.000 C 
BRANCH  65  66
ATOM     66  O   UNL     1      -9.014   0.492 126.057  0.00  0.00    +0.000 OA
ATOM     67  H   UNL     1      -8.921   1.231 126.697  0.00  0.00    +0.000 HD
ENDBRANCH  65  66
ENDBRANCH   1  65
BRANCH   9  68
ATOM     68  C   UNL     1      -3.306   3.986 129.521  0.00  0.00    +0.000 C 
BRANCH  68  69
ATOM     69  C   UNL     1      -2.414   4.871 130.328  0.00  0.00    +0.000 A 
ATOM     70  C   UNL     1      -2.283   4.426 131.567  0.00  0.00    +0.000 A 
ATOM     71  C   UNL     1      -1.519   5.055 132.495  0.00  0.00    +0.000 A 
ATOM     72  C   UNL     1      -0.976   6.306 132.370  0.00  0.00    +0.000 A 
ATOM     73  C   UNL     1      -1.118   6.837 131.127  0.00  0.00    +0.000 A 
ATOM     74  C   UNL     1      -1.781   6.098 130.096  0.00  0.00    +0.000 A 
BRANCH  72  75
ATOM     75  O   UNL     1      -0.496   7.133 133.354  0.00  0.00    +0.000 OA
ATOM     76  H   UNL     1       0.093   6.838 134.083  0.00  0.00    +0.000 HD
ENDBRANCH  72  75
ENDBRANCH  68  69
ENDBRANCH   9  68
BRANCH   5  77
ATOM     77  C   UNL     1      -5.776   4.296 125.499  0.00  0.00    +0.000 C 
BRANCH  77  78
ATOM     78  C   UNL     1      -5.940   4.202 124.009  0.00  0.00    +0.000 A 
ATOM     79  C   UNL     1      -6.961   3.460 123.388  0.00  0.00    +0.000 A 
ATOM     80  C   UNL     1      -6.818   2.985 122.104  0.00  0.00    +0.000 A 
ATOM     81  C   UNL     1      -5.817   3.522 121.323  0.00  0.00    +0.000 A 
ATOM     82  C   UNL     1      -4.885   4.405 121.876  0.00  0.00    +0.000 A 
ATOM     83  C   UNL     1      -4.913   4.708 123.229  0.00  0.00    +0.000 A 
ENDBRANCH  77  78
ENDBRANCH   5  77
BRANCH  22  84
ATOM     84  C   UNL     1      -6.831   0.899 129.651  0.00  0.00    +0.000 C 
BRANCH  84  85
ATOM     85  C   UNL     1      -8.264   1.153 129.667  0.00  0.00    +0.000 C 
ATOM     86  N   UNL     1      -9.063   1.000 130.772  0.00  0.00    +0.000 N 
ATOM     87  O   UNL     1      -8.623   1.554 128.557  0.00  0.00    +0.000 OA
ATOM     88  H   UNL     1      -8.889   0.471 131.609  0.00  0.00    +0.000 HD
ATOM     89  H   UNL     1     -10.074   1.086 130.673  0.00  0.00    +0.000 HD
ENDBRANCH  84  85
ENDBRANCH  22  84
TORSDOF 19
ENDMDL
