MODEL 1
REMARK VINA RESULT:     -10.4      0.000      0.000
REMARK  Name = CHEMBL302128
REMARK  7 active torsions:
REMARK  status: ('A' for Active; 'I' for Inactive)
REMARK    1  A    between atoms: C_1  and  O_2
REMARK    2  A    between atoms: O_2  and  C_3
REMARK    3  A    between atoms: C_5  and  O_6
REMARK    4  A    between atoms: O_6  and  C_7
REMARK    5  A    between atoms: N_10  and  C_11
REMARK    6  A    between atoms: C_26  and  C_27
REMARK    7  A    between atoms: C_32  and  N_33
REMARK                            x       y       z     vdW  Elec       q    Type
REMARK                         _______ _______ _______ _____ _____    ______ ____
ROOT
ATOM      1  C   UNL     1      -4.962   1.384 131.382  0.00  0.00    +0.000 A 
ATOM      2  C   UNL     1      -4.605   0.121 130.782  0.00  0.00    +0.000 A 
ATOM      3  C   UNL     1      -4.940  -1.026 131.427  0.00  0.00    +0.000 A 
ATOM      4  C   UNL     1      -5.563  -0.697 132.577  0.00  0.00    +0.000 A 
ATOM      5  F   UNL     1      -5.887  -1.619 133.394  0.00  0.00    +0.000 F 
ATOM      6  C   UNL     1      -5.972   0.403 133.232  0.00  0.00    +0.000 A 
ATOM      7  C   UNL     1      -5.667   1.531 132.606  0.00  0.00    +0.000 A 
ENDROOT
BRANCH   7   8
ATOM      8  C   UNL     1      -6.112   2.673 133.422  0.00  0.00    +0.000 C 
ATOM      9  O   UNL     1      -5.570   3.010 134.472  0.00  0.00    +0.000 OA
ATOM     10  N   UNL     1      -7.144   3.363 132.907  0.00  0.00    +0.000 N 
ATOM     11  C   UNL     1      -6.941   4.745 132.567  0.00  0.00    +0.000 C 
ATOM     12  C   UNL     1      -8.071   5.531 133.176  0.00  0.00    +0.000 C 
ATOM     13  C   UNL     1      -9.439   4.946 132.747  0.00  0.00    +0.000 C 
ATOM     14  C   UNL     1      -9.549   3.461 133.127  0.00  0.00    +0.000 C 
ATOM     15  C   UNL     1      -8.383   2.706 132.586  0.00  0.00    +0.000 C 
BRANCH  13  16
ATOM     16  N   UNL     1      -9.769   5.289 131.320  0.00  0.00    +0.000 N 
ATOM     17  C   UNL     1      -9.067   4.831 130.202  0.00  0.00    +0.000 C 
ATOM     18  O   UNL     1      -8.853   3.682 129.868  0.00  0.00    +0.000 OA
ATOM     19  O   UNL     1      -8.607   5.833 129.413  0.00  0.00    +0.000 OA
ATOM     20  C   UNL     1      -9.697   6.423 128.743  0.00  0.00    +0.000 C 
ATOM     21  C   UNL     1     -10.756   6.818 129.726  0.00  0.00    +0.000 A 
ATOM     22  C   UNL     1     -11.742   7.720 129.334  0.00  0.00    +0.000 A 
ATOM     23  C   UNL     1     -12.739   8.077 130.229  0.00  0.00    +0.000 A 
ATOM     24  C   UNL     1     -12.759   7.525 131.509  0.00  0.00    +0.000 A 
ATOM     25  C   UNL     1     -11.775   6.621 131.907  0.00  0.00    +0.000 A 
ATOM     26  C   UNL     1     -10.760   6.265 131.022  0.00  0.00    +0.000 A 
ENDBRANCH  13  16
ENDBRANCH   7   8
BRANCH   1  28
ATOM     27  C   UNL     1      -5.352   2.819 129.656  0.00  0.00    +0.000 C 
ATOM     28  O   UNL     1      -4.494   2.490 130.746  0.00  0.00    +0.000 OA
ENDBRANCH   1  28
BRANCH   3  29
ATOM     29  O   UNL     1      -4.646  -2.280 130.990  0.00  0.00    +0.000 OA
BRANCH  29  30
ATOM     30  C   UNL     1      -5.357  -2.965 129.893  0.00  0.00    +0.000 C 
ATOM     31  C   UNL     1      -4.819  -2.703 128.465  0.00  0.00    +0.000 C 
ATOM     32  C   UNL     1      -5.418  -1.457 127.830  0.00  0.00    +0.000 C 
ATOM     33  N   UNL     1      -6.955  -1.465 128.082  0.00  0.00    +0.000 N 
ATOM     34  C   UNL     1      -7.597  -1.771 129.428  0.00  0.00    +0.000 C 
ATOM     35  C   UNL     1      -6.912  -3.010 129.978  0.00  0.00    +0.000 C 
BRANCH  33  36
ATOM     36  C   UNL     1      -7.727  -0.825 127.121  0.00  0.00    +0.000 A 
ATOM     37  C   UNL     1      -8.125   0.516 127.187  0.00  0.00    +0.000 A 
ATOM     38  C   UNL     1      -8.994   1.018 126.221  0.00  0.00    +0.000 A 
ATOM     39  C   UNL     1      -9.463   0.173 125.206  0.00  0.00    +0.000 A 
ATOM     40  C   UNL     1      -9.068  -1.159 125.109  0.00  0.00    +0.000 A 
ATOM     41  N   UNL     1      -9.539  -1.970 124.139  0.00  0.00    +0.000 NA
ATOM     42  C   UNL     1      -9.119  -3.264 124.115  0.00  0.00    +0.000 A 
ATOM     43  C   UNL     1      -8.242  -3.820 125.007  0.00  0.00    +0.000 A 
ATOM     44  C   UNL     1      -7.807  -2.992 125.999  0.00  0.00    +0.000 A 
ATOM     45  C   UNL     1      -8.184  -1.640 126.071  0.00  0.00    +0.000 A 
ENDBRANCH  33  36
ENDBRANCH  29  30
ENDBRANCH   3  29
TORSDOF 6
ENDMDL
MODEL 2
REMARK VINA RESULT:     -10.3      3.484      9.204
REMARK  Name = CHEMBL302128
REMARK  7 active torsions:
REMARK  status: ('A' for Active; 'I' for Inactive)
REMARK    1  A    between atoms: C_1  and  O_2
REMARK    2  A    between atoms: O_2  and  C_3
REMARK    3  A    between atoms: C_5  and  O_6
REMARK    4  A    between atoms: O_6  and  C_7
REMARK    5  A    between atoms: N_10  and  C_11
REMARK    6  A    between atoms: C_26  and  C_27
REMARK    7  A    between atoms: C_32  and  N_33
REMARK                            x       y       z     vdW  Elec       q    Type
REMARK                         _______ _______ _______ _____ _____    ______ ____
ROOT
ATOM      1  C   UNL     1      -3.305   4.204 127.362  0.00  0.00    +0.000 A 
ATOM      2  C   UNL     1      -2.313   4.634 128.317  0.00  0.00    +0.000 A 
ATOM      3  C   UNL     1      -2.554   5.748 129.054  0.00  0.00    +0.000 A 
ATOM      4  C   UNL     1      -3.752   6.247 128.685  0.00  0.00    +0.000 A 
ATOM      5  F   UNL     1      -4.145   7.352 129.182  0.00  0.00    +0.000 F 
ATOM      6  C   UNL     1      -4.763   5.949 127.852  0.00  0.00    +0.000 A 
ATOM      7  C   UNL     1      -4.549   4.852 127.137  0.00  0.00    +0.000 A 
ENDROOT
BRANCH   7   8
ATOM      8  C   UNL     1      -5.686   4.637 126.227  0.00  0.00    +0.000 C 
ATOM      9  O   UNL     1      -6.088   5.483 125.430  0.00  0.00    +0.000 OA
ATOM     10  N   UNL     1      -6.238   3.415 126.297  0.00  0.00    +0.000 N 
ATOM     11  C   UNL     1      -6.209   2.582 125.125  0.00  0.00    +0.000 C 
ATOM     12  C   UNL     1      -7.603   2.059 124.907  0.00  0.00    +0.000 C 
ATOM     13  C   UNL     1      -8.136   1.369 126.185  0.00  0.00    +0.000 C 
ATOM     14  C   UNL     1      -8.103   2.326 127.386  0.00  0.00    +0.000 C 
ATOM     15  C   UNL     1      -6.735   2.900 127.546  0.00  0.00    +0.000 C 
BRANCH  13  16
ATOM     16  N   UNL     1      -7.502   0.021 126.396  0.00  0.00    +0.000 N 
ATOM     17  C   UNL     1      -6.552  -0.273 127.378  0.00  0.00    +0.000 C 
ATOM     18  O   UNL     1      -6.650  -0.139 128.583  0.00  0.00    +0.000 OA
ATOM     19  O   UNL     1      -5.405  -0.789 126.874  0.00  0.00    +0.000 OA
ATOM     20  C   UNL     1      -5.653  -2.104 126.430  0.00  0.00    +0.000 C 
ATOM     21  C   UNL     1      -6.826  -2.121 125.498  0.00  0.00    +0.000 A 
ATOM     22  C   UNL     1      -7.024  -3.229 124.679  0.00  0.00    +0.000 A 
ATOM     23  C   UNL     1      -8.118  -3.265 123.827  0.00  0.00    +0.000 A 
ATOM     24  C   UNL     1      -9.020  -2.203 123.803  0.00  0.00    +0.000 A 
ATOM     25  C   UNL     1      -8.828  -1.091 124.623  0.00  0.00    +0.000 A 
ATOM     26  C   UNL     1      -7.725  -1.036 125.472  0.00  0.00    +0.000 A 
ENDBRANCH  13  16
ENDBRANCH   7   8
BRANCH   1  28
ATOM     27  C   UNL     1      -1.530   3.065 126.503  0.00  0.00    +0.000 C 
ATOM     28  O   UNL     1      -2.950   3.154 126.577  0.00  0.00    +0.000 OA
ENDBRANCH   1  28
BRANCH   3  29
ATOM     29  O   UNL     1      -1.699   6.278 129.969  0.00  0.00    +0.000 OA
BRANCH  29  30
ATOM     30  C   UNL     1      -1.753   5.995 131.417  0.00  0.00    +0.000 C 
ATOM     31  C   UNL     1      -2.294   4.602 131.819  0.00  0.00    +0.000 C 
ATOM     32  C   UNL     1      -3.810   4.572 131.942  0.00  0.00    +0.000 C 
ATOM     33  N   UNL     1      -4.265   5.831 132.739  0.00  0.00    +0.000 N 
ATOM     34  C   UNL     1      -3.752   7.240 132.473  0.00  0.00    +0.000 C 
ATOM     35  C   UNL     1      -2.242   7.148 132.345  0.00  0.00    +0.000 C 
BRANCH  33  36
ATOM     36  C   UNL     1      -5.435   5.690 133.472  0.00  0.00    +0.000 A 
ATOM     37  C   UNL     1      -5.499   5.168 134.771  0.00  0.00    +0.000 A 
ATOM     38  C   UNL     1      -6.743   4.968 135.365  0.00  0.00    +0.000 A 
ATOM     39  C   UNL     1      -7.909   5.282 134.653  0.00  0.00    +0.000 A 
ATOM     40  C   UNL     1      -7.871   5.818 133.368  0.00  0.00    +0.000 A 
ATOM     41  N   UNL     1      -8.998   6.101 132.683  0.00  0.00    +0.000 NA
ATOM     42  C   UNL     1      -8.884   6.610 131.427  0.00  0.00    +0.000 A 
ATOM     43  C   UNL     1      -7.699   6.866 130.790  0.00  0.00    +0.000 A 
ATOM     44  C   UNL     1      -6.573   6.540 131.487  0.00  0.00    +0.000 A 
ATOM     45  C   UNL     1      -6.620   6.031 132.796  0.00  0.00    +0.000 A 
ENDBRANCH  33  36
ENDBRANCH  29  30
ENDBRANCH   3  29
TORSDOF 6
ENDMDL
MODEL 3
REMARK VINA RESULT:     -10.0      3.218      5.642
REMARK  Name = CHEMBL302128
REMARK  7 active torsions:
REMARK  status: ('A' for Active; 'I' for Inactive)
REMARK    1  A    between atoms: C_1  and  O_2
REMARK    2  A    between atoms: O_2  and  C_3
REMARK    3  A    between atoms: C_5  and  O_6
REMARK    4  A    between atoms: O_6  and  C_7
REMARK    5  A    between atoms: N_10  and  C_11
REMARK    6  A    between atoms: C_26  and  C_27
REMARK    7  A    between atoms: C_32  and  N_33
REMARK                            x       y       z     vdW  Elec       q    Type
REMARK                         _______ _______ _______ _____ _____    ______ ____
ROOT
ATOM      1  C   UNL     1      -6.260  -2.257 127.981  0.00  0.00    +0.000 A 
ATOM      2  C   UNL     1      -6.506  -2.488 126.578  0.00  0.00    +0.000 A 
ATOM      3  C   UNL     1      -7.695  -3.026 126.203  0.00  0.00    +0.000 A 
ATOM      4  C   UNL     1      -8.423  -3.255 127.315  0.00  0.00    +0.000 A 
ATOM      5  F   UNL     1      -9.546  -3.847 127.211  0.00  0.00    +0.000 F 
ATOM      6  C   UNL     1      -8.333  -3.075 128.643  0.00  0.00    +0.000 A 
ATOM      7  C   UNL     1      -7.184  -2.534 129.024  0.00  0.00    +0.000 A 
ENDROOT
BRANCH   7   8
ATOM      8  C   UNL     1      -7.163  -2.421 130.491  0.00  0.00    +0.000 C 
ATOM      9  O   UNL     1      -7.017  -3.381 131.245  0.00  0.00    +0.000 OA
ATOM     10  N   UNL     1      -7.273  -1.167 130.960  0.00  0.00    +0.000 N 
ATOM     11  C   UNL     1      -6.185  -0.626 131.729  0.00  0.00    +0.000 C 
ATOM     12  C   UNL     1      -6.768  -0.034 132.983  0.00  0.00    +0.000 C 
ATOM     13  C   UNL     1      -7.892   0.974 132.643  0.00  0.00    +0.000 C 
ATOM     14  C   UNL     1      -8.992   0.312 131.799  0.00  0.00    +0.000 C 
ATOM     15  C   UNL     1      -8.394  -0.340 130.598  0.00  0.00    +0.000 C 
BRANCH  13  16
ATOM     16  N   UNL     1      -7.339   2.267 132.110  0.00  0.00    +0.000 N 
ATOM     17  C   UNL     1      -6.758   2.432 130.851  0.00  0.00    +0.000 C 
ATOM     18  O   UNL     1      -7.246   2.202 129.762  0.00  0.00    +0.000 OA
ATOM     19  O   UNL     1      -5.500   2.935 130.905  0.00  0.00    +0.000 OA
ATOM     20  C   UNL     1      -5.567   4.292 131.278  0.00  0.00    +0.000 C 
ATOM     21  C   UNL     1      -6.370   4.444 132.533  0.00  0.00    +0.000 A 
ATOM     22  C   UNL     1      -6.270   5.625 133.263  0.00  0.00    +0.000 A 
ATOM     23  C   UNL     1      -7.024   5.784 134.416  0.00  0.00    +0.000 A 
ATOM     24  C   UNL     1      -7.887   4.772 134.832  0.00  0.00    +0.000 A 
ATOM     25  C   UNL     1      -7.993   3.587 134.104  0.00  0.00    +0.000 A 
ATOM     26  C   UNL     1      -7.229   3.409 132.953  0.00  0.00    +0.000 A 
ENDBRANCH  13  16
ENDBRANCH   7   8
BRANCH   1  28
ATOM     27  C   UNL     1      -4.240  -2.915 128.803  0.00  0.00    +0.000 C 
ATOM     28  O   UNL     1      -5.009  -1.829 128.296  0.00  0.00    +0.000 OA
ENDBRANCH   1  28
BRANCH   3  29
ATOM     29  O   UNL     1      -8.049  -3.318 124.923  0.00  0.00    +0.000 OA
BRANCH  29  30
ATOM     30  C   UNL     1      -8.499  -2.316 123.937  0.00  0.00    +0.000 C 
ATOM     31  C   UNL     1      -7.464  -1.909 122.860  0.00  0.00    +0.000 C 
ATOM     32  C   UNL     1      -6.551  -0.782 123.316  0.00  0.00    +0.000 C 
ATOM     33  N   UNL     1      -7.423   0.315 123.996  0.00  0.00    +0.000 N 
ATOM     34  C   UNL     1      -8.511   0.026 125.021  0.00  0.00    +0.000 C 
ATOM     35  C   UNL     1      -9.342  -1.122 124.478  0.00  0.00    +0.000 C 
BRANCH  33  36
ATOM     36  C   UNL     1      -6.935   1.612 123.910  0.00  0.00    +0.000 A 
ATOM     37  C   UNL     1      -7.134   2.463 122.815  0.00  0.00    +0.000 A 
ATOM     38  C   UNL     1      -6.500   3.704 122.791  0.00  0.00    +0.000 A 
ATOM     39  C   UNL     1      -5.668   4.077 123.856  0.00  0.00    +0.000 A 
ATOM     40  C   UNL     1      -5.469   3.256 124.964  0.00  0.00    +0.000 A 
ATOM     41  N   UNL     1      -4.652   3.614 125.976  0.00  0.00    +0.000 NA
ATOM     42  C   UNL     1      -4.496   2.755 127.019  0.00  0.00    +0.000 A 
ATOM     43  C   UNL     1      -5.110   1.537 127.130  0.00  0.00    +0.000 A 
ATOM     44  C   UNL     1      -5.903   1.179 126.079  0.00  0.00    +0.000 A 
ATOM     45  C   UNL     1      -6.125   2.027 124.981  0.00  0.00    +0.000 A 
ENDBRANCH  33  36
ENDBRANCH  29  30
ENDBRANCH   3  29
TORSDOF 6
ENDMDL
MODEL 4
REMARK VINA RESULT:      -9.8      2.709      4.175
REMARK  Name = CHEMBL302128
REMARK  7 active torsions:
REMARK  status: ('A' for Active; 'I' for Inactive)
REMARK    1  A    between atoms: C_1  and  O_2
REMARK    2  A    between atoms: O_2  and  C_3
REMARK    3  A    between atoms: C_5  and  O_6
REMARK    4  A    between atoms: O_6  and  C_7
REMARK    5  A    between atoms: N_10  and  C_11
REMARK    6  A    between atoms: C_26  and  C_27
REMARK    7  A    between atoms: C_32  and  N_33
REMARK                            x       y       z     vdW  Elec       q    Type
REMARK                         _______ _______ _______ _____ _____    ______ ____
ROOT
ATOM      1  C   UNL     1      -6.257  -0.847 129.470  0.00  0.00    +0.000 A 
ATOM      2  C   UNL     1      -6.264  -1.520 128.194  0.00  0.00    +0.000 A 
ATOM      3  C   UNL     1      -7.230  -2.441 127.946  0.00  0.00    +0.000 A 
ATOM      4  C   UNL     1      -8.013  -2.536 129.040  0.00  0.00    +0.000 A 
ATOM      5  F   UNL     1      -8.936  -3.413 129.069  0.00  0.00    +0.000 F 
ATOM      6  C   UNL     1      -8.135  -1.972 130.253  0.00  0.00    +0.000 A 
ATOM      7  C   UNL     1      -7.208  -1.058 130.504  0.00  0.00    +0.000 A 
ENDROOT
BRANCH   7   8
ATOM      8  C   UNL     1      -7.399  -0.535 131.867  0.00  0.00    +0.000 C 
ATOM      9  O   UNL     1      -7.252  -1.214 132.881  0.00  0.00    +0.000 OA
ATOM     10  N   UNL     1      -7.706   0.771 131.930  0.00  0.00    +0.000 N 
ATOM     11  C   UNL     1      -6.798   1.656 132.607  0.00  0.00    +0.000 C 
ATOM     12  C   UNL     1      -7.605   2.486 133.567  0.00  0.00    +0.000 C 
ATOM     13  C   UNL     1      -8.776   3.186 132.836  0.00  0.00    +0.000 C 
ATOM     14  C   UNL     1      -9.674   2.163 132.123  0.00  0.00    +0.000 C 
ATOM     15  C   UNL     1      -8.851   1.293 131.233  0.00  0.00    +0.000 C 
BRANCH  13  16
ATOM     16  N   UNL     1      -8.301   4.343 132.001  0.00  0.00    +0.000 N 
ATOM     17  C   UNL     1      -6.978   4.786 131.925  0.00  0.00    +0.000 C 
ATOM     18  O   UNL     1      -5.991   4.155 131.598  0.00  0.00    +0.000 OA
ATOM     19  O   UNL     1      -6.834   6.096 132.244  0.00  0.00    +0.000 OA
ATOM     20  C   UNL     1      -7.373   6.880 131.204  0.00  0.00    +0.000 C 
ATOM     21  C   UNL     1      -8.774   6.446 130.902  0.00  0.00    +0.000 A 
ATOM     22  C   UNL     1      -9.605   7.294 130.174  0.00  0.00    +0.000 A 
ATOM     23  C   UNL     1     -10.897   6.893 129.871  0.00  0.00    +0.000 A 
ATOM     24  C   UNL     1     -11.356   5.643 130.283  0.00  0.00    +0.000 A 
ATOM     25  C   UNL     1     -10.529   4.789 131.011  0.00  0.00    +0.000 A 
ATOM     26  C   UNL     1      -9.233   5.186 131.335  0.00  0.00    +0.000 A 
ENDBRANCH  13  16
ENDBRANCH   7   8
BRANCH   1  28
ATOM     27  C   UNL     1      -4.110  -0.779 130.227  0.00  0.00    +0.000 C 
ATOM     28  O   UNL     1      -5.198  -0.027 129.697  0.00  0.00    +0.000 OA
ENDBRANCH   1  28
BRANCH   3  29
ATOM     29  O   UNL     1      -7.341  -3.166 126.800  0.00  0.00    +0.000 OA
BRANCH  29  30
ATOM     30  C   UNL     1      -7.874  -2.634 125.530  0.00  0.00    +0.000 C 
ATOM     31  C   UNL     1      -6.836  -2.375 124.411  0.00  0.00    +0.000 C 
ATOM     32  C   UNL     1      -6.198  -0.998 124.508  0.00  0.00    +0.000 C 
ATOM     33  N   UNL     1      -7.320   0.049 124.771  0.00  0.00    +0.000 N 
ATOM     34  C   UNL     1      -8.428  -0.128 125.800  0.00  0.00    +0.000 C 
ATOM     35  C   UNL     1      -8.974  -1.535 125.631  0.00  0.00    +0.000 C 
BRANCH  33  36
ATOM     36  C   UNL     1      -7.078   1.327 124.286  0.00  0.00    +0.000 A 
ATOM     37  C   UNL     1      -7.631   1.847 123.108  0.00  0.00    +0.000 A 
ATOM     38  C   UNL     1      -7.226   3.103 122.661  0.00  0.00    +0.000 A 
ATOM     39  C   UNL     1      -6.266   3.821 123.388  0.00  0.00    +0.000 A 
ATOM     40  C   UNL     1      -5.715   3.333 124.571  0.00  0.00    +0.000 A 
ATOM     41  N   UNL     1      -4.778   4.022 125.255  0.00  0.00    +0.000 NA
ATOM     42  C   UNL     1      -4.274   3.476 126.395  0.00  0.00    +0.000 A 
ATOM     43  C   UNL     1      -4.647   2.266 126.916  0.00  0.00    +0.000 A 
ATOM     44  C   UNL     1      -5.569   1.571 126.189  0.00  0.00    +0.000 A 
ATOM     45  C   UNL     1      -6.144   2.085 125.015  0.00  0.00    +0.000 A 
ENDBRANCH  33  36
ENDBRANCH  29  30
ENDBRANCH   3  29
TORSDOF 6
ENDMDL
MODEL 5
REMARK VINA RESULT:      -9.7      3.488      7.974
REMARK  Name = CHEMBL302128
REMARK  7 active torsions:
REMARK  status: ('A' for Active; 'I' for Inactive)
REMARK    1  A    between atoms: C_1  and  O_2
REMARK    2  A    between atoms: O_2  and  C_3
REMARK    3  A    between atoms: C_5  and  O_6
REMARK    4  A    between atoms: O_6  and  C_7
REMARK    5  A    between atoms: N_10  and  C_11
REMARK    6  A    between atoms: C_26  and  C_27
REMARK    7  A    between atoms: C_32  and  N_33
REMARK                            x       y       z     vdW  Elec       q    Type
REMARK                         _______ _______ _______ _____ _____    ______ ____
ROOT
ATOM      1  C   UNL     1      -5.739  -2.124 131.317  0.00  0.00    +0.000 A 
ATOM      2  C   UNL     1      -5.665  -1.245 132.459  0.00  0.00    +0.000 A 
ATOM      3  C   UNL     1      -6.732  -0.458 132.748  0.00  0.00    +0.000 A 
ATOM      4  C   UNL     1      -7.685  -0.682 131.820  0.00  0.00    +0.000 A 
ATOM      5  F   UNL     1      -8.748   0.021 131.839  0.00  0.00    +0.000 F 
ATOM      6  C   UNL     1      -7.894  -1.463 130.748  0.00  0.00    +0.000 A 
ATOM      7  C   UNL     1      -6.866  -2.251 130.462  0.00  0.00    +0.000 A 
ENDROOT
BRANCH   7   8
ATOM      8  C   UNL     1      -7.174  -3.029 129.251  0.00  0.00    +0.000 C 
ATOM      9  O   UNL     1      -7.510  -4.212 129.271  0.00  0.00    +0.000 OA
ATOM     10  N   UNL     1      -7.104  -2.335 128.104  0.00  0.00    +0.000 N 
ATOM     11  C   UNL     1      -8.298  -2.194 127.316  0.00  0.00    +0.000 C 
ATOM     12  C   UNL     1      -7.952  -2.562 125.899  0.00  0.00    +0.000 C 
ATOM     13  C   UNL     1      -6.738  -1.741 125.399  0.00  0.00    +0.000 C 
ATOM     14  C   UNL     1      -5.523  -1.935 126.319  0.00  0.00    +0.000 C 
ATOM     15  C   UNL     1      -5.898  -1.643 127.733  0.00  0.00    +0.000 C 
BRANCH  13  16
ATOM     16  N   UNL     1      -7.117  -0.317 125.095  0.00  0.00    +0.000 N 
ATOM     17  C   UNL     1      -6.556   0.808 125.704  0.00  0.00    +0.000 C 
ATOM     18  O   UNL     1      -5.386   1.136 125.746  0.00  0.00    +0.000 OA
ATOM     19  O   UNL     1      -7.478   1.614 126.288  0.00  0.00    +0.000 OA
ATOM     20  C   UNL     1      -8.213   2.271 125.281  0.00  0.00    +0.000 C 
ATOM     21  C   UNL     1      -8.761   1.273 124.307  0.00  0.00    +0.000 A 
ATOM     22  C   UNL     1      -9.791   1.656 123.453  0.00  0.00    +0.000 A 
ATOM     23  C   UNL     1     -10.293   0.746 122.533  0.00  0.00    +0.000 A 
ATOM     24  C   UNL     1      -9.757  -0.538 122.458  0.00  0.00    +0.000 A 
ATOM     25  C   UNL     1      -8.724  -0.927 123.310  0.00  0.00    +0.000 A 
ATOM     26  C   UNL     1      -8.222  -0.028 124.248  0.00  0.00    +0.000 A 
ENDBRANCH  13  16
ENDBRANCH   7   8
BRANCH   1  28
ATOM     27  C   UNL     1      -3.544  -1.867 130.765  0.00  0.00    +0.000 C 
ATOM     28  O   UNL     1      -4.596  -2.795 131.016  0.00  0.00    +0.000 OA
ENDBRANCH   1  28
BRANCH   3  29
ATOM     29  O   UNL     1      -6.789   0.432 133.775  0.00  0.00    +0.000 OA
BRANCH  29  30
ATOM     30  C   UNL     1      -6.295   1.821 133.699  0.00  0.00    +0.000 C 
ATOM     31  C   UNL     1      -7.027   2.750 132.701  0.00  0.00    +0.000 C 
ATOM     32  C   UNL     1      -6.460   2.665 131.292  0.00  0.00    +0.000 C 
ATOM     33  N   UNL     1      -4.906   2.708 131.382  0.00  0.00    +0.000 N 
ATOM     34  C   UNL     1      -4.086   1.886 132.367  0.00  0.00    +0.000 C 
ATOM     35  C   UNL     1      -4.750   2.023 133.725  0.00  0.00    +0.000 C 
BRANCH  33  36
ATOM     36  C   UNL     1      -4.254   3.255 130.286  0.00  0.00    +0.000 A 
ATOM     37  C   UNL     1      -3.984   2.563 129.097  0.00  0.00    +0.000 A 
ATOM     38  C   UNL     1      -3.222   3.179 128.107  0.00  0.00    +0.000 A 
ATOM     39  C   UNL     1      -2.730   4.475 128.318  0.00  0.00    +0.000 A 
ATOM     40  C   UNL     1      -2.999   5.189 129.484  0.00  0.00    +0.000 A 
ATOM     41  N   UNL     1      -2.506   6.428 129.687  0.00  0.00    +0.000 NA
ATOM     42  C   UNL     1      -2.799   7.060 130.855  0.00  0.00    +0.000 A 
ATOM     43  C   UNL     1      -3.568   6.535 131.858  0.00  0.00    +0.000 A 
ATOM     44  C   UNL     1      -4.026   5.267 131.647  0.00  0.00    +0.000 A 
ATOM     45  C   UNL     1      -3.778   4.567 130.455  0.00  0.00    +0.000 A 
ENDBRANCH  33  36
ENDBRANCH  29  30
ENDBRANCH   3  29
TORSDOF 6
ENDMDL
MODEL 6
REMARK VINA RESULT:      -9.6      2.947      8.530
REMARK  Name = CHEMBL302128
REMARK  7 active torsions:
REMARK  status: ('A' for Active; 'I' for Inactive)
REMARK    1  A    between atoms: C_1  and  O_2
REMARK    2  A    between atoms: O_2  and  C_3
REMARK    3  A    between atoms: C_5  and  O_6
REMARK    4  A    between atoms: O_6  and  C_7
REMARK    5  A    between atoms: N_10  and  C_11
REMARK    6  A    between atoms: C_26  and  C_27
REMARK    7  A    between atoms: C_32  and  N_33
REMARK                            x       y       z     vdW  Elec       q    Type
REMARK                         _______ _______ _______ _____ _____    ______ ____
ROOT
ATOM      1  C   UNL     1      -6.703   0.313 133.024  0.00  0.00    +0.000 A 
ATOM      2  C   UNL     1      -6.981   1.648 133.496  0.00  0.00    +0.000 A 
ATOM      3  C   UNL     1      -8.156   2.233 133.147  0.00  0.00    +0.000 A 
ATOM      4  C   UNL     1      -8.839   1.372 132.365  0.00  0.00    +0.000 A 
ATOM      5  F   UNL     1      -9.937   1.748 131.839  0.00  0.00    +0.000 F 
ATOM      6  C   UNL     1      -8.717   0.126 131.877  0.00  0.00    +0.000 A 
ATOM      7  C   UNL     1      -7.582  -0.465 132.224  0.00  0.00    +0.000 A 
ENDROOT
BRANCH   7   8
ATOM      8  C   UNL     1      -7.522  -1.800 131.606  0.00  0.00    +0.000 C 
ATOM      9  O   UNL     1      -7.697  -2.845 132.230  0.00  0.00    +0.000 OA
ATOM     10  N   UNL     1      -7.303  -1.797 130.281  0.00  0.00    +0.000 N 
ATOM     11  C   UNL     1      -8.311  -2.351 129.419  0.00  0.00    +0.000 C 
ATOM     12  C   UNL     1      -7.628  -3.306 128.478  0.00  0.00    +0.000 C 
ATOM     13  C   UNL     1      -6.455  -2.610 127.747  0.00  0.00    +0.000 C 
ATOM     14  C   UNL     1      -5.446  -2.028 128.750  0.00  0.00    +0.000 C 
ATOM     15  C   UNL     1      -6.146  -1.145 129.727  0.00  0.00    +0.000 C 
BRANCH  13  16
ATOM     16  N   UNL     1      -6.942  -1.670 126.679  0.00  0.00    +0.000 N 
ATOM     17  C   UNL     1      -7.831  -0.612 126.886  0.00  0.00    +0.000 C 
ATOM     18  O   UNL     1      -7.717   0.327 127.649  0.00  0.00    +0.000 OA
ATOM     19  O   UNL     1      -8.932  -0.678 126.098  0.00  0.00    +0.000 OA
ATOM     20  C   UNL     1      -8.562  -0.377 124.772  0.00  0.00    +0.000 C 
ATOM     21  C   UNL     1      -7.417  -1.244 124.345  0.00  0.00    +0.000 A 
ATOM     22  C   UNL     1      -7.128  -1.365 122.989  0.00  0.00    +0.000 A 
ATOM     23  C   UNL     1      -6.059  -2.150 122.584  0.00  0.00    +0.000 A 
ATOM     24  C   UNL     1      -5.271  -2.800 123.532  0.00  0.00    +0.000 A 
ATOM     25  C   UNL     1      -5.555  -2.682 124.892  0.00  0.00    +0.000 A 
ATOM     26  C   UNL     1      -6.636  -1.909 125.311  0.00  0.00    +0.000 A 
ENDBRANCH  13  16
ENDBRANCH   7   8
BRANCH   1  28
ATOM     27  C   UNL     1      -4.474   0.743 132.837  0.00  0.00    +0.000 C 
ATOM     28  O   UNL     1      -5.464  -0.166 133.311  0.00  0.00    +0.000 OA
ENDBRANCH   1  28
BRANCH   3  29
ATOM     29  O   UNL     1      -8.535   3.490 133.499  0.00  0.00    +0.000 OA
BRANCH  29  30
ATOM     30  C   UNL     1      -8.041   4.719 132.847  0.00  0.00    +0.000 C 
ATOM     31  C   UNL     1      -8.377   4.874 131.344  0.00  0.00    +0.000 C 
ATOM     32  C   UNL     1      -7.354   4.203 130.439  0.00  0.00    +0.000 C 
ATOM     33  N   UNL     1      -5.928   4.569 130.950  0.00  0.00    +0.000 N 
ATOM     34  C   UNL     1      -5.506   4.515 132.411  0.00  0.00    +0.000 C 
ATOM     35  C   UNL     1      -6.602   5.187 133.218  0.00  0.00    +0.000 C 
BRANCH  33  36
ATOM     36  C   UNL     1      -4.933   4.604 129.983  0.00  0.00    +0.000 A 
ATOM     37  C   UNL     1      -4.365   3.470 129.388  0.00  0.00    +0.000 A 
ATOM     38  C   UNL     1      -3.293   3.624 128.512  0.00  0.00    +0.000 A 
ATOM     39  C   UNL     1      -2.794   4.907 128.247  0.00  0.00    +0.000 A 
ATOM     40  C   UNL     1      -3.353   6.051 128.812  0.00  0.00    +0.000 A 
ATOM     41  N   UNL     1      -2.855   7.281 128.566  0.00  0.00    +0.000 NA
ATOM     42  C   UNL     1      -3.444   8.351 129.164  0.00  0.00    +0.000 A 
ATOM     43  C   UNL     1      -4.520   8.283 130.008  0.00  0.00    +0.000 A 
ATOM     44  C   UNL     1      -4.985   7.027 130.271  0.00  0.00    +0.000 A 
ATOM     45  C   UNL     1      -4.436   5.882 129.670  0.00  0.00    +0.000 A 
ENDBRANCH  33  36
ENDBRANCH  29  30
ENDBRANCH   3  29
TORSDOF 6
ENDMDL
MODEL 7
REMARK VINA RESULT:      -9.4      3.012      6.250
REMARK  Name = CHEMBL302128
REMARK  7 active torsions:
REMARK  status: ('A' for Active; 'I' for Inactive)
REMARK    1  A    between atoms: C_1  and  O_2
REMARK    2  A    between atoms: O_2  and  C_3
REMARK    3  A    between atoms: C_5  and  O_6
REMARK    4  A    between atoms: O_6  and  C_7
REMARK    5  A    between atoms: N_10  and  C_11
REMARK    6  A    between atoms: C_26  and  C_27
REMARK    7  A    between atoms: C_32  and  N_33
REMARK                            x       y       z     vdW  Elec       q    Type
REMARK                         _______ _______ _______ _____ _____    ______ ____
ROOT
ATOM      1  C   UNL     1      -6.923   2.232 124.610  0.00  0.00    +0.000 A 
ATOM      2  C   UNL     1      -6.890   0.901 124.053  0.00  0.00    +0.000 A 
ATOM      3  C   UNL     1      -7.703  -0.049 124.582  0.00  0.00    +0.000 A 
ATOM      4  C   UNL     1      -8.396   0.507 125.597  0.00  0.00    +0.000 A 
ATOM      5  F   UNL     1      -9.158  -0.229 126.305  0.00  0.00    +0.000 F 
ATOM      6  C   UNL     1      -8.540   1.701 126.194  0.00  0.00    +0.000 A 
ATOM      7  C   UNL     1      -7.765   2.645 125.677  0.00  0.00    +0.000 A 
ENDROOT
BRANCH   7   8
ATOM      8  C   UNL     1      -7.961   3.897 126.424  0.00  0.00    +0.000 C 
ATOM      9  O   UNL     1      -8.731   4.787 126.069  0.00  0.00    +0.000 OA
ATOM     10  N   UNL     1      -7.261   3.985 127.568  0.00  0.00    +0.000 N 
ATOM     11  C   UNL     1      -7.983   4.100 128.805  0.00  0.00    +0.000 C 
ATOM     12  C   UNL     1      -7.387   5.250 129.572  0.00  0.00    +0.000 C 
ATOM     13  C   UNL     1      -5.857   5.075 129.722  0.00  0.00    +0.000 C 
ATOM     14  C   UNL     1      -5.179   4.933 128.350  0.00  0.00    +0.000 C 
ATOM     15  C   UNL     1      -5.829   3.843 127.568  0.00  0.00    +0.000 C 
BRANCH  13  16
ATOM     16  N   UNL     1      -5.514   4.022 130.741  0.00  0.00    +0.000 N 
ATOM     17  C   UNL     1      -4.682   2.924 130.509  0.00  0.00    +0.000 C 
ATOM     18  O   UNL     1      -3.527   2.922 130.131  0.00  0.00    +0.000 OA
ATOM     19  O   UNL     1      -5.279   1.736 130.777  0.00  0.00    +0.000 OA
ATOM     20  C   UNL     1      -5.416   1.599 132.173  0.00  0.00    +0.000 C 
ATOM     21  C   UNL     1      -6.100   2.802 132.746  0.00  0.00    +0.000 A 
ATOM     22  C   UNL     1      -6.647   2.726 134.024  0.00  0.00    +0.000 A 
ATOM     23  C   UNL     1      -7.266   3.840 134.572  0.00  0.00    +0.000 A 
ATOM     24  C   UNL     1      -7.325   5.031 133.852  0.00  0.00    +0.000 A 
ATOM     25  C   UNL     1      -6.778   5.114 132.572  0.00  0.00    +0.000 A 
ATOM     26  C   UNL     1      -6.168   3.998 132.004  0.00  0.00    +0.000 A 
ENDBRANCH  13  16
ENDBRANCH   7   8
BRANCH   1  28
ATOM     27  C   UNL     1      -6.363   3.479 122.788  0.00  0.00    +0.000 C 
ATOM     28  O   UNL     1      -6.003   3.100 124.114  0.00  0.00    +0.000 OA
ENDBRANCH   1  28
BRANCH   3  29
ATOM     29  O   UNL     1      -7.757  -1.344 124.172  0.00  0.00    +0.000 OA
BRANCH  29  30
ATOM     30  C   UNL     1      -7.078  -2.461 124.858  0.00  0.00    +0.000 C 
ATOM     31  C   UNL     1      -7.993  -3.449 125.621  0.00  0.00    +0.000 C 
ATOM     32  C   UNL     1      -8.291  -2.998 127.043  0.00  0.00    +0.000 C 
ATOM     33  N   UNL     1      -6.961  -2.521 127.698  0.00  0.00    +0.000 N 
ATOM     34  C   UNL     1      -5.956  -1.602 127.017  0.00  0.00    +0.000 C 
ATOM     35  C   UNL     1      -5.753  -2.128 125.608  0.00  0.00    +0.000 C 
BRANCH  33  36
ATOM     36  C   UNL     1      -6.881  -2.669 129.076  0.00  0.00    +0.000 A 
ATOM     37  C   UNL     1      -6.402  -3.816 129.724  0.00  0.00    +0.000 A 
ATOM     38  C   UNL     1      -6.476  -3.895 131.113  0.00  0.00    +0.000 A 
ATOM     39  C   UNL     1      -7.035  -2.834 131.838  0.00  0.00    +0.000 A 
ATOM     40  C   UNL     1      -7.501  -1.677 131.218  0.00  0.00    +0.000 A 
ATOM     41  N   UNL     1      -8.054  -0.667 131.922  0.00  0.00    +0.000 NA
ATOM     42  C   UNL     1      -8.500   0.426 131.248  0.00  0.00    +0.000 A 
ATOM     43  C   UNL     1      -8.432   0.592 129.891  0.00  0.00    +0.000 A 
ATOM     44  C   UNL     1      -7.901  -0.455 129.196  0.00  0.00    +0.000 A 
ATOM     45  C   UNL     1      -7.403  -1.605 129.832  0.00  0.00    +0.000 A 
ENDBRANCH  33  36
ENDBRANCH  29  30
ENDBRANCH   3  29
TORSDOF 6
ENDMDL
MODEL 8
REMARK VINA RESULT:      -9.2      3.510      6.699
REMARK  Name = CHEMBL302128
REMARK  7 active torsions:
REMARK  status: ('A' for Active; 'I' for Inactive)
REMARK    1  A    between atoms: C_1  and  O_2
REMARK    2  A    between atoms: O_2  and  C_3
REMARK    3  A    between atoms: C_5  and  O_6
REMARK    4  A    between atoms: O_6  and  C_7
REMARK    5  A    between atoms: N_10  and  C_11
REMARK    6  A    between atoms: C_26  and  C_27
REMARK    7  A    between atoms: C_32  and  N_33
REMARK                            x       y       z     vdW  Elec       q    Type
REMARK                         _______ _______ _______ _____ _____    ______ ____
ROOT
ATOM      1  C   UNL     1      -4.489   4.373 127.831  0.00  0.00    +0.000 A 
ATOM      2  C   UNL     1      -5.058   4.459 126.508  0.00  0.00    +0.000 A 
ATOM      3  C   UNL     1      -6.406   4.376 126.370  0.00  0.00    +0.000 A 
ATOM      4  C   UNL     1      -6.945   4.202 127.593  0.00  0.00    +0.000 A 
ATOM      5  F   UNL     1      -8.199   4.004 127.697  0.00  0.00    +0.000 F 
ATOM      6  C   UNL     1      -6.551   4.128 128.876  0.00  0.00    +0.000 A 
ATOM      7  C   UNL     1      -5.238   4.224 129.028  0.00  0.00    +0.000 A 
ENDROOT
BRANCH   7   8
ATOM      8  C   UNL     1      -4.904   4.085 130.456  0.00  0.00    +0.000 C 
ATOM      9  O   UNL     1      -4.503   5.015 131.153  0.00  0.00    +0.000 OA
ATOM     10  N   UNL     1      -5.116   2.861 130.966  0.00  0.00    +0.000 N 
ATOM     11  C   UNL     1      -6.077   2.717 132.025  0.00  0.00    +0.000 C 
ATOM     12  C   UNL     1      -5.424   1.924 133.125  0.00  0.00    +0.000 C 
ATOM     13  C   UNL     1      -4.852   0.595 132.577  0.00  0.00    +0.000 C 
ATOM     14  C   UNL     1      -3.858   0.849 131.433  0.00  0.00    +0.000 C 
ATOM     15  C   UNL     1      -4.490   1.702 130.386  0.00  0.00    +0.000 C 
BRANCH  13  16
ATOM     16  N   UNL     1      -5.940  -0.406 132.296  0.00  0.00    +0.000 N 
ATOM     17  C   UNL     1      -7.232  -0.354 132.824  0.00  0.00    +0.000 C 
ATOM     18  O   UNL     1      -8.046   0.544 132.731  0.00  0.00    +0.000 OA
ATOM     19  O   UNL     1      -7.581  -1.480 133.494  0.00  0.00    +0.000 OA
ATOM     20  C   UNL     1      -7.781  -2.520 132.565  0.00  0.00    +0.000 C 
ATOM     21  C   UNL     1      -6.586  -2.652 131.672  0.00  0.00    +0.000 A 
ATOM     22  C   UNL     1      -6.419  -3.820 130.932  0.00  0.00    +0.000 A 
ATOM     23  C   UNL     1      -5.326  -3.945 130.087  0.00  0.00    +0.000 A 
ATOM     24  C   UNL     1      -4.409  -2.901 129.971  0.00  0.00    +0.000 A 
ATOM     25  C   UNL     1      -4.572  -1.730 130.709  0.00  0.00    +0.000 A 
ATOM     26  C   UNL     1      -5.657  -1.598 131.573  0.00  0.00    +0.000 A 
ENDBRANCH  13  16
ENDBRANCH   7   8
BRANCH   1  28
ATOM     27  C   UNL     1      -2.653   3.102 127.376  0.00  0.00    +0.000 C 
ATOM     28  O   UNL     1      -3.131   4.344 127.887  0.00  0.00    +0.000 OA
ENDBRANCH   1  28
BRANCH   3  29
ATOM     29  O   UNL     1      -7.072   4.418 125.184  0.00  0.00    +0.000 OA
BRANCH  29  30
ATOM     30  C   UNL     1      -7.437   3.225 124.396  0.00  0.00    +0.000 C 
ATOM     31  C   UNL     1      -8.871   2.681 124.608  0.00  0.00    +0.000 C 
ATOM     32  C   UNL     1      -8.967   1.712 125.776  0.00  0.00    +0.000 C 
ATOM     33  N   UNL     1      -7.773   0.715 125.690  0.00  0.00    +0.000 N 
ATOM     34  C   UNL     1      -6.332   1.131 125.423  0.00  0.00    +0.000 C 
ATOM     35  C   UNL     1      -6.358   2.109 124.262  0.00  0.00    +0.000 C 
BRANCH  33  36
ATOM     36  C   UNL     1      -8.000  -0.545 126.225  0.00  0.00    +0.000 A 
ATOM     37  C   UNL     1      -7.716  -0.909 127.548  0.00  0.00    +0.000 A 
ATOM     38  C   UNL     1      -7.881  -2.235 127.941  0.00  0.00    +0.000 A 
ATOM     39  C   UNL     1      -8.318  -3.185 127.008  0.00  0.00    +0.000 A 
ATOM     40  C   UNL     1      -8.624  -2.845 125.692  0.00  0.00    +0.000 A 
ATOM     41  N   UNL     1      -9.027  -3.768 124.795  0.00  0.00    +0.000 NA
ATOM     42  C   UNL     1      -9.295  -3.365 123.524  0.00  0.00    +0.000 A 
ATOM     43  C   UNL     1      -9.190  -2.077 123.072  0.00  0.00    +0.000 A 
ATOM     44  C   UNL     1      -8.747  -1.166 123.986  0.00  0.00    +0.000 A 
ATOM     45  C   UNL     1      -8.473  -1.512 125.320  0.00  0.00    +0.000 A 
ENDBRANCH  33  36
ENDBRANCH  29  30
ENDBRANCH   3  29
TORSDOF 6
ENDMDL
MODEL 9
REMARK VINA RESULT:      -9.2      3.014      7.872
REMARK  Name = CHEMBL302128
REMARK  7 active torsions:
REMARK  status: ('A' for Active; 'I' for Inactive)
REMARK    1  A    between atoms: C_1  and  O_2
REMARK    2  A    between atoms: O_2  and  C_3
REMARK    3  A    between atoms: C_5  and  O_6
REMARK    4  A    between atoms: O_6  and  C_7
REMARK    5  A    between atoms: N_10  and  C_11
REMARK    6  A    between atoms: C_26  and  C_27
REMARK    7  A    between atoms: C_32  and  N_33
REMARK                            x       y       z     vdW  Elec       q    Type
REMARK                         _______ _______ _______ _____ _____    ______ ____
ROOT
ATOM      1  C   UNL     1      -5.483   3.662 129.361  0.00  0.00    +0.000 A 
ATOM      2  C   UNL     1      -5.847   3.780 130.752  0.00  0.00    +0.000 A 
ATOM      3  C   UNL     1      -7.104   4.186 131.066  0.00  0.00    +0.000 A 
ATOM      4  C   UNL     1      -7.770   4.422 129.918  0.00  0.00    +0.000 A 
ATOM      5  F   UNL     1      -8.947   4.907 129.970  0.00  0.00    +0.000 F 
ATOM      6  C   UNL     1      -7.571   4.337 128.592  0.00  0.00    +0.000 A 
ATOM      7  C   UNL     1      -6.353   3.924 128.269  0.00  0.00    +0.000 A 
ENDROOT
BRANCH   7   8
ATOM      8  C   UNL     1      -6.219   3.908 126.803  0.00  0.00    +0.000 C 
ATOM      9  O   UNL     1      -5.620   4.772 126.166  0.00  0.00    +0.000 OA
ATOM     10  N   UNL     1      -6.768   2.840 126.200  0.00  0.00    +0.000 N 
ATOM     11  C   UNL     1      -5.910   1.954 125.462  0.00  0.00    +0.000 C 
ATOM     12  C   UNL     1      -6.539   1.734 124.113  0.00  0.00    +0.000 C 
ATOM     13  C   UNL     1      -8.002   1.251 124.263  0.00  0.00    +0.000 C 
ATOM     14  C   UNL     1      -8.832   2.248 125.088  0.00  0.00    +0.000 C 
ATOM     15  C   UNL     1      -8.158   2.520 126.390  0.00  0.00    +0.000 C 
BRANCH  13  16
ATOM     16  N   UNL     1      -8.073  -0.187 124.698  0.00  0.00    +0.000 N 
ATOM     17  C   UNL     1      -8.877  -0.673 125.733  0.00  0.00    +0.000 C 
ATOM     18  O   UNL     1     -10.084  -0.586 125.851  0.00  0.00    +0.000 OA
ATOM     19  O   UNL     1      -8.177  -1.335 126.687  0.00  0.00    +0.000 OA
ATOM     20  C   UNL     1      -7.748  -2.571 126.163  0.00  0.00    +0.000 C 
ATOM     21  C   UNL     1      -7.023  -2.360 124.869  0.00  0.00    +0.000 A 
ATOM     22  C   UNL     1      -6.221  -3.382 124.368  0.00  0.00    +0.000 A 
ATOM     23  C   UNL     1      -5.561  -3.205 123.161  0.00  0.00    +0.000 A 
ATOM     24  C   UNL     1      -5.713  -2.017 122.449  0.00  0.00    +0.000 A 
ATOM     25  C   UNL     1      -6.516  -0.990 122.945  0.00  0.00    +0.000 A 
ATOM     26  C   UNL     1      -7.172  -1.149 124.164  0.00  0.00    +0.000 A 
ENDBRANCH  13  16
ENDBRANCH   7   8
BRANCH   1  28
ATOM     27  C   UNL     1      -3.397   4.556 129.158  0.00  0.00    +0.000 C 
ATOM     28  O   UNL     1      -4.179   3.365 129.117  0.00  0.00    +0.000 OA
ENDBRANCH   1  28
BRANCH   3  29
ATOM     29  O   UNL     1      -7.573   4.364 132.331  0.00  0.00    +0.000 OA
BRANCH  29  30
ATOM     30  C   UNL     1      -8.051   3.270 133.199  0.00  0.00    +0.000 C 
ATOM     31  C   UNL     1      -6.958   2.461 133.939  0.00  0.00    +0.000 C 
ATOM     32  C   UNL     1      -6.409   1.313 133.106  0.00  0.00    +0.000 C 
ATOM     33  N   UNL     1      -7.606   0.564 132.449  0.00  0.00    +0.000 N 
ATOM     34  C   UNL     1      -8.767   1.258 131.751  0.00  0.00    +0.000 C 
ATOM     35  C   UNL     1      -9.217   2.393 132.654  0.00  0.00    +0.000 C 
BRANCH  33  36
ATOM     36  C   UNL     1      -7.407  -0.787 132.199  0.00  0.00    +0.000 A 
ATOM     37  C   UNL     1      -7.779  -1.818 133.072  0.00  0.00    +0.000 A 
ATOM     38  C   UNL     1      -7.426  -3.131 132.766  0.00  0.00    +0.000 A 
ATOM     39  C   UNL     1      -6.698  -3.398 131.598  0.00  0.00    +0.000 A 
ATOM     40  C   UNL     1      -6.333  -2.392 130.706  0.00  0.00    +0.000 A 
ATOM     41  N   UNL     1      -5.617  -2.656 129.593  0.00  0.00    +0.000 NA
ATOM     42  C   UNL     1      -5.285  -1.621 128.775  0.00  0.00    +0.000 A 
ATOM     43  C   UNL     1      -5.624  -0.312 128.990  0.00  0.00    +0.000 A 
ATOM     44  C   UNL     1      -6.317  -0.064 130.138  0.00  0.00    +0.000 A 
ATOM     45  C   UNL     1      -6.710  -1.089 131.016  0.00  0.00    +0.000 A 
ENDBRANCH  33  36
ENDBRANCH  29  30
ENDBRANCH   3  29
TORSDOF 6
ENDMDL
