MODEL 1
REMARK VINA RESULT:      -9.7      0.000      0.000
REMARK  Name = CHEMBL378718
REMARK  8 active torsions:
REMARK  status: ('A' for Active; 'I' for Inactive)
REMARK    1  A    between atoms: CD1_1  and  CG_2
REMARK    2  A    between atoms: CG_2  and  CD2_3
REMARK    3  A    between atoms: CG_2  and  CB_4
REMARK    4  A    between atoms: CB_4  and  CA_5
REMARK    5  A    between atoms: C_9  and  C_10
REMARK    6  A    between atoms: N_21  and  C_22
REMARK    7  A    between atoms: C_22  and  C_23
REMARK    8  A    between atoms: C_22  and  C_29
REMARK                            x       y       z     vdW  Elec       q    Type
REMARK                         _______ _______ _______ _____ _____    ______ ____
ROOT
ATOM      1  CA  LEU A   2      -5.416   3.483 127.943  0.00  0.00    +0.000 C 
ATOM      2  C   LEU A   2      -5.866   2.278 128.856  0.00  0.00    +0.000 C 
ATOM      3  O   LEU A   2      -5.255   1.277 129.140  0.00  0.00    +0.000 OA
ATOM      4  N   UNK A   1      -7.083   2.504 129.425  0.00  0.00    +0.000 N 
ATOM      5  C   UNK A   1      -7.718   3.796 129.317  0.00  0.00    +0.000 C 
ATOM      6  C   UNK A   1      -7.749   4.207 127.853  0.00  0.00    +0.000 C 
ATOM      7  O   UNK A   1      -8.687   4.861 127.454  0.00  0.00    +0.000 OA
ATOM      8  N   LEU A   2      -6.632   3.797 127.115  0.00  0.00    +0.000 N 
ATOM      9  H   UNK A   1      -7.379   1.789 130.079  0.00  0.00    +0.000 HD
ENDROOT
BRANCH   5  10
ATOM     10  C   UNK A   1      -9.193   3.773 129.739  0.00  0.00    +0.000 C 
ATOM     11  C   UNK A   1      -9.587   5.120 130.335  0.00  0.00    +0.000 C 
ATOM     12  C   UNK A   1      -9.303   4.876 131.785  0.00  0.00    +0.000 A 
ATOM     13  C   UNK A   1      -9.008   5.822 132.744  0.00  0.00    +0.000 A 
ATOM     14  C   UNK A   1      -8.638   5.377 134.014  0.00  0.00    +0.000 A 
ATOM     15  C   UNK A   1      -8.551   4.004 134.301  0.00  0.00    +0.000 A 
ATOM     16  C   UNK A   1      -8.830   3.052 133.321  0.00  0.00    +0.000 A 
ATOM     17  C   UNK A   1      -9.215   3.504 132.071  0.00  0.00    +0.000 A 
ATOM     18  C   UNK A   1      -9.449   2.694 130.835  0.00  0.00    +0.000 C 
ENDBRANCH   5  10
BRANCH   1  19
ATOM     19  CB  LEU A   2      -4.197   3.070 127.180  0.00  0.00    +0.000 C 
BRANCH  19  21
ATOM     20  CD1 LEU A   2      -1.703   3.057 126.318  0.00  0.00    +0.000 C 
ATOM     21  CG  LEU A   2      -2.702   3.289 127.477  0.00  0.00    +0.000 C 
ATOM     22  CD2 LEU A   2      -2.374   4.703 127.867  0.00  0.00    +0.000 C 
ENDBRANCH  19  21
ENDBRANCH   1  19
BRANCH   8  23
ATOM     23  C   UNK A   0      -6.801   3.482 125.628  0.00  0.00    +0.000 C 
BRANCH  23  24
ATOM     24  C   UNK A   0      -7.209   1.967 125.372  0.00  0.00    +0.000 A 
ATOM     25  C   UNK A   0      -6.261   0.877 125.455  0.00  0.00    +0.000 A 
ATOM     26  C   UNK A   0      -6.577  -0.393 124.943  0.00  0.00    +0.000 A 
ATOM     27  C   UNK A   0      -7.875  -0.632 124.526  0.00  0.00    +0.000 A 
ATOM     28  F   UNK A   0      -8.203  -1.813 123.991  0.00  0.00    +0.000 F 
ATOM     29  C   UNK A   0      -8.841   0.353 124.616  0.00  0.00    +0.000 A 
ATOM     30  C   UNK A   0      -8.495   1.636 124.995  0.00  0.00    +0.000 A 
ATOM     31  F   UNK A   0      -9.449   2.555 124.894  0.00  0.00    +0.000 F 
ENDBRANCH  23  24
BRANCH  23  32
ATOM     32  C   UNK A   0      -6.181   4.427 124.244  0.00  0.00    +0.000 C 
ATOM     33  O   UNK A   0      -5.753   5.575 124.454  0.00  0.00    +0.000 OA
ATOM     34  N   UNK A   0      -5.832   3.968 122.948  0.00  0.00    +0.000 N 
ATOM     35  C   UNK A   0      -4.866   4.548 121.985  0.00  0.00    +0.000 C 
ATOM     36  C   UNK A   0      -5.736   3.952 120.867  0.00  0.00    +0.000 C 
ATOM     37  C   UNK A   0      -6.291   3.037 121.898  0.00  0.00    +0.000 C 
ENDBRANCH  23  32
ENDBRANCH   8  23
TORSDOF 6
ENDMDL
MODEL 2
REMARK VINA RESULT:      -9.7      4.930      8.311
REMARK  Name = CHEMBL378718
REMARK  8 active torsions:
REMARK  status: ('A' for Active; 'I' for Inactive)
REMARK    1  A    between atoms: CD1_1  and  CG_2
REMARK    2  A    between atoms: CG_2  and  CD2_3
REMARK    3  A    between atoms: CG_2  and  CB_4
REMARK    4  A    between atoms: CB_4  and  CA_5
REMARK    5  A    between atoms: C_9  and  C_10
REMARK    6  A    between atoms: N_21  and  C_22
REMARK    7  A    between atoms: C_22  and  C_23
REMARK    8  A    between atoms: C_22  and  C_29
REMARK                            x       y       z     vdW  Elec       q    Type
REMARK                         _______ _______ _______ _____ _____    ______ ____
ROOT
ATOM      1  CA  LEU A   2      -8.737   3.412 130.827  0.00  0.00    +0.000 C 
ATOM      2  C   LEU A   2      -8.705   4.144 129.430  0.00  0.00    +0.000 C 
ATOM      3  O   LEU A   2      -8.232   3.762 128.387  0.00  0.00    +0.000 OA
ATOM      4  N   UNK A   1      -9.387   5.324 129.464  0.00  0.00    +0.000 N 
ATOM      5  C   UNK A   1     -10.181   5.683 130.614  0.00  0.00    +0.000 C 
ATOM      6  C   UNK A   1      -9.326   5.545 131.864  0.00  0.00    +0.000 C 
ATOM      7  O   UNK A   1      -9.517   6.311 132.784  0.00  0.00    +0.000 OA
ATOM      8  N   LEU A   2      -8.406   4.491 131.820  0.00  0.00    +0.000 N 
ATOM      9  H   UNK A   1      -9.457   5.794 128.568  0.00  0.00    +0.000 HD
ENDROOT
BRANCH   5  10
ATOM     10  C   UNK A   1     -10.614   7.155 130.606  0.00  0.00    +0.000 C 
ATOM     11  C   UNK A   1     -12.132   7.254 130.501  0.00  0.00    +0.000 C 
ATOM     12  C   UNK A   1     -12.304   7.330 129.016  0.00  0.00    +0.000 A 
ATOM     13  C   UNK A   1     -13.417   6.964 128.289  0.00  0.00    +0.000 A 
ATOM     14  C   UNK A   1     -13.327   6.983 126.896  0.00  0.00    +0.000 A 
ATOM     15  C   UNK A   1     -12.131   7.347 126.254  0.00  0.00    +0.000 A 
ATOM     16  C   UNK A   1     -11.002   7.695 126.995  0.00  0.00    +0.000 A 
ATOM     17  C   UNK A   1     -11.108   7.692 128.375  0.00  0.00    +0.000 A 
ATOM     18  C   UNK A   1     -10.019   7.910 129.378  0.00  0.00    +0.000 C 
ENDBRANCH   5  10
BRANCH   1  19
ATOM     19  CB  LEU A   2      -7.788   2.257 130.777  0.00  0.00    +0.000 C 
BRANCH  19  21
ATOM     20  CD1 LEU A   2      -9.329   0.384 131.815  0.00  0.00    +0.000 C 
ATOM     21  CG  LEU A   2      -7.961   0.792 131.218  0.00  0.00    +0.000 C 
ATOM     22  CD2 LEU A   2      -7.831  -0.189 130.087  0.00  0.00    +0.000 C 
ENDBRANCH  19  21
ENDBRANCH   1  19
BRANCH   8  23
ATOM     23  C   UNK A   0      -7.081   4.632 132.571  0.00  0.00    +0.000 C 
BRANCH  23  24
ATOM     24  C   UNK A   0      -5.898   5.118 131.627  0.00  0.00    +0.000 A 
ATOM     25  C   UNK A   0      -4.787   4.266 131.263  0.00  0.00    +0.000 A 
ATOM     26  C   UNK A   0      -3.627   4.805 130.681  0.00  0.00    +0.000 A 
ATOM     27  C   UNK A   0      -3.640   6.134 130.291  0.00  0.00    +0.000 A 
ATOM     28  F   UNK A   0      -2.541   6.694 129.775  0.00  0.00    +0.000 F 
ATOM     29  C   UNK A   0      -4.769   6.912 130.466  0.00  0.00    +0.000 A 
ATOM     30  C   UNK A   0      -5.858   6.416 131.158  0.00  0.00    +0.000 A 
ATOM     31  F   UNK A   0      -6.828   7.283 131.423  0.00  0.00    +0.000 F 
ENDBRANCH  23  24
BRANCH  23  32
ATOM     32  C   UNK A   0      -6.651   3.916 134.151  0.00  0.00    +0.000 C 
ATOM     33  O   UNK A   0      -6.606   2.678 134.249  0.00  0.00    +0.000 OA
ATOM     34  N   UNK A   0      -6.067   4.551 135.277  0.00  0.00    +0.000 N 
ATOM     35  C   UNK A   0      -5.237   3.958 136.352  0.00  0.00    +0.000 C 
ATOM     36  C   UNK A   0      -5.785   5.054 137.279  0.00  0.00    +0.000 C 
ATOM     37  C   UNK A   0      -6.132   5.809 136.047  0.00  0.00    +0.000 C 
ENDBRANCH  23  32
ENDBRANCH   8  23
TORSDOF 6
ENDMDL
MODEL 3
REMARK VINA RESULT:      -9.7      4.561      7.573
REMARK  Name = CHEMBL378718
REMARK  8 active torsions:
REMARK  status: ('A' for Active; 'I' for Inactive)
REMARK    1  A    between atoms: CD1_1  and  CG_2
REMARK    2  A    between atoms: CG_2  and  CD2_3
REMARK    3  A    between atoms: CG_2  and  CB_4
REMARK    4  A    between atoms: CB_4  and  CA_5
REMARK    5  A    between atoms: C_9  and  C_10
REMARK    6  A    between atoms: N_21  and  C_22
REMARK    7  A    between atoms: C_22  and  C_23
REMARK    8  A    between atoms: C_22  and  C_29
REMARK                            x       y       z     vdW  Elec       q    Type
REMARK                         _______ _______ _______ _____ _____    ______ ____
ROOT
ATOM      1  CA  LEU A   2      -8.770   2.650 130.588  0.00  0.00    +0.000 C 
ATOM      2  C   LEU A   2      -8.793   3.580 129.315  0.00  0.00    +0.000 C 
ATOM      3  O   LEU A   2      -8.460   3.321 128.183  0.00  0.00    +0.000 OA
ATOM      4  N   UNK A   1      -9.344   4.796 129.588  0.00  0.00    +0.000 N 
ATOM      5  C   UNK A   1      -9.987   5.045 130.856  0.00  0.00    +0.000 C 
ATOM      6  C   UNK A   1      -9.038   4.644 131.975  0.00  0.00    +0.000 C 
ATOM      7  O   UNK A   1      -9.063   5.275 133.009  0.00  0.00    +0.000 OA
ATOM      8  N   LEU A   2      -8.239   3.532 131.684  0.00  0.00    +0.000 N 
ATOM      9  H   UNK A   1      -9.447   5.401 128.782  0.00  0.00    +0.000 HD
ENDROOT
BRANCH   5  10
ATOM     10  C   UNK A   1     -10.265   6.533 131.104  0.00  0.00    +0.000 C 
ATOM     11  C   UNK A   1     -11.768   6.783 131.159  0.00  0.00    +0.000 C 
ATOM     12  C   UNK A   1     -12.050   7.103 129.724  0.00  0.00    +0.000 A 
ATOM     13  C   UNK A   1     -13.249   6.955 129.060  0.00  0.00    +0.000 A 
ATOM     14  C   UNK A   1     -13.270   7.180 127.683  0.00  0.00    +0.000 A 
ATOM     15  C   UNK A   1     -12.098   7.530 126.991  0.00  0.00    +0.000 A 
ATOM     16  C   UNK A   1     -10.883   7.657 127.663  0.00  0.00    +0.000 A 
ATOM     17  C   UNK A   1     -10.878   7.451 129.032  0.00  0.00    +0.000 A 
ATOM     18  C   UNK A   1      -9.696   7.412 129.949  0.00  0.00    +0.000 C 
ENDBRANCH   5  10
BRANCH   1  19
ATOM     19  CB  LEU A   2      -7.953   1.437 130.273  0.00  0.00    +0.000 C 
BRANCH  19  21
ATOM     20  CD1 LEU A   2      -7.071  -1.050 130.279  0.00  0.00    +0.000 C 
ATOM     21  CG  LEU A   2      -8.232  -0.057 130.524  0.00  0.00    +0.000 C 
ATOM     22  CD2 LEU A   2      -8.583  -0.364 131.953  0.00  0.00    +0.000 C 
ENDBRANCH  19  21
ENDBRANCH   1  19
BRANCH   8  23
ATOM     23  C   UNK A   0      -6.842   3.440 132.301  0.00  0.00    +0.000 C 
BRANCH  23  24
ATOM     24  C   UNK A   0      -5.839   4.511 131.690  0.00  0.00    +0.000 A 
ATOM     25  C   UNK A   0      -5.565   5.780 132.329  0.00  0.00    +0.000 A 
ATOM     26  C   UNK A   0      -4.916   6.812 131.631  0.00  0.00    +0.000 A 
ATOM     27  C   UNK A   0      -4.378   6.531 130.386  0.00  0.00    +0.000 A 
ATOM     28  F   UNK A   0      -3.792   7.499 129.672  0.00  0.00    +0.000 F 
ATOM     29  C   UNK A   0      -4.473   5.263 129.844  0.00  0.00    +0.000 A 
ATOM     30  C   UNK A   0      -5.226   4.290 130.473  0.00  0.00    +0.000 A 
ATOM     31  F   UNK A   0      -5.399   3.157 129.802  0.00  0.00    +0.000 F 
ENDBRANCH  23  24
BRANCH  23  32
ATOM     32  C   UNK A   0      -6.151   2.068 133.212  0.00  0.00    +0.000 C 
ATOM     33  O   UNK A   0      -6.672   1.751 134.295  0.00  0.00    +0.000 OA
ATOM     34  N   UNK A   0      -5.244   1.076 132.758  0.00  0.00    +0.000 N 
ATOM     35  C   UNK A   0      -5.058  -0.309 133.253  0.00  0.00    +0.000 C 
ATOM     36  C   UNK A   0      -3.594  -0.195 132.799  0.00  0.00    +0.000 C 
ATOM     37  C   UNK A   0      -4.037   0.920 131.923  0.00  0.00    +0.000 C 
ENDBRANCH  23  32
ENDBRANCH   8  23
TORSDOF 6
ENDMDL
MODEL 4
REMARK VINA RESULT:      -9.5      3.790      6.385
REMARK  Name = CHEMBL378718
REMARK  8 active torsions:
REMARK  status: ('A' for Active; 'I' for Inactive)
REMARK    1  A    between atoms: CD1_1  and  CG_2
REMARK    2  A    between atoms: CG_2  and  CD2_3
REMARK    3  A    between atoms: CG_2  and  CB_4
REMARK    4  A    between atoms: CB_4  and  CA_5
REMARK    5  A    between atoms: C_9  and  C_10
REMARK    6  A    between atoms: N_21  and  C_22
REMARK    7  A    between atoms: C_22  and  C_23
REMARK    8  A    between atoms: C_22  and  C_29
REMARK                            x       y       z     vdW  Elec       q    Type
REMARK                         _______ _______ _______ _____ _____    ______ ____
ROOT
ATOM      1  CA  LEU A   2      -6.774   6.294 131.138  0.00  0.00    +0.000 C 
ATOM      2  C   LEU A   2      -7.904   6.113 132.222  0.00  0.00    +0.000 C 
ATOM      3  O   LEU A   2      -7.811   6.157 133.425  0.00  0.00    +0.000 OA
ATOM      4  N   UNK A   1      -9.133   5.970 131.651  0.00  0.00    +0.000 N 
ATOM      5  C   UNK A   1      -9.314   6.175 130.234  0.00  0.00    +0.000 C 
ATOM      6  C   UNK A   1      -8.293   5.336 129.481  0.00  0.00    +0.000 C 
ATOM      7  O   UNK A   1      -8.605   4.872 128.406  0.00  0.00    +0.000 OA
ATOM      8  N   LEU A   2      -7.055   5.220 130.124  0.00  0.00    +0.000 N 
ATOM      9  H   UNK A   1      -9.900   5.926 132.311  0.00  0.00    +0.000 HD
ENDROOT
BRANCH   5  10
ATOM     10  C   UNK A   1     -10.672   5.673 129.726  0.00  0.00    +0.000 C 
ATOM     11  C   UNK A   1     -11.126   6.507 128.533  0.00  0.00    +0.000 C 
ATOM     12  C   UNK A   1     -11.924   7.570 129.223  0.00  0.00    +0.000 A 
ATOM     13  C   UNK A   1     -12.184   8.843 128.763  0.00  0.00    +0.000 A 
ATOM     14  C   UNK A   1     -12.834   9.731 129.621  0.00  0.00    +0.000 A 
ATOM     15  C   UNK A   1     -13.195   9.344 130.923  0.00  0.00    +0.000 A 
ATOM     16  C   UNK A   1     -12.909   8.062 131.391  0.00  0.00    +0.000 A 
ATOM     17  C   UNK A   1     -12.282   7.183 130.525  0.00  0.00    +0.000 A 
ATOM     18  C   UNK A   1     -11.770   5.810 130.825  0.00  0.00    +0.000 C 
ENDBRANCH   5  10
BRANCH   1  19
ATOM     19  CB  LEU A   2      -5.445   6.214 131.821  0.00  0.00    +0.000 C 
BRANCH  19  21
ATOM     20  CD1 LEU A   2      -2.819   6.408 131.999  0.00  0.00    +0.000 C 
ATOM     21  CG  LEU A   2      -4.175   7.070 131.657  0.00  0.00    +0.000 C 
ATOM     22  CD2 LEU A   2      -3.936   7.512 130.240  0.00  0.00    +0.000 C 
ENDBRANCH  19  21
ENDBRANCH   1  19
BRANCH   8  23
ATOM     23  C   UNK A   0      -6.237   3.942 129.932  0.00  0.00    +0.000 C 
BRANCH  23  24
ATOM     24  C   UNK A   0      -5.115   4.103 128.818  0.00  0.00    +0.000 A 
ATOM     25  C   UNK A   0      -5.424   4.346 127.425  0.00  0.00    +0.000 A 
ATOM     26  C   UNK A   0      -4.443   4.191 126.432  0.00  0.00    +0.000 A 
ATOM     27  C   UNK A   0      -3.132   3.982 126.826  0.00  0.00    +0.000 A 
ATOM     28  F   UNK A   0      -2.178   3.784 125.909  0.00  0.00    +0.000 F 
ATOM     29  C   UNK A   0      -2.794   3.933 128.165  0.00  0.00    +0.000 A 
ATOM     30  C   UNK A   0      -3.780   3.952 129.134  0.00  0.00    +0.000 A 
ATOM     31  F   UNK A   0      -3.380   3.734 130.381  0.00  0.00    +0.000 F 
ENDBRANCH  23  24
BRANCH  23  32
ATOM     32  C   UNK A   0      -6.679   2.288 130.443  0.00  0.00    +0.000 C 
ATOM     33  O   UNK A   0      -5.830   1.387 130.336  0.00  0.00    +0.000 OA
ATOM     34  N   UNK A   0      -7.784   1.874 131.232  0.00  0.00    +0.000 N 
ATOM     35  C   UNK A   0      -7.913   0.677 132.095  0.00  0.00    +0.000 C 
ATOM     36  C   UNK A   0      -9.422   0.722 131.805  0.00  0.00    +0.000 C 
ATOM     37  C   UNK A   0      -9.223   2.144 131.421  0.00  0.00    +0.000 C 
ENDBRANCH  23  32
ENDBRANCH   8  23
TORSDOF 6
ENDMDL
MODEL 5
REMARK VINA RESULT:      -9.5      2.155      3.778
REMARK  Name = CHEMBL378718
REMARK  8 active torsions:
REMARK  status: ('A' for Active; 'I' for Inactive)
REMARK    1  A    between atoms: CD1_1  and  CG_2
REMARK    2  A    between atoms: CG_2  and  CD2_3
REMARK    3  A    between atoms: CG_2  and  CB_4
REMARK    4  A    between atoms: CB_4  and  CA_5
REMARK    5  A    between atoms: C_9  and  C_10
REMARK    6  A    between atoms: N_21  and  C_22
REMARK    7  A    between atoms: C_22  and  C_23
REMARK    8  A    between atoms: C_22  and  C_29
REMARK                            x       y       z     vdW  Elec       q    Type
REMARK                         _______ _______ _______ _____ _____    ______ ____
ROOT
ATOM      1  CA  LEU A   2      -5.777   2.231 128.228  0.00  0.00    +0.000 C 
ATOM      2  C   LEU A   2      -5.598   1.607 129.665  0.00  0.00    +0.000 C 
ATOM      3  O   LEU A   2      -4.611   1.117 130.158  0.00  0.00    +0.000 OA
ATOM      4  N   UNK A   1      -6.725   1.745 130.418  0.00  0.00    +0.000 N 
ATOM      5  C   UNK A   1      -7.827   2.553 129.955  0.00  0.00    +0.000 C 
ATOM      6  C   UNK A   1      -8.198   2.117 128.546  0.00  0.00    +0.000 C 
ATOM      7  O   UNK A   1      -9.360   2.175 128.209  0.00  0.00    +0.000 OA
ATOM      8  N   LEU A   2      -7.110   1.714 127.761  0.00  0.00    +0.000 N 
ATOM      9  H   UNK A   1      -6.631   1.425 131.376  0.00  0.00    +0.000 HD
ENDROOT
BRANCH   5  10
ATOM     10  C   UNK A   1      -9.108   2.343 130.771  0.00  0.00    +0.000 C 
ATOM     11  C   UNK A   1      -9.848   3.666 130.936  0.00  0.00    +0.000 C 
ATOM     12  C   UNK A   1      -9.262   4.153 132.225  0.00  0.00    +0.000 A 
ATOM     13  C   UNK A   1      -9.165   5.461 132.651  0.00  0.00    +0.000 A 
ATOM     14  C   UNK A   1      -8.458   5.718 133.827  0.00  0.00    +0.000 A 
ATOM     15  C   UNK A   1      -7.848   4.676 134.545  0.00  0.00    +0.000 A 
ATOM     16  C   UNK A   1      -7.930   3.358 134.098  0.00  0.00    +0.000 A 
ATOM     17  C   UNK A   1      -8.650   3.112 132.942  0.00  0.00    +0.000 A 
ATOM     18  C   UNK A   1      -8.784   1.817 132.203  0.00  0.00    +0.000 C 
ENDBRANCH   5  10
BRANCH   1  19
ATOM     19  CB  LEU A   2      -4.599   1.841 127.392  0.00  0.00    +0.000 C 
BRANCH  19  21
ATOM     20  CD1 LEU A   2      -4.253   4.036 125.968  0.00  0.00    +0.000 C 
ATOM     21  CG  LEU A   2      -3.695   2.683 126.472  0.00  0.00    +0.000 C 
ATOM     22  CD2 LEU A   2      -2.417   3.121 127.131  0.00  0.00    +0.000 C 
ENDBRANCH  19  21
ENDBRANCH   1  19
BRANCH   8  23
ATOM     23  C   UNK A   0      -7.324   0.640 126.694  0.00  0.00    +0.000 C 
BRANCH  23  24
ATOM     24  C   UNK A   0      -7.701   1.258 125.279  0.00  0.00    +0.000 A 
ATOM     25  C   UNK A   0      -6.717   1.837 124.391  0.00  0.00    +0.000 A 
ATOM     26  C   UNK A   0      -7.110   2.629 123.299  0.00  0.00    +0.000 A 
ATOM     27  C   UNK A   0      -8.456   2.692 122.979  0.00  0.00    +0.000 A 
ATOM     28  F   UNK A   0      -8.873   3.471 121.975  0.00  0.00    +0.000 F 
ATOM     29  C   UNK A   0      -9.392   1.988 123.714  0.00  0.00    +0.000 A 
ATOM     30  C   UNK A   0      -9.016   1.321 124.864  0.00  0.00    +0.000 A 
ATOM     31  F   UNK A   0     -10.002   0.813 125.596  0.00  0.00    +0.000 F 
ENDBRANCH  23  24
BRANCH  23  32
ATOM     32  C   UNK A   0      -7.634  -1.100 126.957  0.00  0.00    +0.000 C 
ATOM     33  O   UNK A   0      -7.672  -1.526 128.124  0.00  0.00    +0.000 OA
ATOM     34  N   UNK A   0      -8.132  -2.057 126.035  0.00  0.00    +0.000 N 
ATOM     35  C   UNK A   0      -8.879  -3.308 126.306  0.00  0.00    +0.000 C 
ATOM     36  C   UNK A   0      -8.262  -3.868 125.015  0.00  0.00    +0.000 C 
ATOM     37  C   UNK A   0      -8.009  -2.458 124.620  0.00  0.00    +0.000 C 
ENDBRANCH  23  32
ENDBRANCH   8  23
TORSDOF 6
ENDMDL
MODEL 6
REMARK VINA RESULT:      -9.3      3.308      7.792
REMARK  Name = CHEMBL378718
REMARK  8 active torsions:
REMARK  status: ('A' for Active; 'I' for Inactive)
REMARK    1  A    between atoms: CD1_1  and  CG_2
REMARK    2  A    between atoms: CG_2  and  CD2_3
REMARK    3  A    between atoms: CG_2  and  CB_4
REMARK    4  A    between atoms: CB_4  and  CA_5
REMARK    5  A    between atoms: C_9  and  C_10
REMARK    6  A    between atoms: N_21  and  C_22
REMARK    7  A    between atoms: C_22  and  C_23
REMARK    8  A    between atoms: C_22  and  C_29
REMARK                            x       y       z     vdW  Elec       q    Type
REMARK                         _______ _______ _______ _____ _____    ______ ____
ROOT
ATOM      1  CA  LEU A   2      -6.159   3.933 128.554  0.00  0.00    +0.000 C 
ATOM      2  C   LEU A   2      -6.257   4.200 127.003  0.00  0.00    +0.000 C 
ATOM      3  O   LEU A   2      -5.626   4.978 126.328  0.00  0.00    +0.000 OA
ATOM      4  N   UNK A   1      -7.135   3.350 126.400  0.00  0.00    +0.000 N 
ATOM      5  C   UNK A   1      -7.705   2.242 127.128  0.00  0.00    +0.000 C 
ATOM      6  C   UNK A   1      -8.301   2.762 128.427  0.00  0.00    +0.000 C 
ATOM      7  O   UNK A   1      -9.292   2.222 128.867  0.00  0.00    +0.000 OA
ATOM      8  N   LEU A   2      -7.590   3.822 129.004  0.00  0.00    +0.000 N 
ATOM      9  H   UNK A   1      -7.175   3.434 125.390  0.00  0.00    +0.000 HD
ENDROOT
BRANCH   5  10
ATOM     10  C   UNK A   1      -8.888   1.592 126.398  0.00  0.00    +0.000 C 
ATOM     11  C   UNK A   1      -8.899   0.089 126.652  0.00  0.00    +0.000 C 
ATOM     12  C   UNK A   1      -8.085  -0.395 125.491  0.00  0.00    +0.000 A 
ATOM     13  C   UNK A   1      -7.355  -1.562 125.418  0.00  0.00    +0.000 A 
ATOM     14  C   UNK A   1      -6.551  -1.765 124.296  0.00  0.00    +0.000 A 
ATOM     15  C   UNK A   1      -6.474  -0.798 123.278  0.00  0.00    +0.000 A 
ATOM     16  C   UNK A   1      -7.197   0.390 123.368  0.00  0.00    +0.000 A 
ATOM     17  C   UNK A   1      -8.007   0.573 124.476  0.00  0.00    +0.000 A 
ATOM     18  C   UNK A   1      -8.779   1.796 124.856  0.00  0.00    +0.000 C 
ENDBRANCH   5  10
BRANCH   1  19
ATOM     19  CB  LEU A   2      -5.365   5.039 129.175  0.00  0.00    +0.000 C 
BRANCH  19  21
ATOM     20  CD1 LEU A   2      -4.089   6.268 131.131  0.00  0.00    +0.000 C 
ATOM     21  CG  LEU A   2      -4.265   5.006 130.253  0.00  0.00    +0.000 C 
ATOM     22  CD2 LEU A   2      -4.490   3.950 131.299  0.00  0.00    +0.000 C 
ENDBRANCH  19  21
ENDBRANCH   1  19
BRANCH   8  23
ATOM     23  C   UNK A   0      -8.352   4.872 129.813  0.00  0.00    +0.000 C 
BRANCH  23  24
ATOM     24  C   UNK A   0      -8.128   4.710 131.378  0.00  0.00    +0.000 A 
ATOM     25  C   UNK A   0      -8.456   3.497 132.095  0.00  0.00    +0.000 A 
ATOM     26  C   UNK A   0      -8.524   3.485 133.498  0.00  0.00    +0.000 A 
ATOM     27  C   UNK A   0      -8.091   4.604 134.190  0.00  0.00    +0.000 A 
ATOM     28  F   UNK A   0      -8.183   4.648 135.523  0.00  0.00    +0.000 F 
ATOM     29  C   UNK A   0      -7.599   5.706 133.516  0.00  0.00    +0.000 A 
ATOM     30  C   UNK A   0      -7.658   5.764 132.136  0.00  0.00    +0.000 A 
ATOM     31  F   UNK A   0      -7.318   6.923 131.583  0.00  0.00    +0.000 F 
ENDBRANCH  23  24
BRANCH  23  32
ATOM     32  C   UNK A   0      -9.724   5.876 129.263  0.00  0.00    +0.000 C 
ATOM     33  O   UNK A   0      -9.755   6.239 128.075  0.00  0.00    +0.000 OA
ATOM     34  N   UNK A   0     -10.965   6.106 129.913  0.00  0.00    +0.000 N 
ATOM     35  C   UNK A   0     -12.275   6.459 129.316  0.00  0.00    +0.000 C 
ATOM     36  C   UNK A   0     -12.595   7.184 130.633  0.00  0.00    +0.000 C 
ATOM     37  C   UNK A   0     -11.528   6.356 131.254  0.00  0.00    +0.000 C 
ENDBRANCH  23  32
ENDBRANCH   8  23
TORSDOF 6
ENDMDL
MODEL 7
REMARK VINA RESULT:      -9.3      2.929      7.469
REMARK  Name = CHEMBL378718
REMARK  8 active torsions:
REMARK  status: ('A' for Active; 'I' for Inactive)
REMARK    1  A    between atoms: CD1_1  and  CG_2
REMARK    2  A    between atoms: CG_2  and  CD2_3
REMARK    3  A    between atoms: CG_2  and  CB_4
REMARK    4  A    between atoms: CB_4  and  CA_5
REMARK    5  A    between atoms: C_9  and  C_10
REMARK    6  A    between atoms: N_21  and  C_22
REMARK    7  A    between atoms: C_22  and  C_23
REMARK    8  A    between atoms: C_22  and  C_29
REMARK                            x       y       z     vdW  Elec       q    Type
REMARK                         _______ _______ _______ _____ _____    ______ ____
ROOT
ATOM      1  CA  LEU A   2      -8.076   1.380 129.019  0.00  0.00    +0.000 C 
ATOM      2  C   LEU A   2      -7.157   0.222 128.469  0.00  0.00    +0.000 C 
ATOM      3  O   LEU A   2      -6.470  -0.556 129.086  0.00  0.00    +0.000 OA
ATOM      4  N   UNK A   1      -7.263   0.093 127.117  0.00  0.00    +0.000 N 
ATOM      5  C   UNK A   1      -8.267   0.827 126.383  0.00  0.00    +0.000 C 
ATOM      6  C   UNK A   1      -8.169   2.298 126.756  0.00  0.00    +0.000 C 
ATOM      7  O   UNK A   1      -8.424   3.128 125.910  0.00  0.00    +0.000 OA
ATOM      8  N   LEU A   2      -7.816   2.534 128.090  0.00  0.00    +0.000 N 
ATOM      9  H   UNK A   1      -6.747  -0.688 126.728  0.00  0.00    +0.000 HD
ENDROOT
BRANCH   5  10
ATOM     10  C   UNK A   1      -8.038   0.800 124.867  0.00  0.00    +0.000 C 
ATOM     11  C   UNK A   1      -9.157   0.020 124.183  0.00  0.00    +0.000 C 
ATOM     12  C   UNK A   1      -8.566  -1.356 124.165  0.00  0.00    +0.000 A 
ATOM     13  C   UNK A   1      -9.249  -2.552 124.118  0.00  0.00    +0.000 A 
ATOM     14  C   UNK A   1      -8.517  -3.733 124.249  0.00  0.00    +0.000 A 
ATOM     15  C   UNK A   1      -7.125  -3.701 124.442  0.00  0.00    +0.000 A 
ATOM     16  C   UNK A   1      -6.442  -2.488 124.511  0.00  0.00    +0.000 A 
ATOM     17  C   UNK A   1      -7.175  -1.324 124.360  0.00  0.00    +0.000 A 
ATOM     18  C   UNK A   1      -6.699   0.086 124.512  0.00  0.00    +0.000 C 
ENDBRANCH   5  10
BRANCH   1  19
ATOM     19  CB  LEU A   2      -7.735   1.611 130.457  0.00  0.00    +0.000 C 
BRANCH  19  21
ATOM     20  CD1 LEU A   2      -9.905   1.738 131.953  0.00  0.00    +0.000 C 
ATOM     21  CG  LEU A   2      -8.471   1.196 131.745  0.00  0.00    +0.000 C 
ATOM     22  CD2 LEU A   2      -8.701  -0.286 131.847  0.00  0.00    +0.000 C 
ENDBRANCH  19  21
ENDBRANCH   1  19
BRANCH   8  23
ATOM     23  C   UNK A   0      -7.011   3.788 128.433  0.00  0.00    +0.000 C 
BRANCH  23  24
ATOM     24  C   UNK A   0      -5.519   3.718 127.890  0.00  0.00    +0.000 A 
ATOM     25  C   UNK A   0      -5.126   4.270 126.611  0.00  0.00    +0.000 A 
ATOM     26  C   UNK A   0      -3.889   3.939 126.034  0.00  0.00    +0.000 A 
ATOM     27  C   UNK A   0      -2.976   3.225 126.792  0.00  0.00    +0.000 A 
ATOM     28  F   UNK A   0      -1.806   2.852 126.262  0.00  0.00    +0.000 F 
ATOM     29  C   UNK A   0      -3.273   2.851 128.090  0.00  0.00    +0.000 A 
ATOM     30  C   UNK A   0      -4.537   3.062 128.605  0.00  0.00    +0.000 A 
ATOM     31  F   UNK A   0      -4.784   2.524 129.794  0.00  0.00    +0.000 F 
ENDBRANCH  23  24
BRANCH  23  32
ATOM     32  C   UNK A   0      -7.392   5.010 129.680  0.00  0.00    +0.000 C 
ATOM     33  O   UNK A   0      -6.473   5.731 130.105  0.00  0.00    +0.000 OA
ATOM     34  N   UNK A   0      -8.664   5.493 130.081  0.00  0.00    +0.000 N 
ATOM     35  C   UNK A   0      -9.014   6.803 130.680  0.00  0.00    +0.000 C 
ATOM     36  C   UNK A   0     -10.182   6.089 131.379  0.00  0.00    +0.000 C 
ATOM     37  C   UNK A   0     -10.037   5.023 130.353  0.00  0.00    +0.000 C 
ENDBRANCH  23  32
ENDBRANCH   8  23
TORSDOF 6
ENDMDL
MODEL 8
REMARK VINA RESULT:      -9.2      3.766      7.044
REMARK  Name = CHEMBL378718
REMARK  8 active torsions:
REMARK  status: ('A' for Active; 'I' for Inactive)
REMARK    1  A    between atoms: CD1_1  and  CG_2
REMARK    2  A    between atoms: CG_2  and  CD2_3
REMARK    3  A    between atoms: CG_2  and  CB_4
REMARK    4  A    between atoms: CB_4  and  CA_5
REMARK    5  A    between atoms: C_9  and  C_10
REMARK    6  A    between atoms: N_21  and  C_22
REMARK    7  A    between atoms: C_22  and  C_23
REMARK    8  A    between atoms: C_22  and  C_29
REMARK                            x       y       z     vdW  Elec       q    Type
REMARK                         _______ _______ _______ _____ _____    ______ ____
ROOT
ATOM      1  CA  LEU A   2      -8.199   2.619 128.887  0.00  0.00    +0.000 C 
ATOM      2  C   LEU A   2      -7.999   4.049 128.252  0.00  0.00    +0.000 C 
ATOM      3  O   LEU A   2      -7.468   4.345 127.209  0.00  0.00    +0.000 OA
ATOM      4  N   UNK A   1      -8.598   5.019 128.998  0.00  0.00    +0.000 N 
ATOM      5  C   UNK A   1      -9.459   4.673 130.103  0.00  0.00    +0.000 C 
ATOM      6  C   UNK A   1      -8.723   3.702 131.014  0.00  0.00    +0.000 C 
ATOM      7  O   UNK A   1      -8.937   3.751 132.206  0.00  0.00    +0.000 OA
ATOM      8  N   LEU A   2      -7.878   2.810 130.344  0.00  0.00    +0.000 N 
ATOM      9  H   UNK A   1      -8.559   5.946 128.590  0.00  0.00    +0.000 HD
ENDROOT
BRANCH   5  10
ATOM     10  C   UNK A   1      -9.786   5.871 131.005  0.00  0.00    +0.000 C 
ATOM     11  C   UNK A   1     -11.289   5.947 131.249  0.00  0.00    +0.000 C 
ATOM     12  C   UNK A   1     -11.709   6.844 130.126  0.00  0.00    +0.000 A 
ATOM     13  C   UNK A   1     -12.953   6.907 129.534  0.00  0.00    +0.000 A 
ATOM     14  C   UNK A   1     -13.103   7.715 128.406  0.00  0.00    +0.000 A 
ATOM     15  C   UNK A   1     -12.013   8.429 127.879  0.00  0.00    +0.000 A 
ATOM     16  C   UNK A   1     -10.753   8.344 128.469  0.00  0.00    +0.000 A 
ATOM     17  C   UNK A   1     -10.619   7.556 129.598  0.00  0.00    +0.000 A 
ATOM     18  C   UNK A   1      -9.362   7.213 130.334  0.00  0.00    +0.000 C 
ENDBRANCH   5  10
BRANCH   1  19
ATOM     19  CB  LEU A   2      -7.331   1.648 128.150  0.00  0.00    +0.000 C 
BRANCH  19  21
ATOM     20  CD1 LEU A   2      -9.013   0.918 126.252  0.00  0.00    +0.000 C 
ATOM     21  CG  LEU A   2      -7.609   0.804 126.891  0.00  0.00    +0.000 C 
ATOM     22  CD2 LEU A   2      -6.727   1.163 125.728  0.00  0.00    +0.000 C 
ENDBRANCH  19  21
ENDBRANCH   1  19
BRANCH   8  23
ATOM     23  C   UNK A   0      -6.614   2.315 131.048  0.00  0.00    +0.000 C 
BRANCH  23  24
ATOM     24  C   UNK A   0      -5.414   3.351 130.939  0.00  0.00    +0.000 A 
ATOM     25  C   UNK A   0      -4.605   3.489 129.748  0.00  0.00    +0.000 A 
ATOM     26  C   UNK A   0      -3.387   4.189 129.782  0.00  0.00    +0.000 A 
ATOM     27  C   UNK A   0      -3.066   4.901 130.926  0.00  0.00    +0.000 A 
ATOM     28  F   UNK A   0      -1.895   5.542 131.013  0.00  0.00    +0.000 F 
ATOM     29  C   UNK A   0      -3.926   4.927 132.008  0.00  0.00    +0.000 A 
ATOM     30  C   UNK A   0      -5.056   4.131 132.020  0.00  0.00    +0.000 A 
ATOM     31  F   UNK A   0      -5.733   4.093 133.162  0.00  0.00    +0.000 F 
ENDBRANCH  23  24
BRANCH  23  32
ATOM     32  C   UNK A   0      -6.231   0.637 131.529  0.00  0.00    +0.000 C 
ATOM     33  O   UNK A   0      -5.302   0.448 132.332  0.00  0.00    +0.000 OA
ATOM     34  N   UNK A   0      -7.014  -0.533 131.349  0.00  0.00    +0.000 N 
ATOM     35  C   UNK A   0      -7.013  -1.782 132.146  0.00  0.00    +0.000 C 
ATOM     36  C   UNK A   0      -7.442  -2.512 130.863  0.00  0.00    +0.000 C 
ATOM     37  C   UNK A   0      -7.886  -1.188 130.355  0.00  0.00    +0.000 C 
ENDBRANCH  23  32
ENDBRANCH   8  23
TORSDOF 6
ENDMDL
MODEL 9
REMARK VINA RESULT:      -9.0      3.633      5.683
REMARK  Name = CHEMBL378718
REMARK  8 active torsions:
REMARK  status: ('A' for Active; 'I' for Inactive)
REMARK    1  A    between atoms: CD1_1  and  CG_2
REMARK    2  A    between atoms: CG_2  and  CD2_3
REMARK    3  A    between atoms: CG_2  and  CB_4
REMARK    4  A    between atoms: CB_4  and  CA_5
REMARK    5  A    between atoms: C_9  and  C_10
REMARK    6  A    between atoms: N_21  and  C_22
REMARK    7  A    between atoms: C_22  and  C_23
REMARK    8  A    between atoms: C_22  and  C_29
REMARK                            x       y       z     vdW  Elec       q    Type
REMARK                         _______ _______ _______ _____ _____    ______ ____
ROOT
ATOM      1  CA  LEU A   2      -7.086   6.235 131.225  0.00  0.00    +0.000 C 
ATOM      2  C   LEU A   2      -8.230   6.081 132.300  0.00  0.00    +0.000 C 
ATOM      3  O   LEU A   2      -8.141   6.084 133.504  0.00  0.00    +0.000 OA
ATOM      4  N   UNK A   1      -9.461   6.018 131.720  0.00  0.00    +0.000 N 
ATOM      5  C   UNK A   1      -9.625   6.273 130.309  0.00  0.00    +0.000 C 
ATOM      6  C   UNK A   1      -8.645   5.405 129.536  0.00  0.00    +0.000 C 
ATOM      7  O   UNK A   1      -8.974   4.989 128.447  0.00  0.00    +0.000 OA
ATOM      8  N   LEU A   2      -7.417   5.206 130.179  0.00  0.00    +0.000 N 
ATOM      9  H   UNK A   1     -10.234   5.994 132.376  0.00  0.00    +0.000 HD
ENDROOT
BRANCH   5  10
ATOM     10  C   UNK A   1     -11.004   5.857 129.782  0.00  0.00    +0.000 C 
ATOM     11  C   UNK A   1     -11.378   6.701 128.568  0.00  0.00    +0.000 C 
ATOM     12  C   UNK A   1     -12.114   7.826 129.227  0.00  0.00    +0.000 A 
ATOM     13  C   UNK A   1     -12.278   9.107 128.743  0.00  0.00    +0.000 A 
ATOM     14  C   UNK A   1     -12.882  10.050 129.576  0.00  0.00    +0.000 A 
ATOM     15  C   UNK A   1     -13.293   9.709 130.876  0.00  0.00    +0.000 A 
ATOM     16  C   UNK A   1     -13.104   8.418 131.368  0.00  0.00    +0.000 A 
ATOM     17  C   UNK A   1     -12.522   7.485 130.527  0.00  0.00    +0.000 A 
ATOM     18  C   UNK A   1     -12.110   6.085 130.857  0.00  0.00    +0.000 C 
ENDBRANCH   5  10
BRANCH   1  19
ATOM     19  CB  LEU A   2      -5.767   6.067 131.911  0.00  0.00    +0.000 C 
BRANCH  19  21
ATOM     20  CD1 LEU A   2      -4.263   7.684 130.467  0.00  0.00    +0.000 C 
ATOM     21  CG  LEU A   2      -4.359   6.553 131.518  0.00  0.00    +0.000 C 
ATOM     22  CD2 LEU A   2      -3.596   7.154 132.665  0.00  0.00    +0.000 C 
ENDBRANCH  19  21
ENDBRANCH   1  19
BRANCH   8  23
ATOM     23  C   UNK A   0      -6.665   3.894 129.953  0.00  0.00    +0.000 C 
BRANCH  23  24
ATOM     24  C   UNK A   0      -7.261   2.698 130.813  0.00  0.00    +0.000 A 
ATOM     25  C   UNK A   0      -6.904   2.477 132.198  0.00  0.00    +0.000 A 
ATOM     26  C   UNK A   0      -7.210   1.263 132.835  0.00  0.00    +0.000 A 
ATOM     27  C   UNK A   0      -8.020   0.356 132.174  0.00  0.00    +0.000 A 
ATOM     28  F   UNK A   0      -8.295  -0.830 132.729  0.00  0.00    +0.000 F 
ATOM     29  C   UNK A   0      -8.521   0.639 130.917  0.00  0.00    +0.000 A 
ATOM     30  C   UNK A   0      -8.111   1.772 130.242  0.00  0.00    +0.000 A 
ATOM     31  F   UNK A   0      -8.511   1.880 128.980  0.00  0.00    +0.000 F 
ENDBRANCH  23  24
BRANCH  23  32
ATOM     32  C   UNK A   0      -5.036   3.689 129.248  0.00  0.00    +0.000 C 
ATOM     33  O   UNK A   0      -4.094   3.400 130.006  0.00  0.00    +0.000 OA
ATOM     34  N   UNK A   0      -4.679   3.529 127.884  0.00  0.00    +0.000 N 
ATOM     35  C   UNK A   0      -3.491   2.857 127.308  0.00  0.00    +0.000 C 
ATOM     36  C   UNK A   0      -3.609   3.827 126.122  0.00  0.00    +0.000 C 
ATOM     37  C   UNK A   0      -5.019   4.040 126.542  0.00  0.00    +0.000 C 
ENDBRANCH  23  32
ENDBRANCH   8  23
TORSDOF 6
ENDMDL
