MODEL 1
REMARK VINA RESULT:     -11.5      0.000      0.000
REMARK  Name = CHEMBL304577
REMARK  8 active torsions:
REMARK  status: ('A' for Active; 'I' for Inactive)
REMARK    1  A    between atoms: C_1  and  O_2
REMARK    2  A    between atoms: O_2  and  C_3
REMARK    3  A    between atoms: C_5  and  O_6
REMARK    4  A    between atoms: O_6  and  C_7
REMARK    5  A    between atoms: N_10  and  C_11
REMARK    6  A    between atoms: C_11  and  C_12
REMARK    7  A    between atoms: C_22  and  C_23
REMARK    8  A    between atoms: C_28  and  N_29
REMARK                            x       y       z     vdW  Elec       q    Type
REMARK                         _______ _______ _______ _____ _____    ______ ____
ROOT
ATOM      1  C   UNL     1      -8.301   0.932 127.500  0.00  0.00    +0.000 A 
ATOM      2  C   UNL     1      -8.647   0.081 126.394  0.00  0.00    +0.000 A 
ATOM      3  C   UNL     1      -8.290  -1.221 126.399  0.00  0.00    +0.000 A 
ATOM      4  C   UNL     1      -7.461  -1.445 127.445  0.00  0.00    +0.000 A 
ATOM      5  C   UNL     1      -7.111  -0.730 128.568  0.00  0.00    +0.000 A 
ATOM      6  C   UNL     1      -7.555   0.530 128.645  0.00  0.00    +0.000 A 
ENDROOT
BRANCH   6   7
ATOM      7  C   UNL     1      -7.027   1.212 129.891  0.00  0.00    +0.000 C 
ATOM      8  O   UNL     1      -5.852   1.034 130.232  0.00  0.00    +0.000 OA
ATOM      9  N   UNL     1      -7.835   2.131 130.560  0.00  0.00    +0.000 N 
ATOM     10  C   UNL     1      -7.429   3.564 130.476  0.00  0.00    +0.000 C 
ATOM     11  C   UNL     1      -7.828   4.325 131.697  0.00  0.00    +0.000 C 
ATOM     12  C   UNL     1      -9.574   4.540 131.638  0.00  0.00    +0.000 C 
ATOM     13  C   UNL     1      -9.760   2.732 131.919  0.00  0.00    +0.000 C 
ATOM     14  C   UNL     1      -9.255   1.851 130.810  0.00  0.00    +0.000 C 
BRANCH  12  15
ATOM     15  N   UNL     1     -10.079   6.085 130.740  0.00  0.00    +0.000 N 
ATOM     16  C   UNL     1     -10.837   6.296 131.915  0.00  0.00    +0.000 C 
ATOM     17  O   UNL     1     -10.354   6.413 133.095  0.00  0.00    +0.000 OA
ATOM     18  O   UNL     1     -12.141   6.129 131.820  0.00  0.00    +0.000 OA
ATOM     19  C   UNL     1     -12.431   7.439 131.507  0.00  0.00    +0.000 C 
ATOM     20  C   UNL     1     -12.441   7.226 130.058  0.00  0.00    +0.000 A 
ATOM     21  C   UNL     1     -13.226   6.717 129.010  0.00  0.00    +0.000 A 
ATOM     22  C   UNL     1     -13.315   7.396 127.757  0.00  0.00    +0.000 A 
ATOM     23  C   UNL     1     -12.691   8.585 127.756  0.00  0.00    +0.000 A 
ATOM     24  C   UNL     1     -11.511   8.517 128.748  0.00  0.00    +0.000 A 
ATOM     25  C   UNL     1     -11.229   7.170 129.646  0.00  0.00    +0.000 A 
ENDBRANCH  12  15
ENDBRANCH   6   7
BRANCH   1  27
ATOM     26  C   UNL     1      -7.849   3.019 126.749  0.00  0.00    +0.000 C 
ATOM     27  O   UNL     1      -8.831   2.168 127.275  0.00  0.00    +0.000 OA
ENDBRANCH   1  27
BRANCH   3  28
ATOM     28  O   UNL     1      -8.715  -2.157 125.512  0.00  0.00    +0.000 OA
BRANCH  28  29
ATOM     29  C   UNL     1      -8.355  -2.188 124.081  0.00  0.00    +0.000 C 
ATOM     30  C   UNL     1      -6.876  -1.948 123.690  0.00  0.00    +0.000 C 
ATOM     31  C   UNL     1      -6.451  -0.488 123.739  0.00  0.00    +0.000 C 
ATOM     32  N   UNL     1      -7.457   0.396 123.023  0.00  0.00    +0.000 NA
ATOM     33  C   UNL     1      -8.938   0.080 123.233  0.00  0.00    +0.000 C 
ATOM     34  C   UNL     1      -9.293  -1.372 123.206  0.00  0.00    +0.000 C 
BRANCH  32  35
ATOM     35  C   UNL     1      -7.158   1.825 123.322  0.00  0.00    +0.000 C 
BRANCH  35  36
ATOM     36  C   UNL     1      -7.257   2.733 122.138  0.00  0.00    +0.000 A 
ATOM     37  C   UNL     1      -6.133   3.123 121.438  0.00  0.00    +0.000 A 
ATOM     38  C   UNL     1      -6.305   3.933 120.324  0.00  0.00    +0.000 A 
ATOM     39  C   UNL     1      -7.583   4.186 119.811  0.00  0.00    +0.000 A 
ATOM     40  C   UNL     1      -8.706   3.819 120.523  0.00  0.00    +0.000 A 
ATOM     41  C   UNL     1      -8.519   3.221 121.746  0.00  0.00    +0.000 A 
ENDBRANCH  35  36
ENDBRANCH  32  35
ENDBRANCH  28  29
ENDBRANCH   3  28
TORSDOF 7
ENDMDL
MODEL 2
REMARK VINA RESULT:     -11.3      2.387      4.417
REMARK  Name = CHEMBL304577
REMARK  8 active torsions:
REMARK  status: ('A' for Active; 'I' for Inactive)
REMARK    1  A    between atoms: C_1  and  O_2
REMARK    2  A    between atoms: O_2  and  C_3
REMARK    3  A    between atoms: C_5  and  O_6
REMARK    4  A    between atoms: O_6  and  C_7
REMARK    5  A    between atoms: N_10  and  C_11
REMARK    6  A    between atoms: C_11  and  C_12
REMARK    7  A    between atoms: C_22  and  C_23
REMARK    8  A    between atoms: C_28  and  N_29
REMARK                            x       y       z     vdW  Elec       q    Type
REMARK                         _______ _______ _______ _____ _____    ______ ____
ROOT
ATOM      1  C   UNL     1      -6.191   3.278 126.282  0.00  0.00    +0.000 A 
ATOM      2  C   UNL     1      -6.442   2.461 125.127  0.00  0.00    +0.000 A 
ATOM      3  C   UNL     1      -6.240   1.127 125.180  0.00  0.00    +0.000 A 
ATOM      4  C   UNL     1      -5.627   0.821 126.347  0.00  0.00    +0.000 A 
ATOM      5  C   UNL     1      -5.390   1.504 127.518  0.00  0.00    +0.000 A 
ATOM      6  C   UNL     1      -5.695   2.808 127.532  0.00  0.00    +0.000 A 
ENDROOT
BRANCH   6   7
ATOM      7  C   UNL     1      -5.308   3.438 128.853  0.00  0.00    +0.000 C 
ATOM      8  O   UNL     1      -4.114   3.632 129.111  0.00  0.00    +0.000 OA
ATOM      9  N   UNL     1      -6.308   3.909 129.703  0.00  0.00    +0.000 N 
ATOM     10  C   UNL     1      -6.418   5.391 129.851  0.00  0.00    +0.000 C 
ATOM     11  C   UNL     1      -6.928   5.776 131.200  0.00  0.00    +0.000 C 
ATOM     12  C   UNL     1      -8.643   5.376 131.251  0.00  0.00    +0.000 C 
ATOM     13  C   UNL     1      -8.181   3.596 131.223  0.00  0.00    +0.000 C 
ATOM     14  C   UNL     1      -7.520   3.119 129.959  0.00  0.00    +0.000 C 
BRANCH  12  15
ATOM     15  N   UNL     1      -9.723   6.763 130.653  0.00  0.00    +0.000 N 
ATOM     16  C   UNL     1     -10.467   6.431 131.810  0.00  0.00    +0.000 C 
ATOM     17  O   UNL     1     -10.027   6.482 133.011  0.00  0.00    +0.000 OA
ATOM     18  O   UNL     1     -11.612   5.807 131.622  0.00  0.00    +0.000 OA
ATOM     19  C   UNL     1     -12.387   6.946 131.561  0.00  0.00    +0.000 C 
ATOM     20  C   UNL     1     -12.361   7.042 130.099  0.00  0.00    +0.000 A 
ATOM     21  C   UNL     1     -12.928   6.496 128.936  0.00  0.00    +0.000 A 
ATOM     22  C   UNL     1     -13.307   7.329 127.839  0.00  0.00    +0.000 A 
ATOM     23  C   UNL     1     -13.181   8.639 128.103  0.00  0.00    +0.000 A 
ATOM     24  C   UNL     1     -12.032   8.823 129.117  0.00  0.00    +0.000 A 
ATOM     25  C   UNL     1     -11.232   7.530 129.743  0.00  0.00    +0.000 A 
ENDBRANCH  12  15
ENDBRANCH   6   7
BRANCH   1  27
ATOM     26  C   UNL     1      -7.902   4.636 125.685  0.00  0.00    +0.000 C 
ATOM     27  O   UNL     1      -6.533   4.564 125.982  0.00  0.00    +0.000 OA
ENDBRANCH   1  27
BRANCH   3  28
ATOM     28  O   UNL     1      -6.614   0.235 124.227  0.00  0.00    +0.000 OA
BRANCH  28  29
ATOM     29  C   UNL     1      -7.999   0.034 123.757  0.00  0.00    +0.000 C 
ATOM     30  C   UNL     1      -9.155   0.252 124.763  0.00  0.00    +0.000 C 
ATOM     31  C   UNL     1      -9.349  -0.895 125.743  0.00  0.00    +0.000 C 
ATOM     32  N   UNL     1      -9.369  -2.230 125.021  0.00  0.00    +0.000 NA
ATOM     33  C   UNL     1      -8.361  -2.427 123.888  0.00  0.00    +0.000 C 
ATOM     34  C   UNL     1      -8.188  -1.256 122.974  0.00  0.00    +0.000 C 
BRANCH  32  35
ATOM     35  C   UNL     1      -9.286  -3.333 126.020  0.00  0.00    +0.000 C 
BRANCH  35  36
ATOM     36  C   UNL     1      -8.290  -3.100 127.111  0.00  0.00    +0.000 A 
ATOM     37  C   UNL     1      -7.048  -2.560 126.842  0.00  0.00    +0.000 A 
ATOM     38  C   UNL     1      -6.191  -2.332 127.910  0.00  0.00    +0.000 A 
ATOM     39  C   UNL     1      -6.638  -2.461 129.230  0.00  0.00    +0.000 A 
ATOM     40  C   UNL     1      -7.868  -3.025 129.499  0.00  0.00    +0.000 A 
ATOM     41  C   UNL     1      -8.615  -3.464 128.432  0.00  0.00    +0.000 A 
ENDBRANCH  35  36
ENDBRANCH  32  35
ENDBRANCH  28  29
ENDBRANCH   3  28
TORSDOF 7
ENDMDL
MODEL 3
REMARK VINA RESULT:     -11.0      2.410      9.180
REMARK  Name = CHEMBL304577
REMARK  8 active torsions:
REMARK  status: ('A' for Active; 'I' for Inactive)
REMARK    1  A    between atoms: C_1  and  O_2
REMARK    2  A    between atoms: O_2  and  C_3
REMARK    3  A    between atoms: C_5  and  O_6
REMARK    4  A    between atoms: O_6  and  C_7
REMARK    5  A    between atoms: N_10  and  C_11
REMARK    6  A    between atoms: C_11  and  C_12
REMARK    7  A    between atoms: C_22  and  C_23
REMARK    8  A    between atoms: C_28  and  N_29
REMARK                            x       y       z     vdW  Elec       q    Type
REMARK                         _______ _______ _______ _____ _____    ______ ____
ROOT
ATOM      1  C   UNL     1      -5.748   2.526 129.642  0.00  0.00    +0.000 A 
ATOM      2  C   UNL     1      -6.101   2.098 130.969  0.00  0.00    +0.000 A 
ATOM      3  C   UNL     1      -6.221   3.001 131.965  0.00  0.00    +0.000 A 
ATOM      4  C   UNL     1      -5.782   4.203 131.525  0.00  0.00    +0.000 A 
ATOM      5  C   UNL     1      -5.476   4.723 130.288  0.00  0.00    +0.000 A 
ATOM      6  C   UNL     1      -5.467   3.869 129.258  0.00  0.00    +0.000 A 
ENDROOT
BRANCH   6   7
ATOM      7  C   UNL     1      -5.038   4.566 127.983  0.00  0.00    +0.000 C 
ATOM      8  O   UNL     1      -3.980   5.206 127.964  0.00  0.00    +0.000 OA
ATOM      9  N   UNL     1      -5.776   4.368 126.816  0.00  0.00    +0.000 N 
ATOM     10  C   UNL     1      -5.125   3.562 125.742  0.00  0.00    +0.000 C 
ATOM     11  C   UNL     1      -5.580   3.981 124.383  0.00  0.00    +0.000 C 
ATOM     12  C   UNL     1      -7.233   3.409 124.180  0.00  0.00    +0.000 C 
ATOM     13  C   UNL     1      -7.764   4.637 125.442  0.00  0.00    +0.000 C 
ATOM     14  C   UNL     1      -7.245   4.400 126.833  0.00  0.00    +0.000 C 
BRANCH  12  15
ATOM     15  N   UNL     1      -7.319   1.695 123.474  0.00  0.00    +0.000 N 
ATOM     16  C   UNL     1      -8.612   2.119 123.090  0.00  0.00    +0.000 C 
ATOM     17  O   UNL     1      -8.866   3.106 122.315  0.00  0.00    +0.000 OA
ATOM     18  O   UNL     1      -9.628   1.612 123.759  0.00  0.00    +0.000 OA
ATOM     19  C   UNL     1      -9.831   0.538 122.919  0.00  0.00    +0.000 C 
ATOM     20  C   UNL     1      -9.027  -0.397 123.708  0.00  0.00    +0.000 A 
ATOM     21  C   UNL     1      -9.057  -1.193 124.865  0.00  0.00    +0.000 A 
ATOM     22  C   UNL     1      -8.516  -2.515 124.867  0.00  0.00    +0.000 A 
ATOM     23  C   UNL     1      -8.117  -2.922 123.651  0.00  0.00    +0.000 A 
ATOM     24  C   UNL     1      -7.669  -1.684 122.845  0.00  0.00    +0.000 A 
ATOM     25  C   UNL     1      -7.789  -0.170 123.472  0.00  0.00    +0.000 A 
ENDBRANCH  12  15
ENDBRANCH   6   7
BRANCH   1  27
ATOM     26  C   UNL     1      -7.010   0.810 128.876  0.00  0.00    +0.000 C 
ATOM     27  O   UNL     1      -5.757   1.436 128.821  0.00  0.00    +0.000 OA
ENDBRANCH   1  27
BRANCH   3  28
ATOM     28  O   UNL     1      -6.726   2.748 133.201  0.00  0.00    +0.000 OA
BRANCH  28  29
ATOM     29  C   UNL     1      -8.134   2.947 133.594  0.00  0.00    +0.000 C 
ATOM     30  C   UNL     1      -9.229   2.795 132.510  0.00  0.00    +0.000 C 
ATOM     31  C   UNL     1      -9.347   3.990 131.576  0.00  0.00    +0.000 C 
ATOM     32  N   UNL     1      -9.395   5.289 132.358  0.00  0.00    +0.000 NA
ATOM     33  C   UNL     1      -8.457   5.417 133.558  0.00  0.00    +0.000 C 
ATOM     34  C   UNL     1      -8.355   4.202 134.424  0.00  0.00    +0.000 C 
BRANCH  32  35
ATOM     35  C   UNL     1      -9.237   6.436 131.420  0.00  0.00    +0.000 C 
BRANCH  35  36
ATOM     36  C   UNL     1     -10.521   6.938 130.841  0.00  0.00    +0.000 A 
ATOM     37  C   UNL     1     -11.719   6.770 131.505  0.00  0.00    +0.000 A 
ATOM     38  C   UNL     1     -12.865   7.300 130.928  0.00  0.00    +0.000 A 
ATOM     39  C   UNL     1     -12.784   8.142 129.813  0.00  0.00    +0.000 A 
ATOM     40  C   UNL     1     -11.593   8.289 129.134  0.00  0.00    +0.000 A 
ATOM     41  C   UNL     1     -10.510   7.570 129.582  0.00  0.00    +0.000 A 
ENDBRANCH  35  36
ENDBRANCH  32  35
ENDBRANCH  28  29
ENDBRANCH   3  28
TORSDOF 7
ENDMDL
MODEL 4
REMARK VINA RESULT:     -10.7      2.435      9.198
REMARK  Name = CHEMBL304577
REMARK  8 active torsions:
REMARK  status: ('A' for Active; 'I' for Inactive)
REMARK    1  A    between atoms: C_1  and  O_2
REMARK    2  A    between atoms: O_2  and  C_3
REMARK    3  A    between atoms: C_5  and  O_6
REMARK    4  A    between atoms: O_6  and  C_7
REMARK    5  A    between atoms: N_10  and  C_11
REMARK    6  A    between atoms: C_11  and  C_12
REMARK    7  A    between atoms: C_22  and  C_23
REMARK    8  A    between atoms: C_28  and  N_29
REMARK                            x       y       z     vdW  Elec       q    Type
REMARK                         _______ _______ _______ _____ _____    ______ ____
ROOT
ATOM      1  C   UNL     1      -6.770   0.500 132.443  0.00  0.00    +0.000 A 
ATOM      2  C   UNL     1      -7.113   1.845 132.816  0.00  0.00    +0.000 A 
ATOM      3  C   UNL     1      -8.369   2.303 132.628  0.00  0.00    +0.000 A 
ATOM      4  C   UNL     1      -9.066   1.394 131.909  0.00  0.00    +0.000 A 
ATOM      5  C   UNL     1      -8.854   0.082 131.550  0.00  0.00    +0.000 A 
ATOM      6  C   UNL     1      -7.653  -0.437 131.834  0.00  0.00    +0.000 A 
ENDROOT
BRANCH   6   7
ATOM      7  C   UNL     1      -7.541  -1.854 131.313  0.00  0.00    +0.000 C 
ATOM      8  O   UNL     1      -7.905  -2.797 132.025  0.00  0.00    +0.000 OA
ATOM      9  N   UNL     1      -7.152  -2.066 129.990  0.00  0.00    +0.000 N 
ATOM     10  C   UNL     1      -8.201  -2.571 129.056  0.00  0.00    +0.000 C 
ATOM     11  C   UNL     1      -7.616  -3.416 127.973  0.00  0.00    +0.000 C 
ATOM     12  C   UNL     1      -6.769  -2.342 126.864  0.00  0.00    +0.000 C 
ATOM     13  C   UNL     1      -5.524  -2.038 128.184  0.00  0.00    +0.000 C 
ATOM     14  C   UNL     1      -6.034  -1.316 129.400  0.00  0.00    +0.000 C 
BRANCH  12  15
ATOM     15  N   UNL     1      -7.863  -1.696 125.511  0.00  0.00    +0.000 N 
ATOM     16  C   UNL     1      -6.778  -2.097 124.698  0.00  0.00    +0.000 C 
ATOM     17  O   UNL     1      -6.333  -3.293 124.596  0.00  0.00    +0.000 OA
ATOM     18  O   UNL     1      -6.028  -1.139 124.191  0.00  0.00    +0.000 OA
ATOM     19  C   UNL     1      -6.740  -1.006 123.018  0.00  0.00    +0.000 C 
ATOM     20  C   UNL     1      -7.576   0.096 123.499  0.00  0.00    +0.000 A 
ATOM     21  C   UNL     1      -7.566   1.479 123.744  0.00  0.00    +0.000 A 
ATOM     22  C   UNL     1      -8.684   2.299 123.400  0.00  0.00    +0.000 A 
ATOM     23  C   UNL     1      -9.638   1.634 122.729  0.00  0.00    +0.000 A 
ATOM     24  C   UNL     1      -9.611   0.157 123.178  0.00  0.00    +0.000 A 
ATOM     25  C   UNL     1      -8.492  -0.386 124.253  0.00  0.00    +0.000 A 
ENDBRANCH  12  15
ENDBRANCH   6   7
BRANCH   1  27
ATOM     26  C   UNL     1      -5.416  -0.267 134.088  0.00  0.00    +0.000 C 
ATOM     27  O   UNL     1      -5.471   0.274 132.796  0.00  0.00    +0.000 OA
ENDBRANCH   1  27
BRANCH   3  28
ATOM     28  O   UNL     1      -8.859   3.477 133.105  0.00  0.00    +0.000 OA
BRANCH  28  29
ATOM     29  C   UNL     1      -8.539   4.810 132.557  0.00  0.00    +0.000 C 
ATOM     30  C   UNL     1      -9.398   6.016 133.009  0.00  0.00    +0.000 C 
ATOM     31  C   UNL     1     -10.760   6.094 132.334  0.00  0.00    +0.000 C 
ATOM     32  N   UNL     1     -10.633   5.922 130.832  0.00  0.00    +0.000 NA
ATOM     33  C   UNL     1      -9.652   4.862 130.330  0.00  0.00    +0.000 C 
ATOM     34  C   UNL     1      -8.342   4.809 131.050  0.00  0.00    +0.000 C 
BRANCH  32  35
ATOM     35  C   UNL     1     -11.988   5.733 130.241  0.00  0.00    +0.000 C 
BRANCH  35  36
ATOM     36  C   UNL     1     -12.488   6.907 129.462  0.00  0.00    +0.000 A 
ATOM     37  C   UNL     1     -13.319   6.742 128.373  0.00  0.00    +0.000 A 
ATOM     38  C   UNL     1     -13.779   7.880 127.724  0.00  0.00    +0.000 A 
ATOM     39  C   UNL     1     -13.569   9.152 128.269  0.00  0.00    +0.000 A 
ATOM     40  C   UNL     1     -12.718   9.319 129.342  0.00  0.00    +0.000 A 
ATOM     41  C   UNL     1     -12.082   8.204 129.832  0.00  0.00    +0.000 A 
ENDBRANCH  35  36
ENDBRANCH  32  35
ENDBRANCH  28  29
ENDBRANCH   3  28
TORSDOF 7
ENDMDL
MODEL 5
REMARK VINA RESULT:     -10.5      3.952      6.743
REMARK  Name = CHEMBL304577
REMARK  8 active torsions:
REMARK  status: ('A' for Active; 'I' for Inactive)
REMARK    1  A    between atoms: C_1  and  O_2
REMARK    2  A    between atoms: O_2  and  C_3
REMARK    3  A    between atoms: C_5  and  O_6
REMARK    4  A    between atoms: O_6  and  C_7
REMARK    5  A    between atoms: N_10  and  C_11
REMARK    6  A    between atoms: C_11  and  C_12
REMARK    7  A    between atoms: C_22  and  C_23
REMARK    8  A    between atoms: C_28  and  N_29
REMARK                            x       y       z     vdW  Elec       q    Type
REMARK                         _______ _______ _______ _____ _____    ______ ____
ROOT
ATOM      1  C   UNL     1      -8.185   1.650 125.639  0.00  0.00    +0.000 A 
ATOM      2  C   UNL     1      -9.063   0.593 125.217  0.00  0.00    +0.000 A 
ATOM      3  C   UNL     1      -8.747  -0.168 124.148  0.00  0.00    +0.000 A 
ATOM      4  C   UNL     1      -7.669   0.368 123.530  0.00  0.00    +0.000 A 
ATOM      5  C   UNL     1      -6.743   1.328 123.869  0.00  0.00    +0.000 A 
ATOM      6  C   UNL     1      -6.969   2.018 124.993  0.00  0.00    +0.000 A 
ENDROOT
BRANCH   6   7
ATOM      7  C   UNL     1      -5.914   3.085 125.192  0.00  0.00    +0.000 C 
ATOM      8  O   UNL     1      -5.680   3.890 124.282  0.00  0.00    +0.000 OA
ATOM      9  N   UNL     1      -5.314   3.227 126.443  0.00  0.00    +0.000 N 
ATOM     10  C   UNL     1      -5.670   4.451 127.221  0.00  0.00    +0.000 C 
ATOM     11  C   UNL     1      -4.549   4.891 128.103  0.00  0.00    +0.000 C 
ATOM     12  C   UNL     1      -4.449   3.748 129.439  0.00  0.00    +0.000 C 
ATOM     13  C   UNL     1      -3.865   2.476 128.246  0.00  0.00    +0.000 C 
ATOM     14  C   UNL     1      -4.868   2.055 127.208  0.00  0.00    +0.000 C 
BRANCH  12  15
ATOM     15  N   UNL     1      -5.520   4.227 130.878  0.00  0.00    +0.000 N 
ATOM     16  C   UNL     1      -4.562   3.477 131.599  0.00  0.00    +0.000 C 
ATOM     17  O   UNL     1      -3.311   3.742 131.663  0.00  0.00    +0.000 OA
ATOM     18  O   UNL     1      -4.943   2.297 132.045  0.00  0.00    +0.000 OA
ATOM     19  C   UNL     1      -5.385   2.743 133.273  0.00  0.00    +0.000 C 
ATOM     20  C   UNL     1      -6.784   2.884 132.863  0.00  0.00    +0.000 A 
ATOM     21  C   UNL     1      -7.954   2.146 132.620  0.00  0.00    +0.000 A 
ATOM     22  C   UNL     1      -9.230   2.620 133.055  0.00  0.00    +0.000 A 
ATOM     23  C   UNL     1      -9.152   3.734 133.801  0.00  0.00    +0.000 A 
ATOM     24  C   UNL     1      -7.914   4.537 133.349  0.00  0.00    +0.000 A 
ATOM     25  C   UNL     1      -6.904   3.964 132.186  0.00  0.00    +0.000 A 
ENDBRANCH  12  15
ENDBRANCH   6   7
BRANCH   1  27
ATOM     26  C   UNL     1      -8.470   1.373 127.868  0.00  0.00    +0.000 C 
ATOM     27  O   UNL     1      -8.700   2.214 126.769  0.00  0.00    +0.000 OA
ENDBRANCH   1  27
BRANCH   3  28
ATOM     28  O   UNL     1      -9.393  -1.301 123.769  0.00  0.00    +0.000 OA
BRANCH  28  29
ATOM     29  C   UNL     1      -9.086  -2.655 124.270  0.00  0.00    +0.000 C 
ATOM     30  C   UNL     1      -9.575  -3.042 125.687  0.00  0.00    +0.000 C 
ATOM     31  C   UNL     1      -8.733  -2.462 126.814  0.00  0.00    +0.000 C 
ATOM     32  N   UNL     1      -7.254  -2.689 126.561  0.00  0.00    +0.000 NA
ATOM     33  C   UNL     1      -6.753  -2.497 125.129  0.00  0.00    +0.000 C 
ATOM     34  C   UNL     1      -7.636  -3.059 124.061  0.00  0.00    +0.000 C 
BRANCH  32  35
ATOM     35  C   UNL     1      -6.458  -1.882 127.528  0.00  0.00    +0.000 C 
BRANCH  35  36
ATOM     36  C   UNL     1      -5.895  -2.669 128.667  0.00  0.00    +0.000 A 
ATOM     37  C   UNL     1      -6.717  -3.254 129.609  0.00  0.00    +0.000 A 
ATOM     38  C   UNL     1      -6.125  -4.007 130.615  0.00  0.00    +0.000 A 
ATOM     39  C   UNL     1      -4.762  -4.324 130.567  0.00  0.00    +0.000 A 
ATOM     40  C   UNL     1      -3.937  -3.720 129.642  0.00  0.00    +0.000 A 
ATOM     41  C   UNL     1      -4.497  -2.793 128.796  0.00  0.00    +0.000 A 
ENDBRANCH  35  36
ENDBRANCH  32  35
ENDBRANCH  28  29
ENDBRANCH   3  28
TORSDOF 7
ENDMDL
MODEL 6
REMARK VINA RESULT:     -10.4      1.585      2.006
REMARK  Name = CHEMBL304577
REMARK  8 active torsions:
REMARK  status: ('A' for Active; 'I' for Inactive)
REMARK    1  A    between atoms: C_1  and  O_2
REMARK    2  A    between atoms: O_2  and  C_3
REMARK    3  A    between atoms: C_5  and  O_6
REMARK    4  A    between atoms: O_6  and  C_7
REMARK    5  A    between atoms: N_10  and  C_11
REMARK    6  A    between atoms: C_11  and  C_12
REMARK    7  A    between atoms: C_22  and  C_23
REMARK    8  A    between atoms: C_28  and  N_29
REMARK                            x       y       z     vdW  Elec       q    Type
REMARK                         _______ _______ _______ _____ _____    ______ ____
ROOT
ATOM      1  C   UNL     1      -7.715   0.476 128.408  0.00  0.00    +0.000 A 
ATOM      2  C   UNL     1      -7.990  -0.502 127.391  0.00  0.00    +0.000 A 
ATOM      3  C   UNL     1      -7.867  -1.818 127.662  0.00  0.00    +0.000 A 
ATOM      4  C   UNL     1      -7.297  -1.966 128.880  0.00  0.00    +0.000 A 
ATOM      5  C   UNL     1      -7.044  -1.118 129.934  0.00  0.00    +0.000 A 
ATOM      6  C   UNL     1      -7.273   0.186 129.731  0.00  0.00    +0.000 A 
ENDROOT
BRANCH   6   7
ATOM      7  C   UNL     1      -6.877   0.998 130.946  0.00  0.00    +0.000 C 
ATOM      8  O   UNL     1      -5.751   0.853 131.437  0.00  0.00    +0.000 OA
ATOM      9  N   UNL     1      -7.738   1.989 131.415  0.00  0.00    +0.000 N 
ATOM     10  C   UNL     1      -7.300   3.403 131.221  0.00  0.00    +0.000 C 
ATOM     11  C   UNL     1      -7.821   4.296 132.298  0.00  0.00    +0.000 C 
ATOM     12  C   UNL     1      -9.546   4.512 132.018  0.00  0.00    +0.000 C 
ATOM     13  C   UNL     1      -9.793   2.747 132.472  0.00  0.00    +0.000 C 
ATOM     14  C   UNL     1      -9.183   1.746 131.531  0.00  0.00    +0.000 C 
BRANCH  12  15
ATOM     15  N   UNL     1      -9.919   5.950 130.905  0.00  0.00    +0.000 N 
ATOM     16  C   UNL     1     -10.746   6.331 131.987  0.00  0.00    +0.000 C 
ATOM     17  O   UNL     1     -10.341   6.577 133.176  0.00  0.00    +0.000 OA
ATOM     18  O   UNL     1     -12.047   6.200 131.817  0.00  0.00    +0.000 OA
ATOM     19  C   UNL     1     -12.257   7.471 131.327  0.00  0.00    +0.000 C 
ATOM     20  C   UNL     1     -12.176   7.081 129.917  0.00  0.00    +0.000 A 
ATOM     21  C   UNL     1     -12.909   6.474 128.885  0.00  0.00    +0.000 A 
ATOM     22  C   UNL     1     -12.882   6.994 127.555  0.00  0.00    +0.000 A 
ATOM     23  C   UNL     1     -12.208   8.152 127.456  0.00  0.00    +0.000 A 
ATOM     24  C   UNL     1     -11.103   8.166 128.533  0.00  0.00    +0.000 A 
ATOM     25  C   UNL     1     -10.943   6.931 129.606  0.00  0.00    +0.000 A 
ENDBRANCH  12  15
ENDBRANCH   6   7
BRANCH   1  27
ATOM     26  C   UNL     1      -6.773   2.377 127.619  0.00  0.00    +0.000 C 
ATOM     27  O   UNL     1      -7.976   1.714 127.898  0.00  0.00    +0.000 OA
ENDBRANCH   1  27
BRANCH   3  28
ATOM     28  O   UNL     1      -8.274  -2.830 126.851  0.00  0.00    +0.000 OA
BRANCH  28  29
ATOM     29  C   UNL     1      -7.440  -3.467 125.814  0.00  0.00    +0.000 C 
ATOM     30  C   UNL     1      -6.208  -2.693 125.284  0.00  0.00    +0.000 C 
ATOM     31  C   UNL     1      -6.548  -1.587 124.296  0.00  0.00    +0.000 C 
ATOM     32  N   UNL     1      -7.501  -2.088 123.226  0.00  0.00    +0.000 NA
ATOM     33  C   UNL     1      -8.633  -3.011 123.675  0.00  0.00    +0.000 C 
ATOM     34  C   UNL     1      -8.249  -4.059 124.671  0.00  0.00    +0.000 C 
BRANCH  32  35
ATOM     35  C   UNL     1      -8.021  -0.929 122.447  0.00  0.00    +0.000 C 
BRANCH  35  36
ATOM     36  C   UNL     1      -8.210   0.317 123.252  0.00  0.00    +0.000 A 
ATOM     37  C   UNL     1      -7.248   1.307 123.276  0.00  0.00    +0.000 A 
ATOM     38  C   UNL     1      -7.511   2.455 124.011  0.00  0.00    +0.000 A 
ATOM     39  C   UNL     1      -8.782   2.687 124.549  0.00  0.00    +0.000 A 
ATOM     40  C   UNL     1      -9.734   1.689 124.548  0.00  0.00    +0.000 A 
ATOM     41  C   UNL     1      -9.380   0.471 124.021  0.00  0.00    +0.000 A 
ENDBRANCH  35  36
ENDBRANCH  32  35
ENDBRANCH  28  29
ENDBRANCH   3  28
TORSDOF 7
ENDMDL
MODEL 7
REMARK VINA RESULT:     -10.3      2.813      5.358
REMARK  Name = CHEMBL304577
REMARK  8 active torsions:
REMARK  status: ('A' for Active; 'I' for Inactive)
REMARK    1  A    between atoms: C_1  and  O_2
REMARK    2  A    between atoms: O_2  and  C_3
REMARK    3  A    between atoms: C_5  and  O_6
REMARK    4  A    between atoms: O_6  and  C_7
REMARK    5  A    between atoms: N_10  and  C_11
REMARK    6  A    between atoms: C_11  and  C_12
REMARK    7  A    between atoms: C_22  and  C_23
REMARK    8  A    between atoms: C_28  and  N_29
REMARK                            x       y       z     vdW  Elec       q    Type
REMARK                         _______ _______ _______ _____ _____    ______ ____
ROOT
ATOM      1  C   UNL     1      -4.271   3.439 126.741  0.00  0.00    +0.000 A 
ATOM      2  C   UNL     1      -4.864   2.847 125.572  0.00  0.00    +0.000 A 
ATOM      3  C   UNL     1      -5.812   3.513 124.880  0.00  0.00    +0.000 A 
ATOM      4  C   UNL     1      -6.170   4.617 125.574  0.00  0.00    +0.000 A 
ATOM      5  C   UNL     1      -5.645   5.289 126.654  0.00  0.00    +0.000 A 
ATOM      6  C   UNL     1      -4.620   4.706 127.290  0.00  0.00    +0.000 A 
ENDROOT
BRANCH   6   7
ATOM      7  C   UNL     1      -4.202   5.519 128.497  0.00  0.00    +0.000 C 
ATOM      8  O   UNL     1      -3.347   6.403 128.371  0.00  0.00    +0.000 OA
ATOM      9  N   UNL     1      -4.881   5.347 129.704  0.00  0.00    +0.000 N 
ATOM     10  C   UNL     1      -5.754   6.474 130.147  0.00  0.00    +0.000 C 
ATOM     11  C   UNL     1      -5.838   6.556 131.635  0.00  0.00    +0.000 C 
ATOM     12  C   UNL     1      -6.838   5.214 132.182  0.00  0.00    +0.000 C 
ATOM     13  C   UNL     1      -5.493   4.066 131.678  0.00  0.00    +0.000 C 
ATOM     14  C   UNL     1      -5.214   4.006 130.202  0.00  0.00    +0.000 C 
BRANCH  12  15
ATOM     15  N   UNL     1      -8.644   5.641 132.244  0.00  0.00    +0.000 N 
ATOM     16  C   UNL     1      -8.774   4.367 131.646  0.00  0.00    +0.000 C 
ATOM     17  O   UNL     1      -8.396   3.262 132.171  0.00  0.00    +0.000 OA
ATOM     18  O   UNL     1      -9.093   4.339 130.368  0.00  0.00    +0.000 OA
ATOM     19  C   UNL     1     -10.457   4.286 130.561  0.00  0.00    +0.000 C 
ATOM     20  C   UNL     1     -10.661   5.731 130.436  0.00  0.00    +0.000 A 
ATOM     21  C   UNL     1     -10.753   6.767 129.492  0.00  0.00    +0.000 A 
ATOM     22  C   UNL     1     -11.734   7.797 129.619  0.00  0.00    +0.000 A 
ATOM     23  C   UNL     1     -12.593   7.586 130.630  0.00  0.00    +0.000 A 
ATOM     24  C   UNL     1     -11.861   6.792 131.732  0.00  0.00    +0.000 A 
ATOM     25  C   UNL     1     -10.308   6.289 131.534  0.00  0.00    +0.000 A 
ENDBRANCH  12  15
ENDBRANCH   6   7
BRANCH   1  27
ATOM     26  C   UNL     1      -2.037   3.114 126.916  0.00  0.00    +0.000 C 
ATOM     27  O   UNL     1      -3.306   2.595 127.209  0.00  0.00    +0.000 OA
ENDBRANCH   1  27
BRANCH   3  28
ATOM     28  O   UNL     1      -6.306   3.145 123.669  0.00  0.00    +0.000 OA
BRANCH  28  29
ATOM     29  C   UNL     1      -7.459   2.245 123.467  0.00  0.00    +0.000 C 
ATOM     30  C   UNL     1      -8.685   2.401 124.399  0.00  0.00    +0.000 C 
ATOM     31  C   UNL     1      -8.492   1.800 125.783  0.00  0.00    +0.000 C 
ATOM     32  N   UNL     1      -7.928   0.394 125.693  0.00  0.00    +0.000 NA
ATOM     33  C   UNL     1      -6.836   0.145 124.652  0.00  0.00    +0.000 C 
ATOM     34  C   UNL     1      -7.063   0.784 123.320  0.00  0.00    +0.000 C 
BRANCH  32  35
ATOM     35  C   UNL     1      -7.501  -0.055 127.048  0.00  0.00    +0.000 C 
BRANCH  35  36
ATOM     36  C   UNL     1      -7.876  -1.465 127.375  0.00  0.00    +0.000 A 
ATOM     37  C   UNL     1      -7.503  -2.046 128.570  0.00  0.00    +0.000 A 
ATOM     38  C   UNL     1      -7.923  -3.344 128.824  0.00  0.00    +0.000 A 
ATOM     39  C   UNL     1      -8.854  -3.974 127.989  0.00  0.00    +0.000 A 
ATOM     40  C   UNL     1      -9.206  -3.405 126.782  0.00  0.00    +0.000 A 
ATOM     41  C   UNL     1      -8.600  -2.222 126.434  0.00  0.00    +0.000 A 
ENDBRANCH  35  36
ENDBRANCH  32  35
ENDBRANCH  28  29
ENDBRANCH   3  28
TORSDOF 7
ENDMDL
MODEL 8
REMARK VINA RESULT:     -10.1      3.275      9.743
REMARK  Name = CHEMBL304577
REMARK  8 active torsions:
REMARK  status: ('A' for Active; 'I' for Inactive)
REMARK    1  A    between atoms: C_1  and  O_2
REMARK    2  A    between atoms: O_2  and  C_3
REMARK    3  A    between atoms: C_5  and  O_6
REMARK    4  A    between atoms: O_6  and  C_7
REMARK    5  A    between atoms: N_10  and  C_11
REMARK    6  A    between atoms: C_11  and  C_12
REMARK    7  A    between atoms: C_22  and  C_23
REMARK    8  A    between atoms: C_28  and  N_29
REMARK                            x       y       z     vdW  Elec       q    Type
REMARK                         _______ _______ _______ _____ _____    ______ ____
ROOT
ATOM      1  C   UNL     1      -4.539   2.879 128.801  0.00  0.00    +0.000 A 
ATOM      2  C   UNL     1      -4.275   2.419 130.137  0.00  0.00    +0.000 A 
ATOM      3  C   UNL     1      -4.313   3.282 131.174  0.00  0.00    +0.000 A 
ATOM      4  C   UNL     1      -4.431   4.542 130.694  0.00  0.00    +0.000 A 
ATOM      5  C   UNL     1      -4.734   5.079 129.464  0.00  0.00    +0.000 A 
ATOM      6  C   UNL     1      -4.821   4.227 128.435  0.00  0.00    +0.000 A 
ENDROOT
BRANCH   6   7
ATOM      7  C   UNL     1      -5.081   4.969 127.141  0.00  0.00    +0.000 C 
ATOM      8  O   UNL     1      -4.429   5.988 126.880  0.00  0.00    +0.000 OA
ATOM      9  N   UNL     1      -5.957   4.421 126.204  0.00  0.00    +0.000 N 
ATOM     10  C   UNL     1      -5.350   3.900 124.944  0.00  0.00    +0.000 C 
ATOM     11  C   UNL     1      -6.286   4.019 123.788  0.00  0.00    +0.000 C 
ATOM     12  C   UNL     1      -7.543   2.804 123.999  0.00  0.00    +0.000 C 
ATOM     13  C   UNL     1      -8.170   3.768 125.435  0.00  0.00    +0.000 C 
ATOM     14  C   UNL     1      -7.243   3.843 126.617  0.00  0.00    +0.000 C 
BRANCH  12  15
ATOM     15  N   UNL     1      -7.102   1.172 123.232  0.00  0.00    +0.000 N 
ATOM     16  C   UNL     1      -8.459   0.886 123.512  0.00  0.00    +0.000 C 
ATOM     17  O   UNL     1      -9.462   1.526 123.038  0.00  0.00    +0.000 OA
ATOM     18  O   UNL     1      -8.699   0.057 124.507  0.00  0.00    +0.000 OA
ATOM     19  C   UNL     1      -8.711  -1.089 123.740  0.00  0.00    +0.000 C 
ATOM     20  C   UNL     1      -7.306  -1.423 123.985  0.00  0.00    +0.000 A 
ATOM     21  C   UNL     1      -6.444  -1.979 124.945  0.00  0.00    +0.000 A 
ATOM     22  C   UNL     1      -5.402  -2.879 124.567  0.00  0.00    +0.000 A 
ATOM     23  C   UNL     1      -5.436  -3.210 123.266  0.00  0.00    +0.000 A 
ATOM     24  C   UNL     1      -6.037  -2.027 122.479  0.00  0.00    +0.000 A 
ATOM     25  C   UNL     1      -6.574  -0.676 123.247  0.00  0.00    +0.000 A 
ENDBRANCH  12  15
ENDBRANCH   6   7
BRANCH   1  27
ATOM     26  C   UNL     1      -5.290   0.768 128.475  0.00  0.00    +0.000 C 
ATOM     27  O   UNL     1      -4.501   1.806 127.960  0.00  0.00    +0.000 OA
ENDBRANCH   1  27
BRANCH   3  28
ATOM     28  O   UNL     1      -4.267   2.938 132.487  0.00  0.00    +0.000 OA
BRANCH  28  29
ATOM     29  C   UNL     1      -5.254   2.079 133.169  0.00  0.00    +0.000 C 
ATOM     30  C   UNL     1      -6.665   1.942 132.546  0.00  0.00    +0.000 C 
ATOM     31  C   UNL     1      -7.571   3.138 132.796  0.00  0.00    +0.000 C 
ATOM     32  N   UNL     1      -7.552   3.539 134.260  0.00  0.00    +0.000 NA
ATOM     33  C   UNL     1      -6.200   3.512 134.974  0.00  0.00    +0.000 C 
ATOM     34  C   UNL     1      -5.337   2.329 134.667  0.00  0.00    +0.000 C 
BRANCH  32  35
ATOM     35  C   UNL     1      -8.223   4.860 134.419  0.00  0.00    +0.000 C 
BRANCH  35  36
ATOM     36  C   UNL     1      -8.321   5.655 133.156  0.00  0.00    +0.000 A 
ATOM     37  C   UNL     1      -7.192   6.123 132.516  0.00  0.00    +0.000 A 
ATOM     38  C   UNL     1      -7.357   6.817 131.325  0.00  0.00    +0.000 A 
ATOM     39  C   UNL     1      -8.605   6.873 130.693  0.00  0.00    +0.000 A 
ATOM     40  C   UNL     1      -9.737   6.429 131.344  0.00  0.00    +0.000 A 
ATOM     41  C   UNL     1      -9.592   5.954 132.626  0.00  0.00    +0.000 A 
ENDBRANCH  35  36
ENDBRANCH  32  35
ENDBRANCH  28  29
ENDBRANCH   3  28
TORSDOF 7
ENDMDL
MODEL 9
REMARK VINA RESULT:      -9.9      3.661      8.877
REMARK  Name = CHEMBL304577
REMARK  8 active torsions:
REMARK  status: ('A' for Active; 'I' for Inactive)
REMARK    1  A    between atoms: C_1  and  O_2
REMARK    2  A    between atoms: O_2  and  C_3
REMARK    3  A    between atoms: C_5  and  O_6
REMARK    4  A    between atoms: O_6  and  C_7
REMARK    5  A    between atoms: N_10  and  C_11
REMARK    6  A    between atoms: C_11  and  C_12
REMARK    7  A    between atoms: C_22  and  C_23
REMARK    8  A    between atoms: C_28  and  N_29
REMARK                            x       y       z     vdW  Elec       q    Type
REMARK                         _______ _______ _______ _____ _____    ______ ____
ROOT
ATOM      1  C   UNL     1      -7.683   1.486 132.985  0.00  0.00    +0.000 A 
ATOM      2  C   UNL     1      -8.259   2.783 132.753  0.00  0.00    +0.000 A 
ATOM      3  C   UNL     1      -9.171   2.956 131.773  0.00  0.00    +0.000 A 
ATOM      4  C   UNL     1      -9.239   1.827 131.031  0.00  0.00    +0.000 A 
ATOM      5  C   UNL     1      -8.779   0.540 131.190  0.00  0.00    +0.000 A 
ATOM      6  C   UNL     1      -7.965   0.312 132.228  0.00  0.00    +0.000 A 
ENDROOT
BRANCH   6   7
ATOM      7  C   UNL     1      -7.480  -1.122 132.228  0.00  0.00    +0.000 C 
ATOM      8  O   UNL     1      -7.956  -1.928 133.037  0.00  0.00    +0.000 OA
ATOM      9  N   UNL     1      -6.600  -1.545 131.232  0.00  0.00    +0.000 N 
ATOM     10  C   UNL     1      -7.147  -2.487 130.211  0.00  0.00    +0.000 C 
ATOM     11  C   UNL     1      -6.093  -3.405 129.686  0.00  0.00    +0.000 C 
ATOM     12  C   UNL     1      -5.043  -2.458 128.637  0.00  0.00    +0.000 C 
ATOM     13  C   UNL     1      -4.433  -1.569 130.127  0.00  0.00    +0.000 C 
ATOM     14  C   UNL     1      -5.452  -0.718 130.834  0.00  0.00    +0.000 C 
BRANCH  12  15
ATOM     15  N   UNL     1      -5.627  -2.423 126.875  0.00  0.00    +0.000 N 
ATOM     16  C   UNL     1      -5.907  -1.074 127.191  0.00  0.00    +0.000 C 
ATOM     17  O   UNL     1      -5.041  -0.205 127.558  0.00  0.00    +0.000 OA
ATOM     18  O   UNL     1      -7.175  -0.749 127.343  0.00  0.00    +0.000 OA
ATOM     19  C   UNL     1      -7.390  -0.390 126.029  0.00  0.00    +0.000 C 
ATOM     20  C   UNL     1      -7.918  -1.695 125.624  0.00  0.00    +0.000 A 
ATOM     21  C   UNL     1      -9.070  -2.497 125.677  0.00  0.00    +0.000 A 
ATOM     22  C   UNL     1      -9.495  -3.255 124.544  0.00  0.00    +0.000 A 
ATOM     23  C   UNL     1      -8.766  -3.011 123.443  0.00  0.00    +0.000 A 
ATOM     24  C   UNL     1      -7.337  -2.626 123.880  0.00  0.00    +0.000 A 
ATOM     25  C   UNL     1      -6.936  -2.503 125.469  0.00  0.00    +0.000 A 
ENDBRANCH  12  15
ENDBRANCH   6   7
BRANCH   1  27
ATOM     26  C   UNL     1      -5.526   1.733 133.628  0.00  0.00    +0.000 C 
ATOM     27  O   UNL     1      -6.850   1.571 134.062  0.00  0.00    +0.000 OA
ENDBRANCH   1  27
BRANCH   3  28
ATOM     28  O   UNL     1      -9.916   4.076 131.580  0.00  0.00    +0.000 OA
BRANCH  28  29
ATOM     29  C   UNL     1      -9.631   5.116 130.572  0.00  0.00    +0.000 C 
ATOM     30  C   UNL     1      -8.688   4.760 129.396  0.00  0.00    +0.000 C 
ATOM     31  C   UNL     1      -7.213   4.750 129.766  0.00  0.00    +0.000 C 
ATOM     32  N   UNL     1      -6.835   6.003 130.535  0.00  0.00    +0.000 NA
ATOM     33  C   UNL     1      -7.827   6.502 131.587  0.00  0.00    +0.000 C 
ATOM     34  C   UNL     1      -9.266   6.460 131.181  0.00  0.00    +0.000 C 
BRANCH  32  35
ATOM     35  C   UNL     1      -5.471   5.837 131.110  0.00  0.00    +0.000 C 
BRANCH  35  36
ATOM     36  C   UNL     1      -4.361   6.179 130.167  0.00  0.00    +0.000 A 
ATOM     37  C   UNL     1      -3.499   5.210 129.696  0.00  0.00    +0.000 A 
ATOM     38  C   UNL     1      -2.519   5.593 128.790  0.00  0.00    +0.000 A 
ATOM     39  C   UNL     1      -2.526   6.874 128.224  0.00  0.00    +0.000 A 
ATOM     40  C   UNL     1      -3.370   7.848 128.713  0.00  0.00    +0.000 A 
ATOM     41  C   UNL     1      -4.177   7.519 129.775  0.00  0.00    +0.000 A 
ENDBRANCH  35  36
ENDBRANCH  32  35
ENDBRANCH  28  29
ENDBRANCH   3  28
TORSDOF 7
ENDMDL
