MODEL 1
REMARK VINA RESULT:     -10.6      0.000      0.000
REMARK  Name = CHEMBL68480
REMARK  12 active torsions:
REMARK  status: ('A' for Active; 'I' for Inactive)
REMARK    1  A    between atoms: C_1  and  C_2
REMARK    2  A    between atoms: C_2  and  C_3
REMARK    3  A    between atoms: C_4  and  C_5
REMARK    4  A    between atoms: C_5  and  N_6
REMARK    5  A    between atoms: C_9  and  O_10
REMARK    6  A    between atoms: O_10  and  C_11
REMARK    7  A    between atoms: C_14  and  C_15
REMARK    8  A    between atoms: C_20  and  N_21
REMARK    9  A    between atoms: C_34  and  O_35
REMARK   10  A    between atoms: O_35  and  C_36
REMARK   11  A    between atoms: C_40  and  C_41
REMARK   12  A    between atoms: C_43  and  C_44
REMARK                            x       y       z     vdW  Elec       q    Type
REMARK                         _______ _______ _______ _____ _____    ______ ____
ROOT
ATOM      1  C   UNL     1      -4.770  -0.212 129.135  0.00  0.00    +0.000 A 
ATOM      2  C   UNL     1      -4.758  -0.243 130.520  0.00  0.00    +0.000 A 
ATOM      3  C   UNL     1      -4.617   0.921 131.273  0.00  0.00    +0.000 A 
ATOM      4  C   UNL     1      -4.499   2.172 130.668  0.00  0.00    +0.000 A 
ATOM      5  C   UNL     1      -4.370   2.188 129.254  0.00  0.00    +0.000 A 
ATOM      6  C   UNL     1      -4.395   0.975 128.523  0.00  0.00    +0.000 A 
ENDROOT
BRANCH   4   7
ATOM      7  C   UNL     1      -4.645   3.424 131.527  0.00  0.00    +0.000 C 
ATOM      8  O   UNL     1      -3.677   3.859 132.148  0.00  0.00    +0.000 OA
ATOM      9  N   UNL     1      -5.854   4.169 131.459  0.00  0.00    +0.000 N 
ATOM     10  C   UNL     1      -5.821   5.573 131.064  0.00  0.00    +0.000 C 
ATOM     11  C   UNL     1      -6.592   6.467 132.019  0.00  0.00    +0.000 C 
ATOM     12  C   UNL     1      -8.340   6.113 131.955  0.00  0.00    +0.000 C 
ATOM     13  C   UNL     1      -8.024   4.560 132.650  0.00  0.00    +0.000 C 
ATOM     14  C   UNL     1      -7.188   3.640 131.754  0.00  0.00    +0.000 C 
BRANCH  12  15
ATOM     15  N   UNL     1      -9.365   6.800 130.567  0.00  0.00    +0.000 N 
ATOM     16  C   UNL     1     -10.438   6.490 131.522  0.00  0.00    +0.000 C 
ATOM     17  O   UNL     1     -10.504   6.642 132.778  0.00  0.00    +0.000 OA
ATOM     18  O   UNL     1     -11.420   5.761 131.054  0.00  0.00    +0.000 OA
ATOM     19  C   UNL     1     -12.359   6.758 130.901  0.00  0.00    +0.000 C 
ATOM     20  C   UNL     1     -12.046   6.994 129.505  0.00  0.00    +0.000 A 
ATOM     21  C   UNL     1     -13.405   7.183 128.767  0.00  0.00    +0.000 A 
ATOM     22  C   UNL     1     -13.577   7.317 127.430  0.00  0.00    +0.000 A 
ATOM     23  C   UNL     1     -12.324   7.472 126.882  0.00  0.00    +0.000 A 
ATOM     24  C   UNL     1     -10.877   7.392 127.730  0.00  0.00    +0.000 A 
ATOM     25  C   UNL     1     -10.618   6.974 129.192  0.00  0.00    +0.000 A 
ENDBRANCH  12  15
ENDBRANCH   4   7
BRANCH   5  26
ATOM     26  O   UNL     1      -4.266   3.402 128.624  0.00  0.00    +0.000 OA
ATOM     27  C   UNL     1      -2.965   3.875 128.292  0.00  0.00    +0.000 C 
ENDBRANCH   5  26
BRANCH   1  28
ATOM     28  O   UNL     1      -4.983  -1.301 128.332  0.00  0.00    +0.000 OA
BRANCH  28  32
ATOM     29  N   UNL     1      -7.749   0.744 126.794  0.00  0.00    +0.000 NA
ATOM     30  C   UNL     1      -6.807   0.027 125.922  0.00  0.00    +0.000 C 
ATOM     31  C   UNL     1      -6.656  -1.420 126.366  0.00  0.00    +0.000 C 
ATOM     32  C   UNL     1      -6.329  -1.620 127.861  0.00  0.00    +0.000 C 
ATOM     33  C   UNL     1      -7.405  -0.850 128.704  0.00  0.00    +0.000 C 
ATOM     34  C   UNL     1      -7.698   0.594 128.270  0.00  0.00    +0.000 C 
BRANCH  29  35
ATOM     35  C   UNL     1      -7.769   2.148 126.417  0.00  0.00    +0.000 C 
BRANCH  35  37
ATOM     36  C   UNL     1      -6.746   3.237 124.383  0.00  0.00    +0.000 A 
ATOM     37  C   UNL     1      -7.844   2.511 124.927  0.00  0.00    +0.000 A 
ATOM     38  C   UNL     1      -8.899   2.202 124.032  0.00  0.00    +0.000 A 
ATOM     39  C   UNL     1     -10.166   1.465 124.224  0.00  0.00    +0.000 C 
ATOM     40  C   UNL     1      -8.880   2.591 122.718  0.00  0.00    +0.000 A 
ATOM     41  C   UNL     1      -7.835   3.321 122.228  0.00  0.00    +0.000 A 
ATOM     42  C   UNL     1      -7.894   3.707 120.798  0.00  0.00    +0.000 C 
ATOM     43  N   UNL     1      -6.756   3.660 123.036  0.00  0.00    +0.000 N 
ATOM     44  O   UNL     1      -5.796   4.336 122.545  0.00  0.00    +0.000 OA
BRANCH  36  46
ATOM     45  C   UNL     1      -5.546   4.889 125.832  0.00  0.00    +0.000 C 
ATOM     46  C   UNL     1      -5.493   3.505 125.186  0.00  0.00    +0.000 C 
ENDBRANCH  36  46
ENDBRANCH  35  37
ENDBRANCH  29  35
ENDBRANCH  28  32
ENDBRANCH   1  28
TORSDOF 8
ENDMDL
MODEL 2
REMARK VINA RESULT:     -10.3      1.298      2.211
REMARK  Name = CHEMBL68480
REMARK  12 active torsions:
REMARK  status: ('A' for Active; 'I' for Inactive)
REMARK    1  A    between atoms: C_1  and  C_2
REMARK    2  A    between atoms: C_2  and  C_3
REMARK    3  A    between atoms: C_4  and  C_5
REMARK    4  A    between atoms: C_5  and  N_6
REMARK    5  A    between atoms: C_9  and  O_10
REMARK    6  A    between atoms: O_10  and  C_11
REMARK    7  A    between atoms: C_14  and  C_15
REMARK    8  A    between atoms: C_20  and  N_21
REMARK    9  A    between atoms: C_34  and  O_35
REMARK   10  A    between atoms: O_35  and  C_36
REMARK   11  A    between atoms: C_40  and  C_41
REMARK   12  A    between atoms: C_43  and  C_44
REMARK                            x       y       z     vdW  Elec       q    Type
REMARK                         _______ _______ _______ _____ _____    ______ ____
ROOT
ATOM      1  C   UNL     1      -5.174  -0.702 129.923  0.00  0.00    +0.000 A 
ATOM      2  C   UNL     1      -5.041  -0.557 131.294  0.00  0.00    +0.000 A 
ATOM      3  C   UNL     1      -4.760   0.679 131.872  0.00  0.00    +0.000 A 
ATOM      4  C   UNL     1      -4.618   1.830 131.099  0.00  0.00    +0.000 A 
ATOM      5  C   UNL     1      -4.613   1.657 129.689  0.00  0.00    +0.000 A 
ATOM      6  C   UNL     1      -4.781   0.368 129.130  0.00  0.00    +0.000 A 
ENDROOT
BRANCH   4   7
ATOM      7  C   UNL     1      -4.607   3.189 131.793  0.00  0.00    +0.000 C 
ATOM      8  O   UNL     1      -3.570   3.610 132.303  0.00  0.00    +0.000 OA
ATOM      9  N   UNL     1      -5.752   4.025 131.689  0.00  0.00    +0.000 N 
ATOM     10  C   UNL     1      -5.628   5.359 131.113  0.00  0.00    +0.000 C 
ATOM     11  C   UNL     1      -6.263   6.432 131.980  0.00  0.00    +0.000 C 
ATOM     12  C   UNL     1      -8.035   6.230 132.052  0.00  0.00    +0.000 C 
ATOM     13  C   UNL     1      -7.805   4.755 132.927  0.00  0.00    +0.000 C 
ATOM     14  C   UNL     1      -7.105   3.658 132.118  0.00  0.00    +0.000 C 
BRANCH  12  15
ATOM     15  N   UNL     1      -9.083   6.826 130.639  0.00  0.00    +0.000 N 
ATOM     16  C   UNL     1     -10.147   6.455 131.583  0.00  0.00    +0.000 C 
ATOM     17  O   UNL     1     -10.243   6.618 132.835  0.00  0.00    +0.000 OA
ATOM     18  O   UNL     1     -11.068   5.653 131.110  0.00  0.00    +0.000 OA
ATOM     19  C   UNL     1     -12.072   6.580 130.930  0.00  0.00    +0.000 C 
ATOM     20  C   UNL     1     -11.754   6.819 129.535  0.00  0.00    +0.000 A 
ATOM     21  C   UNL     1     -13.111   6.903 128.774  0.00  0.00    +0.000 A 
ATOM     22  C   UNL     1     -13.271   7.007 127.433  0.00  0.00    +0.000 A 
ATOM     23  C   UNL     1     -12.023   7.242 126.902  0.00  0.00    +0.000 A 
ATOM     24  C   UNL     1     -10.588   7.274 127.772  0.00  0.00    +0.000 A 
ATOM     25  C   UNL     1     -10.324   6.895 129.243  0.00  0.00    +0.000 A 
ENDBRANCH  12  15
ENDBRANCH   4   7
BRANCH   5  26
ATOM     26  O   UNL     1      -4.489   2.771 128.898  0.00  0.00    +0.000 OA
ATOM     27  C   UNL     1      -3.331   2.884 128.078  0.00  0.00    +0.000 C 
ENDBRANCH   5  26
BRANCH   1  28
ATOM     28  O   UNL     1      -5.526  -1.864 129.291  0.00  0.00    +0.000 OA
BRANCH  28  32
ATOM     29  N   UNL     1      -8.288  -1.492 126.755  0.00  0.00    +0.000 NA
ATOM     30  C   UNL     1      -7.466  -2.711 126.757  0.00  0.00    +0.000 C 
ATOM     31  C   UNL     1      -7.363  -3.289 128.160  0.00  0.00    +0.000 C 
ATOM     32  C   UNL     1      -6.923  -2.292 129.253  0.00  0.00    +0.000 C 
ATOM     33  C   UNL     1      -7.878  -1.048 129.193  0.00  0.00    +0.000 C 
ATOM     34  C   UNL     1      -8.123  -0.450 127.799  0.00  0.00    +0.000 C 
BRANCH  29  35
ATOM     35  C   UNL     1      -8.258  -0.903 125.426  0.00  0.00    +0.000 C 
BRANCH  35  37
ATOM     36  C   UNL     1      -8.371   1.536 124.788  0.00  0.00    +0.000 A 
ATOM     37  C   UNL     1      -7.562   0.452 125.235  0.00  0.00    +0.000 A 
ATOM     38  C   UNL     1      -6.191   0.738 125.454  0.00  0.00    +0.000 A 
ATOM     39  C   UNL     1      -5.073  -0.107 125.923  0.00  0.00    +0.000 C 
ATOM     40  C   UNL     1      -5.661   1.983 125.233  0.00  0.00    +0.000 A 
ATOM     41  C   UNL     1      -6.447   2.997 124.767  0.00  0.00    +0.000 A 
ATOM     42  C   UNL     1      -5.795   4.311 124.549  0.00  0.00    +0.000 C 
ATOM     43  N   UNL     1      -7.804   2.803 124.533  0.00  0.00    +0.000 N 
ATOM     44  O   UNL     1      -8.508   3.772 124.103  0.00  0.00    +0.000 OA
BRANCH  36  46
ATOM     45  C   UNL     1     -10.264   1.059 123.220  0.00  0.00    +0.000 C 
ATOM     46  C   UNL     1      -9.872   1.407 124.656  0.00  0.00    +0.000 C 
ENDBRANCH  36  46
ENDBRANCH  35  37
ENDBRANCH  29  35
ENDBRANCH  28  32
ENDBRANCH   1  28
TORSDOF 8
ENDMDL
MODEL 3
REMARK VINA RESULT:     -10.2      1.737      2.461
REMARK  Name = CHEMBL68480
REMARK  12 active torsions:
REMARK  status: ('A' for Active; 'I' for Inactive)
REMARK    1  A    between atoms: C_1  and  C_2
REMARK    2  A    between atoms: C_2  and  C_3
REMARK    3  A    between atoms: C_4  and  C_5
REMARK    4  A    between atoms: C_5  and  N_6
REMARK    5  A    between atoms: C_9  and  O_10
REMARK    6  A    between atoms: O_10  and  C_11
REMARK    7  A    between atoms: C_14  and  C_15
REMARK    8  A    between atoms: C_20  and  N_21
REMARK    9  A    between atoms: C_34  and  O_35
REMARK   10  A    between atoms: O_35  and  C_36
REMARK   11  A    between atoms: C_40  and  C_41
REMARK   12  A    between atoms: C_43  and  C_44
REMARK                            x       y       z     vdW  Elec       q    Type
REMARK                         _______ _______ _______ _____ _____    ______ ____
ROOT
ATOM      1  C   UNL     1      -6.326  -1.405 126.577  0.00  0.00    +0.000 A 
ATOM      2  C   UNL     1      -6.606  -2.001 127.796  0.00  0.00    +0.000 A 
ATOM      3  C   UNL     1      -6.413  -1.324 128.999  0.00  0.00    +0.000 A 
ATOM      4  C   UNL     1      -5.945  -0.011 129.030  0.00  0.00    +0.000 A 
ATOM      5  C   UNL     1      -5.526   0.548 127.793  0.00  0.00    +0.000 A 
ATOM      6  C   UNL     1      -5.622  -0.209 126.601  0.00  0.00    +0.000 A 
ENDROOT
BRANCH   4   7
ATOM      7  C   UNL     1      -6.034   0.772 130.336  0.00  0.00    +0.000 C 
ATOM      8  O   UNL     1      -5.161   0.639 131.192  0.00  0.00    +0.000 OA
ATOM      9  N   UNL     1      -7.031   1.776 130.471  0.00  0.00    +0.000 N 
ATOM     10  C   UNL     1      -6.643   3.153 130.754  0.00  0.00    +0.000 C 
ATOM     11  C   UNL     1      -7.419   3.753 131.914  0.00  0.00    +0.000 C 
ATOM     12  C   UNL     1      -9.145   3.939 131.499  0.00  0.00    +0.000 C 
ATOM     13  C   UNL     1      -9.294   2.216 131.456  0.00  0.00    +0.000 C 
ATOM     14  C   UNL     1      -8.474   1.552 130.344  0.00  0.00    +0.000 C 
BRANCH  12  15
ATOM     15  N   UNL     1      -9.688   5.380 130.459  0.00  0.00    +0.000 N 
ATOM     16  C   UNL     1     -10.507   5.628 131.653  0.00  0.00    +0.000 C 
ATOM     17  O   UNL     1     -10.234   5.531 132.886  0.00  0.00    +0.000 OA
ATOM     18  O   UNL     1     -11.789   5.790 131.437  0.00  0.00    +0.000 OA
ATOM     19  C   UNL     1     -11.847   7.160 131.575  0.00  0.00    +0.000 C 
ATOM     20  C   UNL     1     -11.710   7.422 130.156  0.00  0.00    +0.000 A 
ATOM     21  C   UNL     1     -12.710   8.566 129.812  0.00  0.00    +0.000 A 
ATOM     22  C   UNL     1     -12.985   9.044 128.575  0.00  0.00    +0.000 A 
ATOM     23  C   UNL     1     -12.063   8.484 127.720  0.00  0.00    +0.000 A 
ATOM     24  C   UNL     1     -10.908   7.345 128.149  0.00  0.00    +0.000 A 
ATOM     25  C   UNL     1     -10.734   6.574 129.474  0.00  0.00    +0.000 A 
ENDBRANCH  12  15
ENDBRANCH   4   7
BRANCH   5  26
ATOM     26  O   UNL     1      -5.073   1.843 127.785  0.00  0.00    +0.000 OA
ATOM     27  C   UNL     1      -3.770   2.100 128.295  0.00  0.00    +0.000 C 
ENDBRANCH   5  26
BRANCH   1  28
ATOM     28  O   UNL     1      -6.565  -1.976 125.355  0.00  0.00    +0.000 OA
BRANCH  28  32
ATOM     29  N   UNL     1      -8.537   1.046 124.270  0.00  0.00    +0.000 NA
ATOM     30  C   UNL     1      -7.652   0.374 123.308  0.00  0.00    +0.000 C 
ATOM     31  C   UNL     1      -7.895  -1.127 123.308  0.00  0.00    +0.000 C 
ATOM     32  C   UNL     1      -7.858  -1.801 124.696  0.00  0.00    +0.000 C 
ATOM     33  C   UNL     1      -8.856  -1.038 125.637  0.00  0.00    +0.000 C 
ATOM     34  C   UNL     1      -8.752   0.495 125.632  0.00  0.00    +0.000 C 
BRANCH  29  35
ATOM     35  C   UNL     1      -8.187   2.455 124.331  0.00  0.00    +0.000 C 
BRANCH  35  37
ATOM     36  C   UNL     1      -6.163   3.598 123.350  0.00  0.00    +0.000 A 
ATOM     37  C   UNL     1      -7.475   3.092 123.129  0.00  0.00    +0.000 A 
ATOM     38  C   UNL     1      -7.992   3.234 121.816  0.00  0.00    +0.000 A 
ATOM     39  C   UNL     1      -9.280   2.825 121.218  0.00  0.00    +0.000 C 
ATOM     40  C   UNL     1      -7.280   3.839 120.813  0.00  0.00    +0.000 A 
ATOM     41  C   UNL     1      -6.039   4.352 121.058  0.00  0.00    +0.000 A 
ATOM     42  C   UNL     1      -5.339   4.995 119.920  0.00  0.00    +0.000 C 
ATOM     43  N   UNL     1      -5.456   4.249 122.316  0.00  0.00    +0.000 N 
ATOM     44  O   UNL     1      -4.295   4.734 122.507  0.00  0.00    +0.000 OA
BRANCH  36  46
ATOM     45  C   UNL     1      -5.601   4.594 125.577  0.00  0.00    +0.000 C 
ATOM     46  C   UNL     1      -5.437   3.384 124.659  0.00  0.00    +0.000 C 
ENDBRANCH  36  46
ENDBRANCH  35  37
ENDBRANCH  29  35
ENDBRANCH  28  32
ENDBRANCH   1  28
TORSDOF 8
ENDMDL
MODEL 4
REMARK VINA RESULT:     -10.2      3.389      7.486
REMARK  Name = CHEMBL68480
REMARK  12 active torsions:
REMARK  status: ('A' for Active; 'I' for Inactive)
REMARK    1  A    between atoms: C_1  and  C_2
REMARK    2  A    between atoms: C_2  and  C_3
REMARK    3  A    between atoms: C_4  and  C_5
REMARK    4  A    between atoms: C_5  and  N_6
REMARK    5  A    between atoms: C_9  and  O_10
REMARK    6  A    between atoms: O_10  and  C_11
REMARK    7  A    between atoms: C_14  and  C_15
REMARK    8  A    between atoms: C_20  and  N_21
REMARK    9  A    between atoms: C_34  and  O_35
REMARK   10  A    between atoms: O_35  and  C_36
REMARK   11  A    between atoms: C_40  and  C_41
REMARK   12  A    between atoms: C_43  and  C_44
REMARK                            x       y       z     vdW  Elec       q    Type
REMARK                         _______ _______ _______ _____ _____    ______ ____
ROOT
ATOM      1  C   UNL     1      -5.072   4.259 132.065  0.00  0.00    +0.000 A 
ATOM      2  C   UNL     1      -5.559   5.488 131.649  0.00  0.00    +0.000 A 
ATOM      3  C   UNL     1      -5.348   5.954 130.353  0.00  0.00    +0.000 A 
ATOM      4  C   UNL     1      -4.652   5.199 129.411  0.00  0.00    +0.000 A 
ATOM      5  C   UNL     1      -4.033   4.008 129.876  0.00  0.00    +0.000 A 
ATOM      6  C   UNL     1      -4.165   3.621 131.231  0.00  0.00    +0.000 A 
ENDROOT
BRANCH   4   7
ATOM      7  C   UNL     1      -4.706   5.618 127.945  0.00  0.00    +0.000 C 
ATOM      8  O   UNL     1      -4.048   6.581 127.557  0.00  0.00    +0.000 OA
ATOM      9  N   UNL     1      -5.379   4.781 127.013  0.00  0.00    +0.000 N 
ATOM     10  C   UNL     1      -4.657   4.239 125.868  0.00  0.00    +0.000 C 
ATOM     11  C   UNL     1      -5.392   4.457 124.557  0.00  0.00    +0.000 C 
ATOM     12  C   UNL     1      -6.907   3.516 124.510  0.00  0.00    +0.000 C 
ATOM     13  C   UNL     1      -7.539   4.519 125.770  0.00  0.00    +0.000 C 
ATOM     14  C   UNL     1      -6.789   4.389 127.099  0.00  0.00    +0.000 C 
BRANCH  12  15
ATOM     15  N   UNL     1      -6.848   1.702 124.113  0.00  0.00    +0.000 N 
ATOM     16  C   UNL     1      -8.219   1.995 123.674  0.00  0.00    +0.000 C 
ATOM     17  O   UNL     1      -8.698   2.983 123.043  0.00  0.00    +0.000 OA
ATOM     18  O   UNL     1      -9.151   1.219 124.171  0.00  0.00    +0.000 OA
ATOM     19  C   UNL     1      -9.368   0.428 123.063  0.00  0.00    +0.000 C 
ATOM     20  C   UNL     1      -8.458  -0.616 123.491  0.00  0.00    +0.000 A 
ATOM     21  C   UNL     1      -9.152  -1.974 123.173  0.00  0.00    +0.000 A 
ATOM     22  C   UNL     1      -8.696  -3.204 123.511  0.00  0.00    +0.000 A 
ATOM     23  C   UNL     1      -7.416  -3.036 123.986  0.00  0.00    +0.000 A 
ATOM     24  C   UNL     1      -6.645  -1.560 124.197  0.00  0.00    +0.000 A 
ATOM     25  C   UNL     1      -7.213  -0.131 124.085  0.00  0.00    +0.000 A 
ENDBRANCH  12  15
ENDBRANCH   4   7
BRANCH   5  26
ATOM     26  O   UNL     1      -3.352   3.233 128.972  0.00  0.00    +0.000 OA
ATOM     27  C   UNL     1      -3.871   1.943 128.672  0.00  0.00    +0.000 C 
ENDBRANCH   5  26
BRANCH   1  28
ATOM     28  O   UNL     1      -5.306   3.702 133.294  0.00  0.00    +0.000 OA
BRANCH  28  32
ATOM     29  N   UNL     1      -6.617   0.670 131.480  0.00  0.00    +0.000 NA
ATOM     30  C   UNL     1      -5.728   0.494 132.638  0.00  0.00    +0.000 C 
ATOM     31  C   UNL     1      -6.202   1.333 133.814  0.00  0.00    +0.000 C 
ATOM     32  C   UNL     1      -6.456   2.823 133.500  0.00  0.00    +0.000 C 
ATOM     33  C   UNL     1      -7.437   2.905 132.279  0.00  0.00    +0.000 C 
ATOM     34  C   UNL     1      -7.095   2.015 131.074  0.00  0.00    +0.000 C 
BRANCH  29  35
ATOM     35  C   UNL     1      -6.061  -0.047 130.344  0.00  0.00    +0.000 C 
BRANCH  35  37
ATOM     36  C   UNL     1      -7.452  -1.000 128.467  0.00  0.00    +0.000 A 
ATOM     37  C   UNL     1      -6.860  -1.213 129.744  0.00  0.00    +0.000 A 
ATOM     38  C   UNL     1      -7.072  -2.485 130.333  0.00  0.00    +0.000 A 
ATOM     39  C   UNL     1      -6.611  -3.066 131.611  0.00  0.00    +0.000 C 
ATOM     40  C   UNL     1      -7.821  -3.457 129.721  0.00  0.00    +0.000 A 
ATOM     41  C   UNL     1      -8.413  -3.216 128.515  0.00  0.00    +0.000 A 
ATOM     42  C   UNL     1      -9.211  -4.318 127.923  0.00  0.00    +0.000 C 
ATOM     43  N   UNL     1      -8.249  -1.998 127.865  0.00  0.00    +0.000 N 
ATOM     44  O   UNL     1      -8.811  -1.811 126.739  0.00  0.00    +0.000 OA
BRANCH  36  46
ATOM     45  C   UNL     1      -8.373   1.211 127.739  0.00  0.00    +0.000 C 
ATOM     46  C   UNL     1      -7.185   0.253 127.664  0.00  0.00    +0.000 C 
ENDBRANCH  36  46
ENDBRANCH  35  37
ENDBRANCH  29  35
ENDBRANCH  28  32
ENDBRANCH   1  28
TORSDOF 8
ENDMDL
MODEL 5
REMARK VINA RESULT:     -10.1      2.264      3.198
REMARK  Name = CHEMBL68480
REMARK  12 active torsions:
REMARK  status: ('A' for Active; 'I' for Inactive)
REMARK    1  A    between atoms: C_1  and  C_2
REMARK    2  A    between atoms: C_2  and  C_3
REMARK    3  A    between atoms: C_4  and  C_5
REMARK    4  A    between atoms: C_5  and  N_6
REMARK    5  A    between atoms: C_9  and  O_10
REMARK    6  A    between atoms: O_10  and  C_11
REMARK    7  A    between atoms: C_14  and  C_15
REMARK    8  A    between atoms: C_20  and  N_21
REMARK    9  A    between atoms: C_34  and  O_35
REMARK   10  A    between atoms: O_35  and  C_36
REMARK   11  A    between atoms: C_40  and  C_41
REMARK   12  A    between atoms: C_43  and  C_44
REMARK                            x       y       z     vdW  Elec       q    Type
REMARK                         _______ _______ _______ _____ _____    ______ ____
ROOT
ATOM      1  C   UNL     1      -7.512  -1.618 131.034  0.00  0.00    +0.000 A 
ATOM      2  C   UNL     1      -7.956  -0.498 130.351  0.00  0.00    +0.000 A 
ATOM      3  C   UNL     1      -7.483   0.777 130.657  0.00  0.00    +0.000 A 
ATOM      4  C   UNL     1      -6.530   0.982 131.653  0.00  0.00    +0.000 A 
ATOM      5  C   UNL     1      -6.182  -0.144 132.446  0.00  0.00    +0.000 A 
ATOM      6  C   UNL     1      -6.770  -1.405 132.188  0.00  0.00    +0.000 A 
ENDROOT
BRANCH   4   7
ATOM      7  C   UNL     1      -5.837   2.338 131.744  0.00  0.00    +0.000 C 
ATOM      8  O   UNL     1      -4.609   2.400 131.769  0.00  0.00    +0.000 OA
ATOM      9  N   UNL     1      -6.618   3.520 131.620  0.00  0.00    +0.000 N 
ATOM     10  C   UNL     1      -6.321   4.481 130.564  0.00  0.00    +0.000 C 
ATOM     11  C   UNL     1      -6.212   5.905 131.082  0.00  0.00    +0.000 C 
ATOM     12  C   UNL     1      -7.790   6.491 131.675  0.00  0.00    +0.000 C 
ATOM     13  C   UNL     1      -7.707   5.336 132.961  0.00  0.00    +0.000 C 
ATOM     14  C   UNL     1      -7.744   3.879 132.487  0.00  0.00    +0.000 C 
BRANCH  12  15
ATOM     15  N   UNL     1      -9.062   7.087 130.460  0.00  0.00    +0.000 N 
ATOM     16  C   UNL     1      -9.957   6.543 131.490  0.00  0.00    +0.000 C 
ATOM     17  O   UNL     1      -9.903   6.600 132.754  0.00  0.00    +0.000 OA
ATOM     18  O   UNL     1     -10.858   5.693 131.065  0.00  0.00    +0.000 OA
ATOM     19  C   UNL     1     -11.954   6.528 131.092  0.00  0.00    +0.000 C 
ATOM     20  C   UNL     1     -11.843   6.903 129.695  0.00  0.00    +0.000 A 
ATOM     21  C   UNL     1     -13.289   6.911 129.117  0.00  0.00    +0.000 A 
ATOM     22  C   UNL     1     -13.631   7.100 127.820  0.00  0.00    +0.000 A 
ATOM     23  C   UNL     1     -12.489   7.496 127.162  0.00  0.00    +0.000 A 
ATOM     24  C   UNL     1     -10.961   7.602 127.849  0.00  0.00    +0.000 A 
ATOM     25  C   UNL     1     -10.475   7.140 129.238  0.00  0.00    +0.000 A 
ENDBRANCH  12  15
ENDBRANCH   4   7
BRANCH   5  26
ATOM     26  O   UNL     1      -5.236   0.018 133.426  0.00  0.00    +0.000 OA
ATOM     27  C   UNL     1      -5.680   0.125 134.774  0.00  0.00    +0.000 C 
ENDBRANCH   5  26
BRANCH   1  28
ATOM     28  O   UNL     1      -7.869  -2.906 130.738  0.00  0.00    +0.000 OA
BRANCH  28  32
ATOM     29  N   UNL     1      -6.409  -2.000 127.384  0.00  0.00    +0.000 NA
ATOM     30  C   UNL     1      -5.556  -1.960 128.581  0.00  0.00    +0.000 C 
ATOM     31  C   UNL     1      -5.693  -3.244 129.384  0.00  0.00    +0.000 C 
ATOM     32  C   UNL     1      -7.141  -3.660 129.720  0.00  0.00    +0.000 C 
ATOM     33  C   UNL     1      -7.958  -3.708 128.381  0.00  0.00    +0.000 C 
ATOM     34  C   UNL     1      -7.808  -2.493 127.452  0.00  0.00    +0.000 C 
BRANCH  29  35
ATOM     35  C   UNL     1      -6.346  -0.712 126.715  0.00  0.00    +0.000 C 
BRANCH  35  37
ATOM     36  C   UNL     1      -8.347   0.483 125.746  0.00  0.00    +0.000 A 
ATOM     37  C   UNL     1      -7.290  -0.447 125.532  0.00  0.00    +0.000 A 
ATOM     38  C   UNL     1      -7.221  -1.038 124.245  0.00  0.00    +0.000 A 
ATOM     39  C   UNL     1      -6.276  -2.011 123.660  0.00  0.00    +0.000 C 
ATOM     40  C   UNL     1      -8.128  -0.747 123.259  0.00  0.00    +0.000 A 
ATOM     41  C   UNL     1      -9.157   0.117 123.499  0.00  0.00    +0.000 A 
ATOM     42  C   UNL     1     -10.098   0.372 122.382  0.00  0.00    +0.000 C 
ATOM     43  N   UNL     1      -9.293   0.746 124.732  0.00  0.00    +0.000 N 
ATOM     44  O   UNL     1     -10.261   1.550 124.918  0.00  0.00    +0.000 OA
BRANCH  36  46
ATOM     45  C   UNL     1      -7.689   2.611 126.889  0.00  0.00    +0.000 C 
ATOM     46  C   UNL     1      -8.450   1.292 127.019  0.00  0.00    +0.000 C 
ENDBRANCH  36  46
ENDBRANCH  35  37
ENDBRANCH  29  35
ENDBRANCH  28  32
ENDBRANCH   1  28
TORSDOF 8
ENDMDL
MODEL 6
REMARK VINA RESULT:     -10.1      3.436      5.328
REMARK  Name = CHEMBL68480
REMARK  12 active torsions:
REMARK  status: ('A' for Active; 'I' for Inactive)
REMARK    1  A    between atoms: C_1  and  C_2
REMARK    2  A    between atoms: C_2  and  C_3
REMARK    3  A    between atoms: C_4  and  C_5
REMARK    4  A    between atoms: C_5  and  N_6
REMARK    5  A    between atoms: C_9  and  O_10
REMARK    6  A    between atoms: O_10  and  C_11
REMARK    7  A    between atoms: C_14  and  C_15
REMARK    8  A    between atoms: C_20  and  N_21
REMARK    9  A    between atoms: C_34  and  O_35
REMARK   10  A    between atoms: O_35  and  C_36
REMARK   11  A    between atoms: C_40  and  C_41
REMARK   12  A    between atoms: C_43  and  C_44
REMARK                            x       y       z     vdW  Elec       q    Type
REMARK                         _______ _______ _______ _____ _____    ______ ____
ROOT
ATOM      1  C   UNL     1      -7.986  -3.302 127.134  0.00  0.00    +0.000 A 
ATOM      2  C   UNL     1      -8.869  -3.704 128.123  0.00  0.00    +0.000 A 
ATOM      3  C   UNL     1      -8.654  -3.389 129.464  0.00  0.00    +0.000 A 
ATOM      4  C   UNL     1      -7.550  -2.641 129.869  0.00  0.00    +0.000 A 
ATOM      5  C   UNL     1      -6.575  -2.351 128.878  0.00  0.00    +0.000 A 
ATOM      6  C   UNL     1      -6.763  -2.790 127.545  0.00  0.00    +0.000 A 
ENDROOT
BRANCH   4   7
ATOM      7  C   UNL     1      -7.521  -2.079 131.287  0.00  0.00    +0.000 C 
ATOM      8  O   UNL     1      -7.564  -2.842 132.251  0.00  0.00    +0.000 OA
ATOM      9  N   UNL     1      -7.267  -0.692 131.474  0.00  0.00    +0.000 N 
ATOM     10  C   UNL     1      -6.127  -0.264 132.277  0.00  0.00    +0.000 C 
ATOM     11  C   UNL     1      -6.505   0.771 133.323  0.00  0.00    +0.000 C 
ATOM     12  C   UNL     1      -7.006   2.302 132.556  0.00  0.00    +0.000 C 
ATOM     13  C   UNL     1      -8.400   1.498 131.921  0.00  0.00    +0.000 C 
ATOM     14  C   UNL     1      -8.071   0.394 130.909  0.00  0.00    +0.000 C 
BRANCH  12  15
ATOM     15  N   UNL     1      -5.713   3.481 131.933  0.00  0.00    +0.000 N 
ATOM     16  C   UNL     1      -6.776   4.444 132.254  0.00  0.00    +0.000 C 
ATOM     17  O   UNL     1      -7.575   4.506 133.234  0.00  0.00    +0.000 OA
ATOM     18  O   UNL     1      -7.100   5.270 131.290  0.00  0.00    +0.000 OA
ATOM     19  C   UNL     1      -6.459   6.395 131.764  0.00  0.00    +0.000 C 
ATOM     20  C   UNL     1      -5.255   6.173 130.987  0.00  0.00    +0.000 A 
ATOM     21  C   UNL     1      -4.819   7.561 130.430  0.00  0.00    +0.000 A 
ATOM     22  C   UNL     1      -3.804   7.792 129.563  0.00  0.00    +0.000 A 
ATOM     23  C   UNL     1      -3.108   6.611 129.443  0.00  0.00    +0.000 A 
ATOM     24  C   UNL     1      -3.534   5.156 130.164  0.00  0.00    +0.000 A 
ATOM     25  C   UNL     1      -4.817   4.780 130.931  0.00  0.00    +0.000 A 
ENDBRANCH  12  15
ENDBRANCH   4   7
BRANCH   5  26
ATOM     26  O   UNL     1      -5.482  -1.605 129.239  0.00  0.00    +0.000 OA
ATOM     27  C   UNL     1      -4.237  -2.275 129.400  0.00  0.00    +0.000 C 
ENDBRANCH   5  26
BRANCH   1  28
ATOM     28  O   UNL     1      -8.171  -3.504 125.793  0.00  0.00    +0.000 OA
BRANCH  28  32
ATOM     29  N   UNL     1      -8.086  -0.377 123.692  0.00  0.00    +0.000 NA
ATOM     30  C   UNL     1      -7.974  -1.691 123.041  0.00  0.00    +0.000 C 
ATOM     31  C   UNL     1      -9.066  -2.630 123.531  0.00  0.00    +0.000 C 
ATOM     32  C   UNL     1      -9.191  -2.752 125.065  0.00  0.00    +0.000 C 
ATOM     33  C   UNL     1      -9.339  -1.308 125.660  0.00  0.00    +0.000 C 
ATOM     34  C   UNL     1      -8.337  -0.260 125.150  0.00  0.00    +0.000 C 
BRANCH  29  35
ATOM     35  C   UNL     1      -6.955   0.445 123.294  0.00  0.00    +0.000 C 
BRANCH  35  37
ATOM     36  C   UNL     1      -6.739   2.869 123.962  0.00  0.00    +0.000 A 
ATOM     37  C   UNL     1      -6.438   1.512 124.270  0.00  0.00    +0.000 A 
ATOM     38  C   UNL     1      -5.684   1.286 125.449  0.00  0.00    +0.000 A 
ATOM     39  C   UNL     1      -5.206   0.041 126.087  0.00  0.00    +0.000 C 
ATOM     40  C   UNL     1      -5.251   2.313 126.247  0.00  0.00    +0.000 A 
ATOM     41  C   UNL     1      -5.517   3.609 125.910  0.00  0.00    +0.000 A 
ATOM     42  C   UNL     1      -5.007   4.661 126.823  0.00  0.00    +0.000 C 
ATOM     43  N   UNL     1      -6.256   3.918 124.774  0.00  0.00    +0.000 N 
ATOM     44  O   UNL     1      -6.490   5.137 124.494  0.00  0.00    +0.000 OA
BRANCH  36  46
ATOM     45  C   UNL     1      -6.850   3.559 121.558  0.00  0.00    +0.000 C 
ATOM     46  C   UNL     1      -7.655   3.241 122.818  0.00  0.00    +0.000 C 
ENDBRANCH  36  46
ENDBRANCH  35  37
ENDBRANCH  29  35
ENDBRANCH  28  32
ENDBRANCH   1  28
TORSDOF 8
ENDMDL
MODEL 7
REMARK VINA RESULT:     -10.0      3.870      6.390
REMARK  Name = CHEMBL68480
REMARK  12 active torsions:
REMARK  status: ('A' for Active; 'I' for Inactive)
REMARK    1  A    between atoms: C_1  and  C_2
REMARK    2  A    between atoms: C_2  and  C_3
REMARK    3  A    between atoms: C_4  and  C_5
REMARK    4  A    between atoms: C_5  and  N_6
REMARK    5  A    between atoms: C_9  and  O_10
REMARK    6  A    between atoms: O_10  and  C_11
REMARK    7  A    between atoms: C_14  and  C_15
REMARK    8  A    between atoms: C_20  and  N_21
REMARK    9  A    between atoms: C_34  and  O_35
REMARK   10  A    between atoms: O_35  and  C_36
REMARK   11  A    between atoms: C_40  and  C_41
REMARK   12  A    between atoms: C_43  and  C_44
REMARK                            x       y       z     vdW  Elec       q    Type
REMARK                         _______ _______ _______ _____ _____    ______ ____
ROOT
ATOM      1  C   UNL     1      -7.142  -2.474 127.453  0.00  0.00    +0.000 A 
ATOM      2  C   UNL     1      -8.198  -2.690 128.323  0.00  0.00    +0.000 A 
ATOM      3  C   UNL     1      -8.013  -2.705 129.704  0.00  0.00    +0.000 A 
ATOM      4  C   UNL     1      -6.760  -2.485 130.274  0.00  0.00    +0.000 A 
ATOM      5  C   UNL     1      -5.657  -2.404 129.383  0.00  0.00    +0.000 A 
ATOM      6  C   UNL     1      -5.861  -2.514 127.987  0.00  0.00    +0.000 A 
ENDROOT
BRANCH   4   7
ATOM      7  C   UNL     1      -6.668  -2.219 131.774  0.00  0.00    +0.000 C 
ATOM      8  O   UNL     1      -6.740  -3.154 132.569  0.00  0.00    +0.000 OA
ATOM      9  N   UNL     1      -6.326  -0.914 132.223  0.00  0.00    +0.000 N 
ATOM     10  C   UNL     1      -5.147  -0.719 133.059  0.00  0.00    +0.000 C 
ATOM     11  C   UNL     1      -5.440   0.107 134.300  0.00  0.00    +0.000 C 
ATOM     12  C   UNL     1      -5.860   1.786 133.865  0.00  0.00    +0.000 C 
ATOM     13  C   UNL     1      -7.314   1.204 133.128  0.00  0.00    +0.000 C 
ATOM     14  C   UNL     1      -7.073   0.307 131.909  0.00  0.00    +0.000 C 
BRANCH  12  15
ATOM     15  N   UNL     1      -4.510   2.990 133.448  0.00  0.00    +0.000 N 
ATOM     16  C   UNL     1      -5.503   3.928 133.989  0.00  0.00    +0.000 C 
ATOM     17  O   UNL     1      -6.275   3.837 134.988  0.00  0.00    +0.000 OA
ATOM     18  O   UNL     1      -5.795   4.949 133.222  0.00  0.00    +0.000 OA
ATOM     19  C   UNL     1      -5.075   5.916 133.889  0.00  0.00    +0.000 C 
ATOM     20  C   UNL     1      -3.904   5.787 133.044  0.00  0.00    +0.000 A 
ATOM     21  C   UNL     1      -3.394   7.232 132.761  0.00  0.00    +0.000 A 
ATOM     22  C   UNL     1      -2.386   7.574 131.923  0.00  0.00    +0.000 A 
ATOM     23  C   UNL     1      -1.767   6.404 131.547  0.00  0.00    +0.000 A 
ATOM     24  C   UNL     1      -2.268   4.860 131.977  0.00  0.00    +0.000 A 
ATOM     25  C   UNL     1      -3.555   4.411 132.696  0.00  0.00    +0.000 A 
ENDBRANCH  12  15
ENDBRANCH   4   7
BRANCH   5  26
ATOM     26  O   UNL     1      -4.411  -2.175 129.909  0.00  0.00    +0.000 OA
ATOM     27  C   UNL     1      -3.367  -3.083 129.578  0.00  0.00    +0.000 C 
ENDBRANCH   5  26
BRANCH   1  28
ATOM     28  O   UNL     1      -7.260  -2.367 126.093  0.00  0.00    +0.000 OA
BRANCH  28  32
ATOM     29  N   UNL     1      -6.005   1.060 127.031  0.00  0.00    +0.000 NA
ATOM     30  C   UNL     1      -5.197   0.210 126.145  0.00  0.00    +0.000 C 
ATOM     31  C   UNL     1      -6.046  -0.354 125.017  0.00  0.00    +0.000 C 
ATOM     32  C   UNL     1      -7.350  -1.053 125.459  0.00  0.00    +0.000 C 
ATOM     33  C   UNL     1      -8.154  -0.058 126.367  0.00  0.00    +0.000 C 
ATOM     34  C   UNL     1      -7.356   0.639 127.480  0.00  0.00    +0.000 C 
BRANCH  29  35
ATOM     35  C   UNL     1      -5.190   1.475 128.160  0.00  0.00    +0.000 C 
BRANCH  35  37
ATOM     36  C   UNL     1      -5.278   3.827 129.071  0.00  0.00    +0.000 A 
ATOM     37  C   UNL     1      -4.641   2.909 128.188  0.00  0.00    +0.000 A 
ATOM     38  C   UNL     1      -3.564   3.418 127.420  0.00  0.00    +0.000 A 
ATOM     39  C   UNL     1      -2.671   2.776 126.433  0.00  0.00    +0.000 C 
ATOM     40  C   UNL     1      -3.161   4.726 127.504  0.00  0.00    +0.000 A 
ATOM     41  C   UNL     1      -3.812   5.598 128.328  0.00  0.00    +0.000 A 
ATOM     42  C   UNL     1      -3.318   6.996 128.356  0.00  0.00    +0.000 C 
ATOM     43  N   UNL     1      -4.875   5.179 129.121  0.00  0.00    +0.000 N 
ATOM     44  O   UNL     1      -5.455   6.018 129.882  0.00  0.00    +0.000 OA
BRANCH  36  46
ATOM     45  C   UNL     1      -7.739   3.655 129.497  0.00  0.00    +0.000 C 
ATOM     46  C   UNL     1      -6.341   3.383 130.051  0.00  0.00    +0.000 C 
ENDBRANCH  36  46
ENDBRANCH  35  37
ENDBRANCH  29  35
ENDBRANCH  28  32
ENDBRANCH   1  28
TORSDOF 8
ENDMDL
MODEL 8
REMARK VINA RESULT:     -10.0      2.808      4.110
REMARK  Name = CHEMBL68480
REMARK  12 active torsions:
REMARK  status: ('A' for Active; 'I' for Inactive)
REMARK    1  A    between atoms: C_1  and  C_2
REMARK    2  A    between atoms: C_2  and  C_3
REMARK    3  A    between atoms: C_4  and  C_5
REMARK    4  A    between atoms: C_5  and  N_6
REMARK    5  A    between atoms: C_9  and  O_10
REMARK    6  A    between atoms: O_10  and  C_11
REMARK    7  A    between atoms: C_14  and  C_15
REMARK    8  A    between atoms: C_20  and  N_21
REMARK    9  A    between atoms: C_34  and  O_35
REMARK   10  A    between atoms: O_35  and  C_36
REMARK   11  A    between atoms: C_40  and  C_41
REMARK   12  A    between atoms: C_43  and  C_44
REMARK                            x       y       z     vdW  Elec       q    Type
REMARK                         _______ _______ _______ _____ _____    ______ ____
ROOT
ATOM      1  C   UNL     1      -4.181  -0.891 132.081  0.00  0.00    +0.000 A 
ATOM      2  C   UNL     1      -4.280   0.333 131.441  0.00  0.00    +0.000 A 
ATOM      3  C   UNL     1      -4.940   1.411 132.028  0.00  0.00    +0.000 A 
ATOM      4  C   UNL     1      -5.516   1.311 133.294  0.00  0.00    +0.000 A 
ATOM      5  C   UNL     1      -5.538   0.021 133.886  0.00  0.00    +0.000 A 
ATOM      6  C   UNL     1      -4.964  -1.083 133.210  0.00  0.00    +0.000 A 
ENDROOT
BRANCH   4   7
ATOM      7  C   UNL     1      -5.960   2.586 134.005  0.00  0.00    +0.000 C 
ATOM      8  O   UNL     1      -5.341   2.987 134.989  0.00  0.00    +0.000 OA
ATOM      9  N   UNL     1      -6.975   3.387 133.414  0.00  0.00    +0.000 N 
ATOM     10  C   UNL     1      -6.699   4.779 133.078  0.00  0.00    +0.000 C 
ATOM     11  C   UNL     1      -7.764   5.729 133.599  0.00  0.00    +0.000 C 
ATOM     12  C   UNL     1      -9.322   5.457 132.774  0.00  0.00    +0.000 C 
ATOM     13  C   UNL     1      -9.424   3.905 133.533  0.00  0.00    +0.000 C 
ATOM     14  C   UNL     1      -8.329   2.928 133.093  0.00  0.00    +0.000 C 
BRANCH  12  15
ATOM     15  N   UNL     1      -9.598   6.164 131.078  0.00  0.00    +0.000 N 
ATOM     16  C   UNL     1     -10.934   6.386 131.647  0.00  0.00    +0.000 C 
ATOM     17  O   UNL     1     -11.295   6.779 132.795  0.00  0.00    +0.000 OA
ATOM     18  O   UNL     1     -11.935   5.928 130.937  0.00  0.00    +0.000 OA
ATOM     19  C   UNL     1     -12.374   7.123 130.409  0.00  0.00    +0.000 C 
ATOM     20  C   UNL     1     -11.615   6.989 129.181  0.00  0.00    +0.000 A 
ATOM     21  C   UNL     1     -12.549   7.455 128.024  0.00  0.00    +0.000 A 
ATOM     22  C   UNL     1     -12.276   7.388 126.699  0.00  0.00    +0.000 A 
ATOM     23  C   UNL     1     -10.949   7.040 126.585  0.00  0.00    +0.000 A 
ATOM     24  C   UNL     1      -9.930   6.668 127.866  0.00  0.00    +0.000 A 
ATOM     25  C   UNL     1     -10.262   6.466 129.358  0.00  0.00    +0.000 A 
ENDBRANCH  12  15
ENDBRANCH   4   7
BRANCH   5  26
ATOM     26  O   UNL     1      -6.085  -0.112 135.138  0.00  0.00    +0.000 OA
ATOM     27  C   UNL     1      -5.216  -0.436 136.217  0.00  0.00    +0.000 C 
ENDBRANCH   5  26
BRANCH   1  28
ATOM     28  O   UNL     1      -3.482  -1.968 131.603  0.00  0.00    +0.000 OA
BRANCH  28  32
ATOM     29  N   UNL     1      -6.036  -2.457 128.876  0.00  0.00    +0.000 NA
ATOM     30  C   UNL     1      -4.610  -2.648 128.576  0.00  0.00    +0.000 C 
ATOM     31  C   UNL     1      -3.956  -3.548 129.613  0.00  0.00    +0.000 C 
ATOM     32  C   UNL     1      -4.188  -3.136 131.082  0.00  0.00    +0.000 C 
ATOM     33  C   UNL     1      -5.734  -2.992 131.311  0.00  0.00    +0.000 C 
ATOM     34  C   UNL     1      -6.501  -2.178 130.258  0.00  0.00    +0.000 C 
BRANCH  29  35
ATOM     35  C   UNL     1      -6.593  -1.495 127.939  0.00  0.00    +0.000 C 
BRANCH  35  37
ATOM     36  C   UNL     1      -7.121  -1.418 125.473  0.00  0.00    +0.000 A 
ATOM     37  C   UNL     1      -7.395  -2.013 126.737  0.00  0.00    +0.000 A 
ATOM     38  C   UNL     1      -8.388  -3.025 126.755  0.00  0.00    +0.000 A 
ATOM     39  C   UNL     1      -8.918  -3.862 127.851  0.00  0.00    +0.000 C 
ATOM     40  C   UNL     1      -9.064  -3.403 125.624  0.00  0.00    +0.000 A 
ATOM     41  C   UNL     1      -8.813  -2.791 124.430  0.00  0.00    +0.000 A 
ATOM     42  C   UNL     1      -9.592  -3.255 123.257  0.00  0.00    +0.000 C 
ATOM     43  N   UNL     1      -7.850  -1.794 124.324  0.00  0.00    +0.000 N 
ATOM     44  O   UNL     1      -7.638  -1.249 123.194  0.00  0.00    +0.000 OA
BRANCH  36  46
ATOM     45  C   UNL     1      -6.500   1.005 125.358  0.00  0.00    +0.000 C 
ATOM     46  C   UNL     1      -5.988  -0.433 125.285  0.00  0.00    +0.000 C 
ENDBRANCH  36  46
ENDBRANCH  35  37
ENDBRANCH  29  35
ENDBRANCH  28  32
ENDBRANCH   1  28
TORSDOF 8
ENDMDL
MODEL 9
REMARK VINA RESULT:      -9.9      3.160      7.768
REMARK  Name = CHEMBL68480
REMARK  12 active torsions:
REMARK  status: ('A' for Active; 'I' for Inactive)
REMARK    1  A    between atoms: C_1  and  C_2
REMARK    2  A    between atoms: C_2  and  C_3
REMARK    3  A    between atoms: C_4  and  C_5
REMARK    4  A    between atoms: C_5  and  N_6
REMARK    5  A    between atoms: C_9  and  O_10
REMARK    6  A    between atoms: O_10  and  C_11
REMARK    7  A    between atoms: C_14  and  C_15
REMARK    8  A    between atoms: C_20  and  N_21
REMARK    9  A    between atoms: C_34  and  O_35
REMARK   10  A    between atoms: O_35  and  C_36
REMARK   11  A    between atoms: C_40  and  C_41
REMARK   12  A    between atoms: C_43  and  C_44
REMARK                            x       y       z     vdW  Elec       q    Type
REMARK                         _______ _______ _______ _____ _____    ______ ____
ROOT
ATOM      1  C   UNL     1      -3.988   4.552 132.121  0.00  0.00    +0.000 A 
ATOM      2  C   UNL     1      -3.162   4.060 131.124  0.00  0.00    +0.000 A 
ATOM      3  C   UNL     1      -3.450   4.257 129.775  0.00  0.00    +0.000 A 
ATOM      4  C   UNL     1      -4.574   4.973 129.367  0.00  0.00    +0.000 A 
ATOM      5  C   UNL     1      -5.493   5.355 130.381  0.00  0.00    +0.000 A 
ATOM      6  C   UNL     1      -5.231   5.034 131.735  0.00  0.00    +0.000 A 
ENDROOT
BRANCH   4   7
ATOM      7  C   UNL     1      -4.681   5.409 127.909  0.00  0.00    +0.000 C 
ATOM      8  O   UNL     1      -4.014   6.358 127.501  0.00  0.00    +0.000 OA
ATOM      9  N   UNL     1      -5.418   4.601 127.000  0.00  0.00    +0.000 N 
ATOM     10  C   UNL     1      -4.763   4.052 125.819  0.00  0.00    +0.000 C 
ATOM     11  C   UNL     1      -5.549   4.303 124.543  0.00  0.00    +0.000 C 
ATOM     12  C   UNL     1      -7.090   3.405 124.555  0.00  0.00    +0.000 C 
ATOM     13  C   UNL     1      -7.638   4.412 125.851  0.00  0.00    +0.000 C 
ATOM     14  C   UNL     1      -6.833   4.247 127.145  0.00  0.00    +0.000 C 
BRANCH  12  15
ATOM     15  N   UNL     1      -7.099   1.594 124.140  0.00  0.00    +0.000 N 
ATOM     16  C   UNL     1      -8.431   1.959 123.637  0.00  0.00    +0.000 C 
ATOM     17  O   UNL     1      -8.829   2.975 122.995  0.00  0.00    +0.000 OA
ATOM     18  O   UNL     1      -9.422   1.225 124.077  0.00  0.00    +0.000 OA
ATOM     19  C   UNL     1      -9.622   0.457 122.950  0.00  0.00    +0.000 C 
ATOM     20  C   UNL     1      -8.786  -0.636 123.409  0.00  0.00    +0.000 A 
ATOM     21  C   UNL     1      -9.529  -1.955 123.040  0.00  0.00    +0.000 A 
ATOM     22  C   UNL     1      -9.151  -3.209 123.385  0.00  0.00    +0.000 A 
ATOM     23  C   UNL     1      -7.889  -3.109 123.926  0.00  0.00    +0.000 A 
ATOM     24  C   UNL     1      -7.059  -1.674 124.192  0.00  0.00    +0.000 A 
ATOM     25  C   UNL     1      -7.551  -0.218 124.070  0.00  0.00    +0.000 A 
ENDBRANCH  12  15
ENDBRANCH   4   7
BRANCH   5  26
ATOM     26  O   UNL     1      -6.603   6.073 130.016  0.00  0.00    +0.000 OA
ATOM     27  C   UNL     1      -7.545   6.409 131.028  0.00  0.00    +0.000 C 
ENDBRANCH   5  26
BRANCH   1  28
ATOM     28  O   UNL     1      -3.730   4.467 133.463  0.00  0.00    +0.000 OA
BRANCH  28  32
ATOM     29  N   UNL     1      -6.209   1.630 133.529  0.00  0.00    +0.000 NA
ATOM     30  C   UNL     1      -5.086   1.590 132.580  0.00  0.00    +0.000 C 
ATOM     31  C   UNL     1      -3.773   1.888 133.286  0.00  0.00    +0.000 C 
ATOM     32  C   UNL     1      -3.762   3.173 134.142  0.00  0.00    +0.000 C 
ATOM     33  C   UNL     1      -4.970   3.106 135.140  0.00  0.00    +0.000 C 
ATOM     34  C   UNL     1      -6.327   2.714 134.535  0.00  0.00    +0.000 C 
BRANCH  29  35
ATOM     35  C   UNL     1      -7.453   1.465 132.796  0.00  0.00    +0.000 C 
BRANCH  35  37
ATOM     36  C   UNL     1      -7.693   0.840 130.363  0.00  0.00    +0.000 A 
ATOM     37  C   UNL     1      -7.531   0.388 131.704  0.00  0.00    +0.000 A 
ATOM     38  C   UNL     1      -7.461  -1.015 131.892  0.00  0.00    +0.000 A 
ATOM     39  C   UNL     1      -7.282  -1.836 133.107  0.00  0.00    +0.000 C 
ATOM     40  C   UNL     1      -7.561  -1.897 130.847  0.00  0.00    +0.000 A 
ATOM     41  C   UNL     1      -7.756  -1.443 129.575  0.00  0.00    +0.000 A 
ATOM     42  C   UNL     1      -7.860  -2.462 128.503  0.00  0.00    +0.000 C 
ATOM     43  N   UNL     1      -7.829  -0.081 129.302  0.00  0.00    +0.000 N 
ATOM     44  O   UNL     1      -8.007   0.307 128.103  0.00  0.00    +0.000 OA
BRANCH  36  46
ATOM     45  C   UNL     1      -9.041   2.910 129.951  0.00  0.00    +0.000 C 
ATOM     46  C   UNL     1      -7.637   2.308 130.005  0.00  0.00    +0.000 C 
ENDBRANCH  36  46
ENDBRANCH  35  37
ENDBRANCH  29  35
ENDBRANCH  28  32
ENDBRANCH   1  28
TORSDOF 8
ENDMDL
