MODEL 1
REMARK VINA RESULT:      -8.6      0.000      0.000
REMARK  Name = CHEMBL458654
REMARK  9 active torsions:
REMARK  status: ('A' for Active; 'I' for Inactive)
REMARK    1  A    between atoms: C_1  and  O_2
REMARK    2  A    between atoms: O_2  and  C_3
REMARK    3  A    between atoms: C_6  and  N_7
REMARK    4  A    between atoms: N_7  and  C_8
REMARK    5  A    between atoms: N_7  and  S_22
REMARK    6  A    between atoms: C_8  and  C_9
REMARK    7  A    between atoms: C_12  and  C_13
REMARK    8  A    between atoms: C_18  and  C_19
REMARK    9  A    between atoms: S_22  and  C_25
REMARK                            x       y       z     vdW  Elec       q    Type
REMARK                         _______ _______ _______ _____ _____    ______ ____
ROOT
ATOM      1  N   UNL     1     -10.360   5.541 131.395  0.00  0.00    +0.000 N 
ENDROOT
BRANCH   1   5
ATOM      2  C   UNL     1     -12.616   8.746 129.684  0.00  0.00    +0.000 A 
ATOM      3  C   UNL     1     -13.098   8.146 130.832  0.00  0.00    +0.000 A 
ATOM      4  C   UNL     1     -12.380   7.084 131.422  0.00  0.00    +0.000 A 
ATOM      5  C   UNL     1     -11.168   6.660 130.890  0.00  0.00    +0.000 A 
ATOM      6  C   UNL     1     -10.763   7.464 129.838  0.00  0.00    +0.000 A 
ATOM      7  N   UNL     1     -11.458   8.399 129.160  0.00  0.00    +0.000 NA
BRANCH   2   9
ATOM      8  C   UNL     1     -13.505  10.838 129.909  0.00  0.00    +0.000 C 
ATOM      9  O   UNL     1     -13.222   9.767 129.024  0.00  0.00    +0.000 OA
ENDBRANCH   2   9
ENDBRANCH   1   5
BRANCH   1  10
ATOM     10  S   UNL     1     -10.163   4.176 130.392  0.00  0.00    +0.000 S 
ATOM     11  O   UNL     1     -11.491   3.639 130.120  0.00  0.00    +0.000 OA
ATOM     12  O   UNL     1      -9.317   4.574 129.291  0.00  0.00    +0.000 OA
BRANCH  10  13
ATOM     13  C   UNL     1      -9.279   2.762 131.064  0.00  0.00    +0.000 A 
ATOM     14  C   UNL     1      -9.762   1.708 131.827  0.00  0.00    +0.000 A 
ATOM     15  C   UNL     1      -8.751   0.769 132.185  0.00  0.00    +0.000 A 
ATOM     16  C   UNL     1      -7.520   1.131 131.692  0.00  0.00    +0.000 A 
ATOM     17  S   UNL     1      -7.583   2.646 130.921  0.00  0.00    +0.000 S 
ENDBRANCH  10  13
ENDBRANCH   1  10
BRANCH   1  18
ATOM     18  C   UNL     1      -9.616   5.546 132.696  0.00  0.00    +0.000 C 
BRANCH  18  19
ATOM     19  C   UNL     1      -8.176   6.017 132.774  0.00  0.00    +0.000 A 
ATOM     20  C   UNL     1      -7.368   5.582 133.824  0.00  0.00    +0.000 A 
ATOM     21  C   UNL     1      -5.985   5.591 133.632  0.00  0.00    +0.000 A 
ATOM     22  C   UNL     1      -5.432   6.076 132.437  0.00  0.00    +0.000 A 
ATOM     23  C   UNL     1      -6.322   6.571 131.485  0.00  0.00    +0.000 A 
ATOM     24  N   UNL     1      -7.670   6.564 131.631  0.00  0.00    +0.000 NA
BRANCH  22  25
ATOM     25  C   UNL     1      -3.985   6.092 132.212  0.00  0.00    +0.000 A 
ATOM     26  C   UNL     1      -3.328   7.322 132.383  0.00  0.00    +0.000 A 
ATOM     27  C   UNL     1      -1.945   7.422 132.278  0.00  0.00    +0.000 A 
ATOM     28  C   UNL     1      -1.190   6.292 131.993  0.00  0.00    +0.000 A 
ATOM     29  C   UNL     1      -1.820   5.067 131.784  0.00  0.00    +0.000 A 
ATOM     30  C   UNL     1      -3.216   4.951 131.883  0.00  0.00    +0.000 A 
ATOM     31  C   UNL     1      -3.839   3.612 131.598  0.00  0.00    +0.000 C 
ENDBRANCH  22  25
ENDBRANCH  18  19
ENDBRANCH   1  18
TORSDOF 7
ENDMDL
MODEL 2
REMARK VINA RESULT:      -8.6      7.522      9.362
REMARK  Name = CHEMBL458654
REMARK  9 active torsions:
REMARK  status: ('A' for Active; 'I' for Inactive)
REMARK    1  A    between atoms: C_1  and  O_2
REMARK    2  A    between atoms: O_2  and  C_3
REMARK    3  A    between atoms: C_6  and  N_7
REMARK    4  A    between atoms: N_7  and  C_8
REMARK    5  A    between atoms: N_7  and  S_22
REMARK    6  A    between atoms: C_8  and  C_9
REMARK    7  A    between atoms: C_12  and  C_13
REMARK    8  A    between atoms: C_18  and  C_19
REMARK    9  A    between atoms: S_22  and  C_25
REMARK                            x       y       z     vdW  Elec       q    Type
REMARK                         _______ _______ _______ _____ _____    ______ ____
ROOT
ATOM      1  N   UNL     1      -8.476   1.729 124.488  0.00  0.00    +0.000 N 
ENDROOT
BRANCH   1   5
ATOM      2  C   UNL     1      -7.088   3.659 120.933  0.00  0.00    +0.000 A 
ATOM      3  C   UNL     1      -6.172   2.964 121.701  0.00  0.00    +0.000 A 
ATOM      4  C   UNL     1      -6.596   2.317 122.882  0.00  0.00    +0.000 A 
ATOM      5  C   UNL     1      -7.933   2.331 123.262  0.00  0.00    +0.000 A 
ATOM      6  C   UNL     1      -8.729   2.938 122.307  0.00  0.00    +0.000 A 
ATOM      7  N   UNL     1      -8.369   3.676 121.237  0.00  0.00    +0.000 NA
BRANCH   2   9
ATOM      8  C   UNL     1      -5.542   4.978 119.890  0.00  0.00    +0.000 C 
ATOM      9  O   UNL     1      -6.797   4.326 119.786  0.00  0.00    +0.000 OA
ENDBRANCH   2   9
ENDBRANCH   1   5
BRANCH   1  10
ATOM     10  S   UNL     1      -9.419   0.316 124.339  0.00  0.00    +0.000 S 
ATOM     11  O   UNL     1     -10.353   0.295 125.459  0.00  0.00    +0.000 OA
ATOM     12  O   UNL     1      -9.928   0.284 122.987  0.00  0.00    +0.000 OA
BRANCH  10  13
ATOM     13  C   UNL     1      -8.582  -1.269 124.473  0.00  0.00    +0.000 A 
ATOM     14  C   UNL     1      -8.820  -2.314 125.355  0.00  0.00    +0.000 A 
ATOM     15  C   UNL     1      -7.940  -3.419 125.162  0.00  0.00    +0.000 A 
ATOM     16  C   UNL     1      -7.048  -3.189 124.141  0.00  0.00    +0.000 A 
ATOM     17  S   UNL     1      -7.205  -1.611 123.525  0.00  0.00    +0.000 S 
ENDBRANCH  10  13
ENDBRANCH   1  10
BRANCH   1  18
ATOM     18  C   UNL     1      -8.188   2.215 125.876  0.00  0.00    +0.000 C 
BRANCH  18  19
ATOM     19  C   UNL     1      -7.420   1.356 126.863  0.00  0.00    +0.000 A 
ATOM     20  C   UNL     1      -7.982   1.072 128.107  0.00  0.00    +0.000 A 
ATOM     21  C   UNL     1      -7.542  -0.072 128.777  0.00  0.00    +0.000 A 
ATOM     22  C   UNL     1      -6.528  -0.874 128.233  0.00  0.00    +0.000 A 
ATOM     23  C   UNL     1      -5.969  -0.453 127.027  0.00  0.00    +0.000 A 
ATOM     24  N   UNL     1      -6.380   0.642 126.342  0.00  0.00    +0.000 NA
BRANCH  22  25
ATOM     25  C   UNL     1      -6.053  -2.080 128.916  0.00  0.00    +0.000 A 
ATOM     26  C   UNL     1      -4.687  -2.132 129.240  0.00  0.00    +0.000 A 
ATOM     27  C   UNL     1      -4.157  -3.193 129.966  0.00  0.00    +0.000 A 
ATOM     28  C   UNL     1      -4.985  -4.230 130.377  0.00  0.00    +0.000 A 
ATOM     29  C   UNL     1      -6.336  -4.220 130.037  0.00  0.00    +0.000 A 
ATOM     30  C   UNL     1      -6.884  -3.157 129.302  0.00  0.00    +0.000 A 
ATOM     31  C   UNL     1      -8.339  -3.230 128.927  0.00  0.00    +0.000 C 
ENDBRANCH  22  25
ENDBRANCH  18  19
ENDBRANCH   1  18
TORSDOF 7
ENDMDL
MODEL 3
REMARK VINA RESULT:      -8.4      7.548      9.871
REMARK  Name = CHEMBL458654
REMARK  9 active torsions:
REMARK  status: ('A' for Active; 'I' for Inactive)
REMARK    1  A    between atoms: C_1  and  O_2
REMARK    2  A    between atoms: O_2  and  C_3
REMARK    3  A    between atoms: C_6  and  N_7
REMARK    4  A    between atoms: N_7  and  C_8
REMARK    5  A    between atoms: N_7  and  S_22
REMARK    6  A    between atoms: C_8  and  C_9
REMARK    7  A    between atoms: C_12  and  C_13
REMARK    8  A    between atoms: C_18  and  C_19
REMARK    9  A    between atoms: S_22  and  C_25
REMARK                            x       y       z     vdW  Elec       q    Type
REMARK                         _______ _______ _______ _____ _____    ______ ____
ROOT
ATOM      1  N   UNL     1      -8.244   1.993 123.330  0.00  0.00    +0.000 N 
ENDROOT
BRANCH   1   5
ATOM      2  C   UNL     1      -7.033   4.221 119.887  0.00  0.00    +0.000 A 
ATOM      3  C   UNL     1      -6.056   3.597 120.639  0.00  0.00    +0.000 A 
ATOM      4  C   UNL     1      -6.420   2.855 121.784  0.00  0.00    +0.000 A 
ATOM      5  C   UNL     1      -7.755   2.705 122.141  0.00  0.00    +0.000 A 
ATOM      6  C   UNL     1      -8.602   3.264 121.199  0.00  0.00    +0.000 A 
ATOM      7  N   UNL     1      -8.312   4.084 120.169  0.00  0.00    +0.000 NA
BRANCH   2   9
ATOM      8  C   UNL     1      -5.665   5.794 118.953  0.00  0.00    +0.000 C 
ATOM      9  O   UNL     1      -6.803   4.967 118.775  0.00  0.00    +0.000 OA
ENDBRANCH   2   9
ENDBRANCH   1   5
BRANCH   1  10
ATOM     10  S   UNL     1      -8.179   2.799 124.831  0.00  0.00    +0.000 S 
ATOM     11  O   UNL     1      -7.933   4.210 124.560  0.00  0.00    +0.000 OA
ATOM     12  O   UNL     1      -9.356   2.412 125.575  0.00  0.00    +0.000 OA
BRANCH  10  13
ATOM     13  C   UNL     1      -6.851   2.362 125.961  0.00  0.00    +0.000 A 
ATOM     14  C   UNL     1      -5.494   2.215 125.705  0.00  0.00    +0.000 A 
ATOM     15  C   UNL     1      -4.744   1.850 126.861  0.00  0.00    +0.000 A 
ATOM     16  C   UNL     1      -5.545   1.722 127.970  0.00  0.00    +0.000 A 
ATOM     17  S   UNL     1      -7.188   1.919 127.574  0.00  0.00    +0.000 S 
ENDBRANCH  10  13
ENDBRANCH   1  10
BRANCH   1  18
ATOM     18  C   UNL     1      -8.883   0.638 123.310  0.00  0.00    +0.000 C 
BRANCH  18  19
ATOM     19  C   UNL     1      -8.403  -0.468 124.231  0.00  0.00    +0.000 A 
ATOM     20  C   UNL     1      -7.058  -0.837 124.217  0.00  0.00    +0.000 A 
ATOM     21  C   UNL     1      -6.537  -1.452 125.357  0.00  0.00    +0.000 A 
ATOM     22  C   UNL     1      -7.360  -1.737 126.456  0.00  0.00    +0.000 A 
ATOM     23  C   UNL     1      -8.711  -1.410 126.335  0.00  0.00    +0.000 A 
ATOM     24  N   UNL     1      -9.248  -0.798 125.250  0.00  0.00    +0.000 NA
BRANCH  22  25
ATOM     25  C   UNL     1      -6.836  -2.380 127.663  0.00  0.00    +0.000 A 
ATOM     26  C   UNL     1      -5.540  -2.017 128.065  0.00  0.00    +0.000 A 
ATOM     27  C   UNL     1      -4.987  -2.503 129.245  0.00  0.00    +0.000 A 
ATOM     28  C   UNL     1      -5.720  -3.371 130.044  0.00  0.00    +0.000 A 
ATOM     29  C   UNL     1      -6.994  -3.775 129.650  0.00  0.00    +0.000 A 
ATOM     30  C   UNL     1      -7.563  -3.295 128.460  0.00  0.00    +0.000 A 
ATOM     31  C   UNL     1      -8.922  -3.806 128.066  0.00  0.00    +0.000 C 
ENDBRANCH  22  25
ENDBRANCH  18  19
ENDBRANCH   1  18
TORSDOF 7
ENDMDL
MODEL 4
REMARK VINA RESULT:      -8.4      1.509      2.018
REMARK  Name = CHEMBL458654
REMARK  9 active torsions:
REMARK  status: ('A' for Active; 'I' for Inactive)
REMARK    1  A    between atoms: C_1  and  O_2
REMARK    2  A    between atoms: O_2  and  C_3
REMARK    3  A    between atoms: C_6  and  N_7
REMARK    4  A    between atoms: N_7  and  C_8
REMARK    5  A    between atoms: N_7  and  S_22
REMARK    6  A    between atoms: C_8  and  C_9
REMARK    7  A    between atoms: C_12  and  C_13
REMARK    8  A    between atoms: C_18  and  C_19
REMARK    9  A    between atoms: S_22  and  C_25
REMARK                            x       y       z     vdW  Elec       q    Type
REMARK                         _______ _______ _______ _____ _____    ______ ____
ROOT
ATOM      1  N   UNL     1      -9.972   5.702 131.446  0.00  0.00    +0.000 N 
ENDROOT
BRANCH   1   5
ATOM      2  C   UNL     1     -12.514   8.552 129.522  0.00  0.00    +0.000 A 
ATOM      3  C   UNL     1     -12.943   7.988 130.708  0.00  0.00    +0.000 A 
ATOM      4  C   UNL     1     -12.131   7.042 131.370  0.00  0.00    +0.000 A 
ATOM      5  C   UNL     1     -10.880   6.701 130.866  0.00  0.00    +0.000 A 
ATOM      6  C   UNL     1     -10.548   7.467 129.763  0.00  0.00    +0.000 A 
ATOM      7  N   UNL     1     -11.326   8.283 129.023  0.00  0.00    +0.000 NA
BRANCH   2   9
ATOM      8  C   UNL     1     -13.464  10.629 129.561  0.00  0.00    +0.000 C 
ATOM      9  O   UNL     1     -13.211   9.463 128.794  0.00  0.00    +0.000 OA
ENDBRANCH   2   9
ENDBRANCH   1   5
BRANCH   1  10
ATOM     10  S   UNL     1     -10.034   4.111 130.836  0.00  0.00    +0.000 S 
ATOM     11  O   UNL     1      -9.713   3.208 131.936  0.00  0.00    +0.000 OA
ATOM     12  O   UNL     1     -11.295   3.969 130.144  0.00  0.00    +0.000 OA
BRANCH  10  13
ATOM     13  C   UNL     1      -8.846   3.651 129.569  0.00  0.00    +0.000 A 
ATOM     14  C   UNL     1      -8.212   4.453 128.629  0.00  0.00    +0.000 A 
ATOM     15  C   UNL     1      -7.332   3.724 127.776  0.00  0.00    +0.000 A 
ATOM     16  C   UNL     1      -7.320   2.383 128.081  0.00  0.00    +0.000 A 
ATOM     17  S   UNL     1      -8.452   2.013 129.295  0.00  0.00    +0.000 S 
ENDBRANCH  10  13
ENDBRANCH   1  10
BRANCH   1  18
ATOM     18  C   UNL     1      -8.926   5.997 132.478  0.00  0.00    +0.000 C 
BRANCH  18  19
ATOM     19  C   UNL     1      -7.449   5.924 132.139  0.00  0.00    +0.000 A 
ATOM     20  C   UNL     1      -6.931   6.756 131.146  0.00  0.00    +0.000 A 
ATOM     21  C   UNL     1      -5.566   7.049 131.186  0.00  0.00    +0.000 A 
ATOM     22  C   UNL     1      -4.739   6.477 132.163  0.00  0.00    +0.000 A 
ATOM     23  C   UNL     1      -5.339   5.588 133.055  0.00  0.00    +0.000 A 
ATOM     24  N   UNL     1      -6.662   5.291 133.057  0.00  0.00    +0.000 NA
BRANCH  22  25
ATOM     25  C   UNL     1      -3.306   6.772 132.226  0.00  0.00    +0.000 A 
ATOM     26  C   UNL     1      -2.921   7.905 132.962  0.00  0.00    +0.000 A 
ATOM     27  C   UNL     1      -1.580   8.219 133.154  0.00  0.00    +0.000 A 
ATOM     28  C   UNL     1      -0.595   7.408 132.606  0.00  0.00    +0.000 A 
ATOM     29  C   UNL     1      -0.951   6.298 131.842  0.00  0.00    +0.000 A 
ATOM     30  C   UNL     1      -2.300   5.971 131.636  0.00  0.00    +0.000 A 
ATOM     31  C   UNL     1      -2.619   4.788 130.762  0.00  0.00    +0.000 C 
ENDBRANCH  22  25
ENDBRANCH  18  19
ENDBRANCH   1  18
TORSDOF 7
ENDMDL
MODEL 5
REMARK VINA RESULT:      -8.2      4.170      8.075
REMARK  Name = CHEMBL458654
REMARK  9 active torsions:
REMARK  status: ('A' for Active; 'I' for Inactive)
REMARK    1  A    between atoms: C_1  and  O_2
REMARK    2  A    between atoms: O_2  and  C_3
REMARK    3  A    between atoms: C_6  and  N_7
REMARK    4  A    between atoms: N_7  and  C_8
REMARK    5  A    between atoms: N_7  and  S_22
REMARK    6  A    between atoms: C_8  and  C_9
REMARK    7  A    between atoms: C_12  and  C_13
REMARK    8  A    between atoms: C_18  and  C_19
REMARK    9  A    between atoms: S_22  and  C_25
REMARK                            x       y       z     vdW  Elec       q    Type
REMARK                         _______ _______ _______ _____ _____    ______ ____
ROOT
ATOM      1  N   UNL     1      -4.935   4.522 128.750  0.00  0.00    +0.000 N 
ENDROOT
BRANCH   1   5
ATOM      2  C   UNL     1      -6.235   2.768 125.073  0.00  0.00    +0.000 A 
ATOM      3  C   UNL     1      -5.268   2.108 125.806  0.00  0.00    +0.000 A 
ATOM      4  C   UNL     1      -4.814   2.659 127.024  0.00  0.00    +0.000 A 
ATOM      5  C   UNL     1      -5.359   3.838 127.520  0.00  0.00    +0.000 A 
ATOM      6  C   UNL     1      -6.414   4.280 126.740  0.00  0.00    +0.000 A 
ATOM      7  N   UNL     1      -6.803   3.871 125.516  0.00  0.00    +0.000 NA
BRANCH   2   9
ATOM      8  C   UNL     1      -6.350   3.206 122.834  0.00  0.00    +0.000 C 
ATOM      9  O   UNL     1      -6.741   2.340 123.887  0.00  0.00    +0.000 OA
ENDBRANCH   2   9
ENDBRANCH   1   5
BRANCH   1  10
ATOM     10  S   UNL     1      -3.684   5.675 128.637  0.00  0.00    +0.000 S 
ATOM     11  O   UNL     1      -2.461   4.960 128.289  0.00  0.00    +0.000 OA
ATOM     12  O   UNL     1      -4.158   6.735 127.776  0.00  0.00    +0.000 OA
BRANCH  10  13
ATOM     13  C   UNL     1      -3.227   6.567 130.129  0.00  0.00    +0.000 A 
ATOM     14  C   UNL     1      -3.632   7.823 130.558  0.00  0.00    +0.000 A 
ATOM     15  C   UNL     1      -3.047   8.204 131.801  0.00  0.00    +0.000 A 
ATOM     16  C   UNL     1      -2.207   7.231 132.289  0.00  0.00    +0.000 A 
ATOM     17  S   UNL     1      -2.043   5.945 131.189  0.00  0.00    +0.000 S 
ENDBRANCH  10  13
ENDBRANCH   1  10
BRANCH   1  18
ATOM     18  C   UNL     1      -5.584   4.347 130.090  0.00  0.00    +0.000 C 
BRANCH  18  19
ATOM     19  C   UNL     1      -6.924   4.986 130.401  0.00  0.00    +0.000 A 
ATOM     20  C   UNL     1      -6.962   6.269 130.947  0.00  0.00    +0.000 A 
ATOM     21  C   UNL     1      -8.123   7.023 130.763  0.00  0.00    +0.000 A 
ATOM     22  C   UNL     1      -9.231   6.480 130.097  0.00  0.00    +0.000 A 
ATOM     23  C   UNL     1      -9.124   5.158 129.667  0.00  0.00    +0.000 A 
ATOM     24  N   UNL     1      -8.009   4.401 129.814  0.00  0.00    +0.000 NA
BRANCH  22  25
ATOM     25  C   UNL     1     -10.458   7.254 129.890  0.00  0.00    +0.000 A 
ATOM     26  C   UNL     1     -10.524   8.046 128.732  0.00  0.00    +0.000 A 
ATOM     27  C   UNL     1     -11.678   8.747 128.401  0.00  0.00    +0.000 A 
ATOM     28  C   UNL     1     -12.790   8.675 129.229  0.00  0.00    +0.000 A 
ATOM     29  C   UNL     1     -12.739   7.925 130.403  0.00  0.00    +0.000 A 
ATOM     30  C   UNL     1     -11.579   7.215 130.752  0.00  0.00    +0.000 A 
ATOM     31  C   UNL     1     -11.572   6.464 132.055  0.00  0.00    +0.000 C 
ENDBRANCH  22  25
ENDBRANCH  18  19
ENDBRANCH   1  18
TORSDOF 7
ENDMDL
MODEL 6
REMARK VINA RESULT:      -8.2      3.855      8.269
REMARK  Name = CHEMBL458654
REMARK  9 active torsions:
REMARK  status: ('A' for Active; 'I' for Inactive)
REMARK    1  A    between atoms: C_1  and  O_2
REMARK    2  A    between atoms: O_2  and  C_3
REMARK    3  A    between atoms: C_6  and  N_7
REMARK    4  A    between atoms: N_7  and  C_8
REMARK    5  A    between atoms: N_7  and  S_22
REMARK    6  A    between atoms: C_8  and  C_9
REMARK    7  A    between atoms: C_12  and  C_13
REMARK    8  A    between atoms: C_18  and  C_19
REMARK    9  A    between atoms: S_22  and  C_25
REMARK                            x       y       z     vdW  Elec       q    Type
REMARK                         _______ _______ _______ _____ _____    ______ ____
ROOT
ATOM      1  N   UNL     1      -4.136   5.550 130.171  0.00  0.00    +0.000 N 
ENDROOT
BRANCH   1   5
ATOM      2  C   UNL     1      -1.703   7.543 133.068  0.00  0.00    +0.000 A 
ATOM      3  C   UNL     1      -2.581   8.302 132.317  0.00  0.00    +0.000 A 
ATOM      4  C   UNL     1      -3.398   7.677 131.350  0.00  0.00    +0.000 A 
ATOM      5  C   UNL     1      -3.364   6.299 131.172  0.00  0.00    +0.000 A 
ATOM      6  C   UNL     1      -2.547   5.683 132.104  0.00  0.00    +0.000 A 
ATOM      7  N   UNL     1      -1.657   6.232 132.956  0.00  0.00    +0.000 NA
BRANCH   2   9
ATOM      8  C   UNL     1       0.065   8.939 133.446  0.00  0.00    +0.000 C 
ATOM      9  O   UNL     1      -0.865   8.032 134.017  0.00  0.00    +0.000 OA
ENDBRANCH   2   9
ENDBRANCH   1   5
BRANCH   1  10
ATOM     10  S   UNL     1      -3.655   5.661 128.539  0.00  0.00    +0.000 S 
ATOM     11  O   UNL     1      -4.335   6.814 127.960  0.00  0.00    +0.000 OA
ATOM     12  O   UNL     1      -2.211   5.601 128.515  0.00  0.00    +0.000 OA
BRANCH  10  13
ATOM     13  C   UNL     1      -4.113   4.319 127.435  0.00  0.00    +0.000 A 
ATOM     14  C   UNL     1      -3.536   3.064 127.293  0.00  0.00    +0.000 A 
ATOM     15  C   UNL     1      -4.175   2.265 126.301  0.00  0.00    +0.000 A 
ATOM     16  C   UNL     1      -5.222   2.929 125.706  0.00  0.00    +0.000 A 
ATOM     17  S   UNL     1      -5.333   4.533 126.260  0.00  0.00    +0.000 S 
ENDBRANCH  10  13
ENDBRANCH   1  10
BRANCH   1  18
ATOM     18  C   UNL     1      -5.267   4.619 130.487  0.00  0.00    +0.000 C 
BRANCH  18  19
ATOM     19  C   UNL     1      -6.685   5.135 130.650  0.00  0.00    +0.000 A 
ATOM     20  C   UNL     1      -6.903   6.343 131.312  0.00  0.00    +0.000 A 
ATOM     21  C   UNL     1      -8.079   7.041 131.029  0.00  0.00    +0.000 A 
ATOM     22  C   UNL     1      -9.032   6.509 130.147  0.00  0.00    +0.000 A 
ATOM     23  C   UNL     1      -8.759   5.252 129.607  0.00  0.00    +0.000 A 
ATOM     24  N   UNL     1      -7.622   4.554 129.847  0.00  0.00    +0.000 NA
BRANCH  22  25
ATOM     25  C   UNL     1     -10.271   7.224 129.833  0.00  0.00    +0.000 A 
ATOM     26  C   UNL     1     -10.281   7.995 128.660  0.00  0.00    +0.000 A 
ATOM     27  C   UNL     1     -11.436   8.639 128.229  0.00  0.00    +0.000 A 
ATOM     28  C   UNL     1     -12.605   8.529 128.971  0.00  0.00    +0.000 A 
ATOM     29  C   UNL     1     -12.612   7.800 130.158  0.00  0.00    +0.000 A 
ATOM     30  C   UNL     1     -11.453   7.148 130.607  0.00  0.00    +0.000 A 
ATOM     31  C   UNL     1     -11.513   6.417 131.921  0.00  0.00    +0.000 C 
ENDBRANCH  22  25
ENDBRANCH  18  19
ENDBRANCH   1  18
TORSDOF 7
ENDMDL
MODEL 7
REMARK VINA RESULT:      -7.9      5.504      6.893
REMARK  Name = CHEMBL458654
REMARK  9 active torsions:
REMARK  status: ('A' for Active; 'I' for Inactive)
REMARK    1  A    between atoms: C_1  and  O_2
REMARK    2  A    between atoms: O_2  and  C_3
REMARK    3  A    between atoms: C_6  and  N_7
REMARK    4  A    between atoms: N_7  and  C_8
REMARK    5  A    between atoms: N_7  and  S_22
REMARK    6  A    between atoms: C_8  and  C_9
REMARK    7  A    between atoms: C_12  and  C_13
REMARK    8  A    between atoms: C_18  and  C_19
REMARK    9  A    between atoms: S_22  and  C_25
REMARK                            x       y       z     vdW  Elec       q    Type
REMARK                         _______ _______ _______ _____ _____    ______ ____
ROOT
ATOM      1  N   UNL     1      -8.198   4.429 129.757  0.00  0.00    +0.000 N 
ENDROOT
BRANCH   1   5
ATOM      2  C   UNL     1     -11.593   6.966 130.319  0.00  0.00    +0.000 A 
ATOM      3  C   UNL     1     -11.684   5.651 130.733  0.00  0.00    +0.000 A 
ATOM      4  C   UNL     1     -10.582   4.785 130.562  0.00  0.00    +0.000 A 
ATOM      5  C   UNL     1      -9.389   5.248 130.020  0.00  0.00    +0.000 A 
ATOM      6  C   UNL     1      -9.423   6.615 129.802  0.00  0.00    +0.000 A 
ATOM      7  N   UNL     1     -10.475   7.458 129.828  0.00  0.00    +0.000 NA
BRANCH   2   9
ATOM      8  C   UNL     1     -12.431   8.906 129.449  0.00  0.00    +0.000 C 
ATOM      9  O   UNL     1     -12.586   7.887 130.424  0.00  0.00    +0.000 OA
ENDBRANCH   2   9
ENDBRANCH   1   5
BRANCH   1  10
ATOM     10  S   UNL     1      -6.859   4.600 130.800  0.00  0.00    +0.000 S 
ATOM     11  O   UNL     1      -7.362   5.082 132.081  0.00  0.00    +0.000 OA
ATOM     12  O   UNL     1      -6.117   3.361 130.748  0.00  0.00    +0.000 OA
BRANCH  10  13
ATOM     13  C   UNL     1      -5.608   5.815 130.367  0.00  0.00    +0.000 A 
ATOM     14  C   UNL     1      -5.456   7.118 130.822  0.00  0.00    +0.000 A 
ATOM     15  C   UNL     1      -4.339   7.786 130.241  0.00  0.00    +0.000 A 
ATOM     16  C   UNL     1      -3.668   6.980 129.353  0.00  0.00    +0.000 A 
ATOM     17  S   UNL     1      -4.463   5.491 129.143  0.00  0.00    +0.000 S 
ENDBRANCH  10  13
ENDBRANCH   1  10
BRANCH   1  18
ATOM     18  C   UNL     1      -8.102   3.381 128.689  0.00  0.00    +0.000 C 
BRANCH  18  19
ATOM     19  C   UNL     1      -7.291   3.620 127.429  0.00  0.00    +0.000 A 
ATOM     20  C   UNL     1      -6.608   2.556 126.841  0.00  0.00    +0.000 A 
ATOM     21  C   UNL     1      -6.306   2.644 125.481  0.00  0.00    +0.000 A 
ATOM     22  C   UNL     1      -6.633   3.795 124.748  0.00  0.00    +0.000 A 
ATOM     23  C   UNL     1      -7.235   4.839 125.450  0.00  0.00    +0.000 A 
ATOM     24  N   UNL     1      -7.557   4.783 126.766  0.00  0.00    +0.000 NA
BRANCH  22  25
ATOM     25  C   UNL     1      -6.328   3.909 123.320  0.00  0.00    +0.000 A 
ATOM     26  C   UNL     1      -5.105   4.508 122.976  0.00  0.00    +0.000 A 
ATOM     27  C   UNL     1      -4.685   4.583 121.653  0.00  0.00    +0.000 A 
ATOM     28  C   UNL     1      -5.487   4.065 120.644  0.00  0.00    +0.000 A 
ATOM     29  C   UNL     1      -6.721   3.499 120.955  0.00  0.00    +0.000 A 
ATOM     30  C   UNL     1      -7.160   3.419 122.286  0.00  0.00    +0.000 A 
ATOM     31  C   UNL     1      -8.523   2.840 122.551  0.00  0.00    +0.000 C 
ENDBRANCH  22  25
ENDBRANCH  18  19
ENDBRANCH   1  18
TORSDOF 7
ENDMDL
MODEL 8
REMARK VINA RESULT:      -7.9      5.150      8.038
REMARK  Name = CHEMBL458654
REMARK  9 active torsions:
REMARK  status: ('A' for Active; 'I' for Inactive)
REMARK    1  A    between atoms: C_1  and  O_2
REMARK    2  A    between atoms: O_2  and  C_3
REMARK    3  A    between atoms: C_6  and  N_7
REMARK    4  A    between atoms: N_7  and  C_8
REMARK    5  A    between atoms: N_7  and  S_22
REMARK    6  A    between atoms: C_8  and  C_9
REMARK    7  A    between atoms: C_12  and  C_13
REMARK    8  A    between atoms: C_18  and  C_19
REMARK    9  A    between atoms: S_22  and  C_25
REMARK                            x       y       z     vdW  Elec       q    Type
REMARK                         _______ _______ _______ _____ _____    ______ ____
ROOT
ATOM      1  N   UNL     1      -7.358   1.244 131.403  0.00  0.00    +0.000 N 
ENDROOT
BRANCH   1   5
ATOM      2  C   UNL     1      -9.334   4.835 132.621  0.00  0.00    +0.000 A 
ATOM      3  C   UNL     1      -8.984   3.919 133.594  0.00  0.00    +0.000 A 
ATOM      4  C   UNL     1      -8.332   2.722 133.227  0.00  0.00    +0.000 A 
ATOM      5  C   UNL     1      -7.996   2.470 131.902  0.00  0.00    +0.000 A 
ATOM      6  C   UNL     1      -8.283   3.553 131.089  0.00  0.00    +0.000 A 
ATOM      7  N   UNL     1      -9.011   4.655 131.357  0.00  0.00    +0.000 NA
BRANCH   2   9
ATOM      8  C   UNL     1     -10.865   6.315 131.793  0.00  0.00    +0.000 C 
ATOM      9  O   UNL     1      -9.970   6.013 132.852  0.00  0.00    +0.000 OA
ENDBRANCH   2   9
ENDBRANCH   1   5
BRANCH   1  10
ATOM     10  S   UNL     1      -7.989  -0.255 131.914  0.00  0.00    +0.000 S 
ATOM     11  O   UNL     1      -7.454  -0.525 133.243  0.00  0.00    +0.000 OA
ATOM     12  O   UNL     1      -9.420  -0.203 131.720  0.00  0.00    +0.000 OA
BRANCH  10  13
ATOM     13  C   UNL     1      -7.529  -1.721 130.981  0.00  0.00    +0.000 A 
ATOM     14  C   UNL     1      -8.194  -2.335 129.928  0.00  0.00    +0.000 A 
ATOM     15  C   UNL     1      -7.520  -3.493 129.442  0.00  0.00    +0.000 A 
ATOM     16  C   UNL     1      -6.360  -3.740 130.138  0.00  0.00    +0.000 A 
ATOM     17  S   UNL     1      -6.173  -2.653 131.433  0.00  0.00    +0.000 S 
ENDBRANCH  10  13
ENDBRANCH   1  10
BRANCH   1  18
ATOM     18  C   UNL     1      -6.243   1.210 130.402  0.00  0.00    +0.000 C 
BRANCH  18  19
ATOM     19  C   UNL     1      -6.498   0.822 128.958  0.00  0.00    +0.000 A 
ATOM     20  C   UNL     1      -5.630  -0.066 128.322  0.00  0.00    +0.000 A 
ATOM     21  C   UNL     1      -6.118  -0.789 127.231  0.00  0.00    +0.000 A 
ATOM     22  C   UNL     1      -7.423  -0.581 126.761  0.00  0.00    +0.000 A 
ATOM     23  C   UNL     1      -8.180   0.394 127.411  0.00  0.00    +0.000 A 
ATOM     24  N   UNL     1      -7.746   1.103 128.481  0.00  0.00    +0.000 NA
BRANCH  22  25
ATOM     25  C   UNL     1      -7.957  -1.329 125.621  0.00  0.00    +0.000 A 
ATOM     26  C   UNL     1      -8.670  -2.505 125.908  0.00  0.00    +0.000 A 
ATOM     27  C   UNL     1      -9.291  -3.237 124.901  0.00  0.00    +0.000 A 
ATOM     28  C   UNL     1      -9.203  -2.810 123.583  0.00  0.00    +0.000 A 
ATOM     29  C   UNL     1      -8.472  -1.667 123.267  0.00  0.00    +0.000 A 
ATOM     30  C   UNL     1      -7.837  -0.920 124.272  0.00  0.00    +0.000 A 
ATOM     31  C   UNL     1      -7.023   0.276 123.860  0.00  0.00    +0.000 C 
ENDBRANCH  22  25
ENDBRANCH  18  19
ENDBRANCH   1  18
TORSDOF 7
ENDMDL
MODEL 9
REMARK VINA RESULT:      -7.9      7.159      9.041
REMARK  Name = CHEMBL458654
REMARK  9 active torsions:
REMARK  status: ('A' for Active; 'I' for Inactive)
REMARK    1  A    between atoms: C_1  and  O_2
REMARK    2  A    between atoms: O_2  and  C_3
REMARK    3  A    between atoms: C_6  and  N_7
REMARK    4  A    between atoms: N_7  and  C_8
REMARK    5  A    between atoms: N_7  and  S_22
REMARK    6  A    between atoms: C_8  and  C_9
REMARK    7  A    between atoms: C_12  and  C_13
REMARK    8  A    between atoms: C_18  and  C_19
REMARK    9  A    between atoms: S_22  and  C_25
REMARK                            x       y       z     vdW  Elec       q    Type
REMARK                         _______ _______ _______ _____ _____    ______ ____
ROOT
ATOM      1  N   UNL     1      -6.460   0.890 127.774  0.00  0.00    +0.000 N 
ENDROOT
BRANCH   1   5
ATOM      2  C   UNL     1      -8.820   3.822 129.804  0.00  0.00    +0.000 A 
ATOM      3  C   UNL     1      -7.460   4.041 129.689  0.00  0.00    +0.000 A 
ATOM      4  C   UNL     1      -6.651   3.093 129.027  0.00  0.00    +0.000 A 
ATOM      5  C   UNL     1      -7.210   1.960 128.448  0.00  0.00    +0.000 A 
ATOM      6  C   UNL     1      -8.591   1.975 128.525  0.00  0.00    +0.000 A 
ATOM      7  N   UNL     1      -9.398   2.779 129.246  0.00  0.00    +0.000 NA
BRANCH   2   9
ATOM      8  C   UNL     1      -9.057   5.355 131.481  0.00  0.00    +0.000 C 
ATOM      9  O   UNL     1      -9.694   4.656 130.424  0.00  0.00    +0.000 OA
ENDBRANCH   2   9
ENDBRANCH   1   5
BRANCH   1  10
ATOM     10  S   UNL     1      -6.358  -0.628 128.546  0.00  0.00    +0.000 S 
ATOM     11  O   UNL     1      -5.055  -1.196 128.220  0.00  0.00    +0.000 OA
ATOM     12  O   UNL     1      -6.721  -0.427 129.930  0.00  0.00    +0.000 OA
BRANCH  10  13
ATOM     13  C   UNL     1      -7.506  -1.910 128.030  0.00  0.00    +0.000 A 
ATOM     14  C   UNL     1      -7.895  -3.061 128.702  0.00  0.00    +0.000 A 
ATOM     15  C   UNL     1      -8.827  -3.850 127.965  0.00  0.00    +0.000 A 
ATOM     16  C   UNL     1      -9.123  -3.285 126.747  0.00  0.00    +0.000 A 
ATOM     17  S   UNL     1      -8.186  -1.895 126.464  0.00  0.00    +0.000 S 
ENDBRANCH  10  13
ENDBRANCH   1  10
BRANCH   1  18
ATOM     18  C   UNL     1      -5.851   1.004 126.410  0.00  0.00    +0.000 C 
BRANCH  18  19
ATOM     19  C   UNL     1      -6.522   1.815 125.318  0.00  0.00    +0.000 A 
ATOM     20  C   UNL     1      -6.037   3.087 125.011  0.00  0.00    +0.000 A 
ATOM     21  C   UNL     1      -6.300   3.597 123.738  0.00  0.00    +0.000 A 
ATOM     22  C   UNL     1      -7.074   2.871 122.822  0.00  0.00    +0.000 A 
ATOM     23  C   UNL     1      -7.587   1.649 123.258  0.00  0.00    +0.000 A 
ATOM     24  N   UNL     1      -7.341   1.116 124.479  0.00  0.00    +0.000 NA
BRANCH  22  25
ATOM     25  C   UNL     1      -7.360   3.385 121.480  0.00  0.00    +0.000 A 
ATOM     26  C   UNL     1      -8.710   3.458 121.101  0.00  0.00    +0.000 A 
ATOM     27  C   UNL     1      -9.089   4.014 119.884  0.00  0.00    +0.000 A 
ATOM     28  C   UNL     1      -8.121   4.501 119.016  0.00  0.00    +0.000 A 
ATOM     29  C   UNL     1      -6.772   4.408 119.352  0.00  0.00    +0.000 A 
ATOM     30  C   UNL     1      -6.374   3.846 120.576  0.00  0.00    +0.000 A 
ATOM     31  C   UNL     1      -4.901   3.731 120.859  0.00  0.00    +0.000 C 
ENDBRANCH  22  25
ENDBRANCH  18  19
ENDBRANCH   1  18
TORSDOF 7
ENDMDL
