MODEL 1
REMARK VINA RESULT:      -9.5      0.000      0.000
REMARK  Name = CHEMBL2113197
REMARK  12 active torsions:
REMARK  status: ('A' for Active; 'I' for Inactive)
REMARK    1  A    between atoms: C_1  and  C_2
REMARK    2  A    between atoms: C_2  and  O_3
REMARK    3  A    between atoms: O_3  and  C_4
REMARK    4  A    between atoms: C_7  and  S_8
REMARK    5  A    between atoms: S_8  and  N_11
REMARK    6  A    between atoms: N_11  and  C_12
REMARK    7  A    between atoms: N_11  and  C_19
REMARK    8  A    between atoms: C_15  and  C_16
REMARK    9  A    between atoms: C_19  and  C_20
REMARK   10  A    between atoms: C_19  and  C_22
REMARK   11  A    between atoms: C_20  and  O_21
REMARK   12  A    between atoms: N_24  and  N_25
REMARK                            x       y       z     vdW  Elec       q    Type
REMARK                         _______ _______ _______ _____ _____    ______ ____
ROOT
ATOM      1  N   UNL     1      -6.969   2.630 127.926  0.00  0.00    +0.000 N 
ENDROOT
BRANCH   1   2
ATOM      2  C   UNL     1      -5.617   2.872 127.547  0.00  0.00    +0.000 A 
ATOM      3  C   UNL     1      -4.632   2.335 128.378  0.00  0.00    +0.000 A 
ATOM      4  C   UNL     1      -3.291   2.530 128.085  0.00  0.00    +0.000 A 
ATOM      5  C   UNL     1      -2.916   3.025 126.837  0.00  0.00    +0.000 A 
ATOM      6  C   UNL     1      -1.474   3.005 126.436  0.00  0.00    +0.000 C 
ATOM      7  C   UNL     1      -3.904   3.487 125.959  0.00  0.00    +0.000 A 
ATOM      8  C   UNL     1      -5.247   3.520 126.362  0.00  0.00    +0.000 A 
ENDBRANCH   1   2
BRANCH   1   9
ATOM      9  S   UNL     1      -8.146   2.055 126.747  0.00  0.00    +0.000 S 
ATOM     10  O   UNL     1      -8.328   3.137 125.796  0.00  0.00    +0.000 OA
ATOM     11  O   UNL     1      -9.288   1.520 127.457  0.00  0.00    +0.000 OA
BRANCH   9  15
ATOM     12  C   UNL     1      -6.681  -1.610 124.289  0.00  0.00    +0.000 A 
ATOM     13  C   UNL     1      -7.106  -1.774 125.614  0.00  0.00    +0.000 A 
ATOM     14  C   UNL     1      -7.644  -0.685 126.347  0.00  0.00    +0.000 A 
ATOM     15  C   UNL     1      -7.610   0.605 125.796  0.00  0.00    +0.000 A 
ATOM     16  C   UNL     1      -7.003   0.732 124.563  0.00  0.00    +0.000 A 
ATOM     17  C   UNL     1      -6.705  -0.346 123.750  0.00  0.00    +0.000 A 
BRANCH  12  18
ATOM     18  O   UNL     1      -6.254  -2.701 123.586  0.00  0.00    +0.000 OA
BRANCH  18  20
ATOM     19  C   UNL     1      -4.561  -4.380 123.752  0.00  0.00    +0.000 C 
ATOM     20  C   UNL     1      -4.829  -2.901 123.586  0.00  0.00    +0.000 C 
ENDBRANCH  18  20
ENDBRANCH  12  18
ENDBRANCH   9  15
ENDBRANCH   1   9
BRANCH   1  21
ATOM     21  C   UNL     1      -7.435   3.204 129.313  0.00  0.00    +0.000 C 
BRANCH  21  22
ATOM     22  C   UNL     1      -8.792   2.704 130.092  0.00  0.00    +0.000 C 
ATOM     23  O   UNL     1      -8.942   1.545 130.555  0.00  0.00    +0.000 OA
ATOM     24  N   UNL     1      -9.740   3.748 130.363  0.00  0.00    +0.000 N 
ATOM     25  H   UNL     1      -9.331   4.637 130.644  0.00  0.00    +0.000 HD
BRANCH  24  26
ATOM     26  N   UNL     1     -11.226   3.873 130.217  0.00  0.00    +0.000 NA
ATOM     27  C   UNL     1     -11.633   5.145 130.193  0.00  0.00    +0.000 C 
ATOM     28  C   UNL     1     -10.980   6.010 131.190  0.00  0.00    +0.000 C 
ATOM     29  O   UNL     1      -9.829   6.291 130.873  0.00  0.00    +0.000 OA
ATOM     30  N   UNL     1     -11.976   6.811 131.696  0.00  0.00    +0.000 N 
ATOM     31  C   UNL     1     -12.531   7.334 130.519  0.00  0.00    +0.000 A 
ATOM     32  C   UNL     1     -12.906   8.687 130.559  0.00  0.00    +0.000 A 
ATOM     33  C   UNL     1     -13.057   9.367 129.379  0.00  0.00    +0.000 A 
ATOM     34  C   UNL     1     -12.795   8.643 128.209  0.00  0.00    +0.000 A 
ATOM     35  C   UNL     1     -12.439   7.197 128.204  0.00  0.00    +0.000 A 
ATOM     36  C   UNL     1     -12.319   6.462 129.414  0.00  0.00    +0.000 A 
ATOM     37  H   UNL     1     -12.720   6.265 132.126  0.00  0.00    +0.000 HD
ENDBRANCH  24  26
ENDBRANCH  21  22
BRANCH  21  38
ATOM     38  C   UNL     1      -7.686   4.719 129.139  0.00  0.00    +0.000 C 
BRANCH  38  39
ATOM     39  O   UNL     1      -8.647   5.112 128.175  0.00  0.00    +0.000 OA
ATOM     40  H   UNL     1      -9.276   4.397 127.993  0.00  0.00    +0.000 HD
ENDBRANCH  38  39
ENDBRANCH  21  38
ENDBRANCH   1  21
TORSDOF 10
ENDMDL
MODEL 2
REMARK VINA RESULT:      -9.5      2.483      3.077
REMARK  Name = CHEMBL2113197
REMARK  12 active torsions:
REMARK  status: ('A' for Active; 'I' for Inactive)
REMARK    1  A    between atoms: C_1  and  C_2
REMARK    2  A    between atoms: C_2  and  O_3
REMARK    3  A    between atoms: O_3  and  C_4
REMARK    4  A    between atoms: C_7  and  S_8
REMARK    5  A    between atoms: S_8  and  N_11
REMARK    6  A    between atoms: N_11  and  C_12
REMARK    7  A    between atoms: N_11  and  C_19
REMARK    8  A    between atoms: C_15  and  C_16
REMARK    9  A    between atoms: C_19  and  C_20
REMARK   10  A    between atoms: C_19  and  C_22
REMARK   11  A    between atoms: C_20  and  O_21
REMARK   12  A    between atoms: N_24  and  N_25
REMARK                            x       y       z     vdW  Elec       q    Type
REMARK                         _______ _______ _______ _____ _____    ______ ____
ROOT
ATOM      1  N   UNL     1      -6.563   3.305 128.691  0.00  0.00    +0.000 N 
ENDROOT
BRANCH   1   2
ATOM      2  C   UNL     1      -5.205   3.310 128.261  0.00  0.00    +0.000 A 
ATOM      3  C   UNL     1      -4.719   2.121 127.714  0.00  0.00    +0.000 A 
ATOM      4  C   UNL     1      -3.406   2.039 127.277  0.00  0.00    +0.000 A 
ATOM      5  C   UNL     1      -2.648   3.199 127.133  0.00  0.00    +0.000 A 
ATOM      6  C   UNL     1      -1.325   3.136 126.435  0.00  0.00    +0.000 C 
ATOM      7  C   UNL     1      -3.161   4.415 127.599  0.00  0.00    +0.000 A 
ATOM      8  C   UNL     1      -4.391   4.451 128.271  0.00  0.00    +0.000 A 
ENDBRANCH   1   2
BRANCH   1   9
ATOM      9  S   UNL     1      -7.872   3.597 127.548  0.00  0.00    +0.000 S 
ATOM     10  O   UNL     1      -8.312   4.962 127.777  0.00  0.00    +0.000 OA
ATOM     11  O   UNL     1      -8.821   2.509 127.643  0.00  0.00    +0.000 OA
BRANCH   9  15
ATOM     12  C   UNL     1      -6.720   3.325 123.051  0.00  0.00    +0.000 A 
ATOM     13  C   UNL     1      -6.187   4.340 123.855  0.00  0.00    +0.000 A 
ATOM     14  C   UNL     1      -6.453   4.382 125.248  0.00  0.00    +0.000 A 
ATOM     15  C   UNL     1      -7.383   3.490 125.804  0.00  0.00    +0.000 A 
ATOM     16  C   UNL     1      -8.019   2.638 124.923  0.00  0.00    +0.000 A 
ATOM     17  C   UNL     1      -7.589   2.428 123.626  0.00  0.00    +0.000 A 
BRANCH  12  18
ATOM     18  O   UNL     1      -6.368   3.264 121.733  0.00  0.00    +0.000 OA
BRANCH  18  20
ATOM     19  C   UNL     1      -5.578   4.803 120.082  0.00  0.00    +0.000 C 
ATOM     20  C   UNL     1      -5.241   4.082 121.369  0.00  0.00    +0.000 C 
ENDBRANCH  18  20
ENDBRANCH  12  18
ENDBRANCH   9  15
ENDBRANCH   1   9
BRANCH   1  21
ATOM     21  C   UNL     1      -6.820   3.365 130.240  0.00  0.00    +0.000 C 
BRANCH  21  22
ATOM     22  C   UNL     1      -8.289   3.100 130.926  0.00  0.00    +0.000 C 
ATOM     23  O   UNL     1      -8.515   2.181 131.754  0.00  0.00    +0.000 OA
ATOM     24  N   UNL     1      -9.268   4.111 130.643  0.00  0.00    +0.000 N 
ATOM     25  H   UNL     1      -8.912   5.065 130.638  0.00  0.00    +0.000 HD
BRANCH  24  26
ATOM     26  N   UNL     1     -10.709   4.084 130.232  0.00  0.00    +0.000 NA
ATOM     27  C   UNL     1     -11.255   5.303 130.197  0.00  0.00    +0.000 C 
ATOM     28  C   UNL     1     -10.898   6.160 131.341  0.00  0.00    +0.000 C 
ATOM     29  O   UNL     1      -9.752   6.587 131.256  0.00  0.00    +0.000 OA
ATOM     30  N   UNL     1     -12.057   6.810 131.693  0.00  0.00    +0.000 N 
ATOM     31  C   UNL     1     -12.453   7.351 130.462  0.00  0.00    +0.000 A 
ATOM     32  C   UNL     1     -12.988   8.650 130.500  0.00  0.00    +0.000 A 
ATOM     33  C   UNL     1     -13.007   9.392 129.349  0.00  0.00    +0.000 A 
ATOM     34  C   UNL     1     -12.456   8.786 128.212  0.00  0.00    +0.000 A 
ATOM     35  C   UNL     1     -11.935   7.392 128.200  0.00  0.00    +0.000 A 
ATOM     36  C   UNL     1     -11.944   6.589 129.372  0.00  0.00    +0.000 A 
ATOM     37  H   UNL     1     -12.794   6.156 131.950  0.00  0.00    +0.000 HD
ENDBRANCH  24  26
ENDBRANCH  21  22
BRANCH  21  38
ATOM     38  C   UNL     1      -6.477   4.792 130.723  0.00  0.00    +0.000 C 
BRANCH  38  39
ATOM     39  O   UNL     1      -7.152   5.870 130.100  0.00  0.00    +0.000 OA
ATOM     40  H   UNL     1      -8.066   5.943 130.416  0.00  0.00    +0.000 HD
ENDBRANCH  38  39
ENDBRANCH  21  38
ENDBRANCH   1  21
TORSDOF 10
ENDMDL
MODEL 3
REMARK VINA RESULT:      -9.4      2.493      4.073
REMARK  Name = CHEMBL2113197
REMARK  12 active torsions:
REMARK  status: ('A' for Active; 'I' for Inactive)
REMARK    1  A    between atoms: C_1  and  C_2
REMARK    2  A    between atoms: C_2  and  O_3
REMARK    3  A    between atoms: O_3  and  C_4
REMARK    4  A    between atoms: C_7  and  S_8
REMARK    5  A    between atoms: S_8  and  N_11
REMARK    6  A    between atoms: N_11  and  C_12
REMARK    7  A    between atoms: N_11  and  C_19
REMARK    8  A    between atoms: C_15  and  C_16
REMARK    9  A    between atoms: C_19  and  C_20
REMARK   10  A    between atoms: C_19  and  C_22
REMARK   11  A    between atoms: C_20  and  O_21
REMARK   12  A    between atoms: N_24  and  N_25
REMARK                            x       y       z     vdW  Elec       q    Type
REMARK                         _______ _______ _______ _____ _____    ______ ____
ROOT
ATOM      1  N   UNL     1      -7.325   2.409 127.522  0.00  0.00    +0.000 N 
ENDROOT
BRANCH   1   2
ATOM      2  C   UNL     1      -6.954   1.195 126.875  0.00  0.00    +0.000 A 
ATOM      3  C   UNL     1      -7.992   0.320 126.549  0.00  0.00    +0.000 A 
ATOM      4  C   UNL     1      -7.717  -0.887 125.925  0.00  0.00    +0.000 A 
ATOM      5  C   UNL     1      -6.453  -1.117 125.384  0.00  0.00    +0.000 A 
ATOM      6  C   UNL     1      -6.231  -2.308 124.503  0.00  0.00    +0.000 C 
ATOM      7  C   UNL     1      -5.424  -0.201 125.633  0.00  0.00    +0.000 A 
ATOM      8  C   UNL     1      -5.645   0.896 126.478  0.00  0.00    +0.000 A 
ENDBRANCH   1   2
BRANCH   1   9
ATOM      9  S   UNL     1      -7.284   3.942 126.653  0.00  0.00    +0.000 S 
ATOM     10  O   UNL     1      -6.221   4.723 127.261  0.00  0.00    +0.000 OA
ATOM     11  O   UNL     1      -8.627   4.477 126.595  0.00  0.00    +0.000 OA
BRANCH   9  15
ATOM     12  C   UNL     1      -6.165   3.526 122.159  0.00  0.00    +0.000 A 
ATOM     13  C   UNL     1      -7.326   2.920 122.656  0.00  0.00    +0.000 A 
ATOM     14  C   UNL     1      -7.732   3.115 124.001  0.00  0.00    +0.000 A 
ATOM     15  C   UNL     1      -6.884   3.794 124.890  0.00  0.00    +0.000 A 
ATOM     16  C   UNL     1      -5.666   4.201 124.386  0.00  0.00    +0.000 A 
ATOM     17  C   UNL     1      -5.375   4.233 123.035  0.00  0.00    +0.000 A 
BRANCH  12  18
ATOM     18  O   UNL     1      -5.855   3.391 120.836  0.00  0.00    +0.000 OA
BRANCH  18  20
ATOM     19  C   UNL     1      -5.515   5.331 119.482  0.00  0.00    +0.000 C 
ATOM     20  C   UNL     1      -6.527   4.313 119.960  0.00  0.00    +0.000 C 
ENDBRANCH  18  20
ENDBRANCH  12  18
ENDBRANCH   9  15
ENDBRANCH   1   9
BRANCH   1  21
ATOM     21  C   UNL     1      -7.442   2.376 129.089  0.00  0.00    +0.000 C 
BRANCH  21  22
ATOM     22  C   UNL     1      -8.111   3.587 129.974  0.00  0.00    +0.000 C 
ATOM     23  O   UNL     1      -7.484   4.243 130.844  0.00  0.00    +0.000 OA
ATOM     24  N   UNL     1      -9.432   3.966 129.559  0.00  0.00    +0.000 N 
ATOM     25  H   UNL     1      -9.580   3.976 128.552  0.00  0.00    +0.000 HD
BRANCH  24  26
ATOM     26  N   UNL     1     -10.714   4.249 130.283  0.00  0.00    +0.000 NA
ATOM     27  C   UNL     1     -11.229   5.440 129.966  0.00  0.00    +0.000 C 
ATOM     28  C   UNL     1     -10.239   6.529 129.899  0.00  0.00    +0.000 C 
ATOM     29  O   UNL     1      -9.556   6.469 128.883  0.00  0.00    +0.000 OA
ATOM     30  N   UNL     1     -10.841   7.613 130.494  0.00  0.00    +0.000 N 
ATOM     31  C   UNL     1     -12.052   7.675 129.792  0.00  0.00    +0.000 A 
ATOM     32  C   UNL     1     -12.515   8.961 129.465  0.00  0.00    +0.000 A 
ATOM     33  C   UNL     1     -13.430   9.099 128.455  0.00  0.00    +0.000 A 
ATOM     34  C   UNL     1     -13.816   7.920 127.804  0.00  0.00    +0.000 A 
ATOM     35  C   UNL     1     -13.335   6.569 128.204  0.00  0.00    +0.000 A 
ATOM     36  C   UNL     1     -12.419   6.399 129.277  0.00  0.00    +0.000 A 
ATOM     37  H   UNL     1     -11.098   7.421 131.460  0.00  0.00    +0.000 HD
ENDBRANCH  24  26
ENDBRANCH  21  22
BRANCH  21  38
ATOM     38  C   UNL     1      -6.012   2.287 129.669  0.00  0.00    +0.000 C 
BRANCH  38  39
ATOM     39  O   UNL     1      -5.886   1.944 131.037  0.00  0.00    +0.000 OA
ATOM     40  H   UNL     1      -5.782   0.986 131.152  0.00  0.00    +0.000 HD
ENDBRANCH  38  39
ENDBRANCH  21  38
ENDBRANCH   1  21
TORSDOF 10
ENDMDL
MODEL 4
REMARK VINA RESULT:      -9.1      2.352      3.335
REMARK  Name = CHEMBL2113197
REMARK  12 active torsions:
REMARK  status: ('A' for Active; 'I' for Inactive)
REMARK    1  A    between atoms: C_1  and  C_2
REMARK    2  A    between atoms: C_2  and  O_3
REMARK    3  A    between atoms: O_3  and  C_4
REMARK    4  A    between atoms: C_7  and  S_8
REMARK    5  A    between atoms: S_8  and  N_11
REMARK    6  A    between atoms: N_11  and  C_12
REMARK    7  A    between atoms: N_11  and  C_19
REMARK    8  A    between atoms: C_15  and  C_16
REMARK    9  A    between atoms: C_19  and  C_20
REMARK   10  A    between atoms: C_19  and  C_22
REMARK   11  A    between atoms: C_20  and  O_21
REMARK   12  A    between atoms: N_24  and  N_25
REMARK                            x       y       z     vdW  Elec       q    Type
REMARK                         _______ _______ _______ _____ _____    ______ ____
ROOT
ATOM      1  N   UNL     1      -7.424   1.290 129.496  0.00  0.00    +0.000 N 
ENDROOT
BRANCH   1   2
ATOM      2  C   UNL     1      -7.049  -0.083 129.551  0.00  0.00    +0.000 A 
ATOM      3  C   UNL     1      -5.700  -0.369 129.332  0.00  0.00    +0.000 A 
ATOM      4  C   UNL     1      -5.251  -1.681 129.361  0.00  0.00    +0.000 A 
ATOM      5  C   UNL     1      -6.074  -2.686 129.865  0.00  0.00    +0.000 A 
ATOM      6  C   UNL     1      -5.507  -4.048 130.122  0.00  0.00    +0.000 C 
ATOM      7  C   UNL     1      -7.408  -2.390 130.171  0.00  0.00    +0.000 A 
ATOM      8  C   UNL     1      -7.928  -1.116 129.901  0.00  0.00    +0.000 A 
ENDBRANCH   1   2
BRANCH   1   9
ATOM      9  S   UNL     1      -7.403   2.170 127.969  0.00  0.00    +0.000 S 
ATOM     10  O   UNL     1      -6.044   2.653 127.800  0.00  0.00    +0.000 OA
ATOM     11  O   UNL     1      -8.506   3.105 127.959  0.00  0.00    +0.000 OA
BRANCH   9  15
ATOM     12  C   UNL     1      -8.442  -0.353 124.204  0.00  0.00    +0.000 A 
ATOM     13  C   UNL     1      -7.106  -0.076 124.520  0.00  0.00    +0.000 A 
ATOM     14  C   UNL     1      -6.767   0.611 125.715  0.00  0.00    +0.000 A 
ATOM     15  C   UNL     1      -7.784   1.156 126.514  0.00  0.00    +0.000 A 
ATOM     16  C   UNL     1      -9.075   1.014 126.046  0.00  0.00    +0.000 A 
ATOM     17  C   UNL     1      -9.423   0.146 125.029  0.00  0.00    +0.000 A 
BRANCH  12  18
ATOM     18  O   UNL     1      -8.725  -1.095 123.093  0.00  0.00    +0.000 OA
BRANCH  18  20
ATOM     19  C   UNL     1      -9.498  -3.306 123.571  0.00  0.00    +0.000 C 
ATOM     20  C   UNL     1      -8.306  -2.470 123.161  0.00  0.00    +0.000 C 
ENDBRANCH  18  20
ENDBRANCH  12  18
ENDBRANCH   9  15
ENDBRANCH   1   9
BRANCH   1  21
ATOM     21  C   UNL     1      -7.527   2.057 130.864  0.00  0.00    +0.000 C 
BRANCH  21  22
ATOM     22  C   UNL     1      -8.942   2.604 131.493  0.00  0.00    +0.000 C 
ATOM     23  O   UNL     1      -9.319   2.370 132.670  0.00  0.00    +0.000 OA
ATOM     24  N   UNL     1      -9.649   3.527 130.650  0.00  0.00    +0.000 N 
ATOM     25  H   UNL     1      -9.061   4.193 130.153  0.00  0.00    +0.000 HD
BRANCH  24  26
ATOM     26  N   UNL     1     -11.080   3.672 130.230  0.00  0.00    +0.000 NA
ATOM     27  C   UNL     1     -11.485   4.945 130.218  0.00  0.00    +0.000 C 
ATOM     28  C   UNL     1     -11.042   5.732 131.382  0.00  0.00    +0.000 C 
ATOM     29  O   UNL     1      -9.854   6.028 131.313  0.00  0.00    +0.000 OA
ATOM     30  N   UNL     1     -12.123   6.502 131.742  0.00  0.00    +0.000 N 
ATOM     31  C   UNL     1     -12.445   7.111 130.521  0.00  0.00    +0.000 A 
ATOM     32  C   UNL     1     -12.829   8.461 130.584  0.00  0.00    +0.000 A 
ATOM     33  C   UNL     1     -12.755   9.224 129.448  0.00  0.00    +0.000 A 
ATOM     34  C   UNL     1     -12.268   8.583 128.302  0.00  0.00    +0.000 A 
ATOM     35  C   UNL     1     -11.907   7.139 128.262  0.00  0.00    +0.000 A 
ATOM     36  C   UNL     1     -12.017   6.318 129.417  0.00  0.00    +0.000 A 
ATOM     37  H   UNL     1     -12.931   5.932 131.981  0.00  0.00    +0.000 HD
ENDBRANCH  24  26
ENDBRANCH  21  22
BRANCH  21  38
ATOM     38  C   UNL     1      -6.689   3.350 130.747  0.00  0.00    +0.000 C 
BRANCH  38  39
ATOM     39  O   UNL     1      -7.082   4.453 131.543  0.00  0.00    +0.000 OA
ATOM     40  H   UNL     1      -6.595   4.474 132.382  0.00  0.00    +0.000 HD
ENDBRANCH  38  39
ENDBRANCH  21  38
ENDBRANCH   1  21
TORSDOF 10
ENDMDL
MODEL 5
REMARK VINA RESULT:      -8.8      2.168      2.746
REMARK  Name = CHEMBL2113197
REMARK  12 active torsions:
REMARK  status: ('A' for Active; 'I' for Inactive)
REMARK    1  A    between atoms: C_1  and  C_2
REMARK    2  A    between atoms: C_2  and  O_3
REMARK    3  A    between atoms: O_3  and  C_4
REMARK    4  A    between atoms: C_7  and  S_8
REMARK    5  A    between atoms: S_8  and  N_11
REMARK    6  A    between atoms: N_11  and  C_12
REMARK    7  A    between atoms: N_11  and  C_19
REMARK    8  A    between atoms: C_15  and  C_16
REMARK    9  A    between atoms: C_19  and  C_20
REMARK   10  A    between atoms: C_19  and  C_22
REMARK   11  A    between atoms: C_20  and  O_21
REMARK   12  A    between atoms: N_24  and  N_25
REMARK                            x       y       z     vdW  Elec       q    Type
REMARK                         _______ _______ _______ _____ _____    ______ ____
ROOT
ATOM      1  N   UNL     1      -5.973   3.083 128.876  0.00  0.00    +0.000 N 
ENDROOT
BRANCH   1   2
ATOM      2  C   UNL     1      -4.887   3.332 129.764  0.00  0.00    +0.000 A 
ATOM      3  C   UNL     1      -4.102   4.453 129.490  0.00  0.00    +0.000 A 
ATOM      4  C   UNL     1      -3.021   4.763 130.300  0.00  0.00    +0.000 A 
ATOM      5  C   UNL     1      -2.869   4.125 131.530  0.00  0.00    +0.000 A 
ATOM      6  C   UNL     1      -1.850   4.630 132.504  0.00  0.00    +0.000 C 
ATOM      7  C   UNL     1      -3.709   3.053 131.854  0.00  0.00    +0.000 A 
ATOM      8  C   UNL     1      -4.641   2.579 130.920  0.00  0.00    +0.000 A 
ENDBRANCH   1   2
BRANCH   1   9
ATOM      9  S   UNL     1      -5.693   2.380 127.284  0.00  0.00    +0.000 S 
ATOM     10  O   UNL     1      -4.423   1.683 127.368  0.00  0.00    +0.000 OA
ATOM     11  O   UNL     1      -5.887   3.407 126.284  0.00  0.00    +0.000 OA
BRANCH   9  15
ATOM     12  C   UNL     1      -8.849  -0.736 125.886  0.00  0.00    +0.000 A 
ATOM     13  C   UNL     1      -7.794  -1.126 126.721  0.00  0.00    +0.000 A 
ATOM     14  C   UNL     1      -6.878  -0.172 127.233  0.00  0.00    +0.000 A 
ATOM     15  C   UNL     1      -6.932   1.154 126.778  0.00  0.00    +0.000 A 
ATOM     16  C   UNL     1      -7.874   1.434 125.809  0.00  0.00    +0.000 A 
ATOM     17  C   UNL     1      -8.915   0.580 125.494  0.00  0.00    +0.000 A 
BRANCH  12  18
ATOM     18  O   UNL     1      -9.764  -1.668 125.487  0.00  0.00    +0.000 OA
BRANCH  18  20
ATOM     19  C   UNL     1      -9.490  -3.276 123.740  0.00  0.00    +0.000 C 
ATOM     20  C   UNL     1      -9.217  -2.966 125.195  0.00  0.00    +0.000 C 
ENDBRANCH  18  20
ENDBRANCH  12  18
ENDBRANCH   9  15
ENDBRANCH   1   9
BRANCH   1  21
ATOM     21  C   UNL     1      -7.350   3.757 129.226  0.00  0.00    +0.000 C 
BRANCH  21  22
ATOM     22  C   UNL     1      -8.693   2.909 129.646  0.00  0.00    +0.000 C 
ATOM     23  O   UNL     1      -8.795   1.662 129.527  0.00  0.00    +0.000 OA
ATOM     24  N   UNL     1      -9.693   3.681 130.328  0.00  0.00    +0.000 N 
ATOM     25  H   UNL     1      -9.331   4.359 130.995  0.00  0.00    +0.000 HD
BRANCH  24  26
ATOM     26  N   UNL     1     -11.181   3.806 130.203  0.00  0.00    +0.000 NA
ATOM     27  C   UNL     1     -11.588   5.078 130.171  0.00  0.00    +0.000 C 
ATOM     28  C   UNL     1     -10.919   5.953 131.149  0.00  0.00    +0.000 C 
ATOM     29  O   UNL     1      -9.774   6.230 130.811  0.00  0.00    +0.000 OA
ATOM     30  N   UNL     1     -11.908   6.761 131.660  0.00  0.00    +0.000 N 
ATOM     31  C   UNL     1     -12.480   7.271 130.487  0.00  0.00    +0.000 A 
ATOM     32  C   UNL     1     -12.853   8.625 130.517  0.00  0.00    +0.000 A 
ATOM     33  C   UNL     1     -13.021   9.293 129.333  0.00  0.00    +0.000 A 
ATOM     34  C   UNL     1     -12.777   8.555 128.166  0.00  0.00    +0.000 A 
ATOM     35  C   UNL     1     -12.422   7.109 128.172  0.00  0.00    +0.000 A 
ATOM     36  C   UNL     1     -12.284   6.387 129.387  0.00  0.00    +0.000 A 
ATOM     37  H   UNL     1     -12.645   6.220 132.108  0.00  0.00    +0.000 HD
ENDBRANCH  24  26
ENDBRANCH  21  22
BRANCH  21  38
ATOM     38  C   UNL     1      -7.823   4.543 127.983  0.00  0.00    +0.000 C 
BRANCH  38  39
ATOM     39  O   UNL     1      -8.982   5.345 128.124  0.00  0.00    +0.000 OA
ATOM     40  H   UNL     1      -9.766   4.803 128.304  0.00  0.00    +0.000 HD
ENDBRANCH  38  39
ENDBRANCH  21  38
ENDBRANCH   1  21
TORSDOF 10
ENDMDL
MODEL 6
REMARK VINA RESULT:      -8.7      3.118      4.322
REMARK  Name = CHEMBL2113197
REMARK  12 active torsions:
REMARK  status: ('A' for Active; 'I' for Inactive)
REMARK    1  A    between atoms: C_1  and  C_2
REMARK    2  A    between atoms: C_2  and  O_3
REMARK    3  A    between atoms: O_3  and  C_4
REMARK    4  A    between atoms: C_7  and  S_8
REMARK    5  A    between atoms: S_8  and  N_11
REMARK    6  A    between atoms: N_11  and  C_12
REMARK    7  A    between atoms: N_11  and  C_19
REMARK    8  A    between atoms: C_15  and  C_16
REMARK    9  A    between atoms: C_19  and  C_20
REMARK   10  A    between atoms: C_19  and  C_22
REMARK   11  A    between atoms: C_20  and  O_21
REMARK   12  A    between atoms: N_24  and  N_25
REMARK                            x       y       z     vdW  Elec       q    Type
REMARK                         _______ _______ _______ _____ _____    ______ ____
ROOT
ATOM      1  N   UNL     1      -4.578   3.912 130.675  0.00  0.00    +0.000 N 
ENDROOT
BRANCH   1   2
ATOM      2  C   UNL     1      -3.405   4.572 131.141  0.00  0.00    +0.000 A 
ATOM      3  C   UNL     1      -3.081   5.780 130.520  0.00  0.00    +0.000 A 
ATOM      4  C   UNL     1      -1.951   6.482 130.908  0.00  0.00    +0.000 A 
ATOM      5  C   UNL     1      -1.284   6.134 132.082  0.00  0.00    +0.000 A 
ATOM      6  C   UNL     1      -0.221   7.037 132.624  0.00  0.00    +0.000 C 
ATOM      7  C   UNL     1      -1.659   4.969 132.761  0.00  0.00    +0.000 A 
ATOM      8  C   UNL     1      -2.640   4.123 132.226  0.00  0.00    +0.000 A 
ENDBRANCH   1   2
BRANCH   1   9
ATOM      9  S   UNL     1      -4.508   2.805 129.306  0.00  0.00    +0.000 S 
ATOM     10  O   UNL     1      -4.697   1.473 129.853  0.00  0.00    +0.000 OA
ATOM     11  O   UNL     1      -3.324   3.103 128.530  0.00  0.00    +0.000 OA
BRANCH   9  15
ATOM     12  C   UNL     1      -7.781   3.442 126.065  0.00  0.00    +0.000 A 
ATOM     13  C   UNL     1      -7.896   2.394 126.987  0.00  0.00    +0.000 A 
ATOM     14  C   UNL     1      -6.957   2.243 128.040  0.00  0.00    +0.000 A 
ATOM     15  C   UNL     1      -5.813   3.055 128.071  0.00  0.00    +0.000 A 
ATOM     16  C   UNL     1      -5.660   3.941 127.024  0.00  0.00    +0.000 A 
ATOM     17  C   UNL     1      -6.679   4.260 126.145  0.00  0.00    +0.000 A 
BRANCH  12  18
ATOM     18  O   UNL     1      -8.754   3.610 125.121  0.00  0.00    +0.000 OA
BRANCH  18  20
ATOM     19  C   UNL     1      -9.413   2.019 123.463  0.00  0.00    +0.000 C 
ATOM     20  C   UNL     1      -8.422   3.108 123.815  0.00  0.00    +0.000 C 
ENDBRANCH  18  20
ENDBRANCH  12  18
ENDBRANCH   9  15
ENDBRANCH   1   9
BRANCH   1  21
ATOM     21  C   UNL     1      -5.957   4.457 131.198  0.00  0.00    +0.000 C 
BRANCH  21  22
ATOM     22  C   UNL     1      -7.299   3.523 131.360  0.00  0.00    +0.000 C 
ATOM     23  O   UNL     1      -7.265   2.301 131.657  0.00  0.00    +0.000 OA
ATOM     24  N   UNL     1      -8.537   4.248 131.310  0.00  0.00    +0.000 N 
ATOM     25  H   UNL     1      -8.526   5.150 131.782  0.00  0.00    +0.000 HD
BRANCH  24  26
ATOM     26  N   UNL     1      -9.845   4.033 130.611  0.00  0.00    +0.000 NA
ATOM     27  C   UNL     1     -10.561   5.157 130.507  0.00  0.00    +0.000 C 
ATOM     28  C   UNL     1     -10.577   5.980 131.728  0.00  0.00    +0.000 C 
ATOM     29  O   UNL     1      -9.520   6.578 131.895  0.00  0.00    +0.000 OA
ATOM     30  N   UNL     1     -11.872   6.426 131.857  0.00  0.00    +0.000 N 
ATOM     31  C   UNL     1     -12.098   6.983 130.591  0.00  0.00    +0.000 A 
ATOM     32  C   UNL     1     -12.830   8.182 130.563  0.00  0.00    +0.000 A 
ATOM     33  C   UNL     1     -12.739   8.987 129.458  0.00  0.00    +0.000 A 
ATOM     34  C   UNL     1     -11.885   8.546 128.438  0.00  0.00    +0.000 A 
ATOM     35  C   UNL     1     -11.156   7.249 128.485  0.00  0.00    +0.000 A 
ATOM     36  C   UNL     1     -11.269   6.378 129.603  0.00  0.00    +0.000 A 
ATOM     37  H   UNL     1     -12.532   5.655 131.935  0.00  0.00    +0.000 HD
ENDBRANCH  24  26
ENDBRANCH  21  22
BRANCH  21  38
ATOM     38  C   UNL     1      -6.432   5.559 130.224  0.00  0.00    +0.000 C 
BRANCH  38  39
ATOM     39  O   UNL     1      -6.856   6.787 130.789  0.00  0.00    +0.000 OA
ATOM     40  H   UNL     1      -6.766   6.780 131.754  0.00  0.00    +0.000 HD
ENDBRANCH  38  39
ENDBRANCH  21  38
ENDBRANCH   1  21
TORSDOF 10
ENDMDL
MODEL 7
REMARK VINA RESULT:      -8.7      2.794      8.250
REMARK  Name = CHEMBL2113197
REMARK  12 active torsions:
REMARK  status: ('A' for Active; 'I' for Inactive)
REMARK    1  A    between atoms: C_1  and  C_2
REMARK    2  A    between atoms: C_2  and  O_3
REMARK    3  A    between atoms: O_3  and  C_4
REMARK    4  A    between atoms: C_7  and  S_8
REMARK    5  A    between atoms: S_8  and  N_11
REMARK    6  A    between atoms: N_11  and  C_12
REMARK    7  A    between atoms: N_11  and  C_19
REMARK    8  A    between atoms: C_15  and  C_16
REMARK    9  A    between atoms: C_19  and  C_20
REMARK   10  A    between atoms: C_19  and  C_22
REMARK   11  A    between atoms: C_20  and  O_21
REMARK   12  A    between atoms: N_24  and  N_25
REMARK                            x       y       z     vdW  Elec       q    Type
REMARK                         _______ _______ _______ _____ _____    ______ ____
ROOT
ATOM      1  N   UNL     1      -7.479   4.344 131.002  0.00  0.00    +0.000 N 
ENDROOT
BRANCH   1   2
ATOM      2  C   UNL     1      -6.231   4.223 130.327  0.00  0.00    +0.000 A 
ATOM      3  C   UNL     1      -6.242   4.452 128.951  0.00  0.00    +0.000 A 
ATOM      4  C   UNL     1      -5.071   4.348 128.216  0.00  0.00    +0.000 A 
ATOM      5  C   UNL     1      -3.843   4.278 128.872  0.00  0.00    +0.000 A 
ATOM      6  C   UNL     1      -2.576   4.412 128.086  0.00  0.00    +0.000 C 
ATOM      7  C   UNL     1      -3.818   4.135 130.264  0.00  0.00    +0.000 A 
ATOM      8  C   UNL     1      -5.014   3.988 130.981  0.00  0.00    +0.000 A 
ENDBRANCH   1   2
BRANCH   1   9
ATOM      9  S   UNL     1      -7.944   5.859 131.774  0.00  0.00    +0.000 S 
ATOM     10  O   UNL     1      -6.903   6.816 131.447  0.00  0.00    +0.000 OA
ATOM     11  O   UNL     1      -8.267   5.592 133.159  0.00  0.00    +0.000 OA
BRANCH   9  15
ATOM     12  C   UNL     1     -11.932   7.605 130.141  0.00  0.00    +0.000 A 
ATOM     13  C   UNL     1     -11.925   6.843 131.316  0.00  0.00    +0.000 A 
ATOM     14  C   UNL     1     -10.707   6.382 131.879  0.00  0.00    +0.000 A 
ATOM     15  C   UNL     1      -9.507   6.558 131.173  0.00  0.00    +0.000 A 
ATOM     16  C   UNL     1      -9.606   7.147 129.929  0.00  0.00    +0.000 A 
ATOM     17  C   UNL     1     -10.738   7.811 129.492  0.00  0.00    +0.000 A 
BRANCH  12  18
ATOM     18  O   UNL     1     -13.115   8.107 129.680  0.00  0.00    +0.000 OA
BRANCH  18  20
ATOM     19  C   UNL     1     -13.402  10.480 129.636  0.00  0.00    +0.000 C 
ATOM     20  C   UNL     1     -12.992   9.265 128.834  0.00  0.00    +0.000 C 
ENDBRANCH  18  20
ENDBRANCH  12  18
ENDBRANCH   9  15
ENDBRANCH   1   9
BRANCH   1  21
ATOM     21  C   UNL     1      -8.252   3.012 131.317  0.00  0.00    +0.000 C 
BRANCH  21  22
ATOM     22  C   UNL     1      -7.683   1.520 130.931  0.00  0.00    +0.000 C 
ATOM     23  O   UNL     1      -7.445   0.624 131.780  0.00  0.00    +0.000 OA
ATOM     24  N   UNL     1      -7.640   1.247 129.522  0.00  0.00    +0.000 N 
ATOM     25  H   UNL     1      -8.431   1.606 128.990  0.00  0.00    +0.000 HD
BRANCH  24  26
ATOM     26  N   UNL     1      -6.621   0.638 128.607  0.00  0.00    +0.000 NA
ATOM     27  C   UNL     1      -6.869   0.897 127.319  0.00  0.00    +0.000 C 
ATOM     28  C   UNL     1      -8.285   0.760 126.936  0.00  0.00    +0.000 C 
ATOM     29  O   UNL     1      -8.963   1.701 127.335  0.00  0.00    +0.000 OA
ATOM     30  N   UNL     1      -8.279   0.135 125.711  0.00  0.00    +0.000 N 
ATOM     31  C   UNL     1      -7.396   0.951 124.991  0.00  0.00    +0.000 A 
ATOM     32  C   UNL     1      -7.740   1.205 123.653  0.00  0.00    +0.000 A 
ATOM     33  C   UNL     1      -7.188   2.289 123.021  0.00  0.00    +0.000 A 
ATOM     34  C   UNL     1      -6.326   3.082 123.791  0.00  0.00    +0.000 A 
ATOM     35  C   UNL     1      -5.953   2.758 125.196  0.00  0.00    +0.000 A 
ATOM     36  C   UNL     1      -6.481   1.616 125.856  0.00  0.00    +0.000 A 
ATOM     37  H   UNL     1      -7.829  -0.777 125.754  0.00  0.00    +0.000 HD
ENDBRANCH  24  26
ENDBRANCH  21  22
BRANCH  21  38
ATOM     38  C   UNL     1      -9.604   3.059 130.568  0.00  0.00    +0.000 C 
BRANCH  38  39
ATOM     39  O   UNL     1      -9.609   3.631 129.273  0.00  0.00    +0.000 OA
ATOM     40  H   UNL     1     -10.155   4.432 129.244  0.00  0.00    +0.000 HD
ENDBRANCH  38  39
ENDBRANCH  21  38
ENDBRANCH   1  21
TORSDOF 10
ENDMDL
MODEL 8
REMARK VINA RESULT:      -8.7      5.022      8.045
REMARK  Name = CHEMBL2113197
REMARK  12 active torsions:
REMARK  status: ('A' for Active; 'I' for Inactive)
REMARK    1  A    between atoms: C_1  and  C_2
REMARK    2  A    between atoms: C_2  and  O_3
REMARK    3  A    between atoms: O_3  and  C_4
REMARK    4  A    between atoms: C_7  and  S_8
REMARK    5  A    between atoms: S_8  and  N_11
REMARK    6  A    between atoms: N_11  and  C_12
REMARK    7  A    between atoms: N_11  and  C_19
REMARK    8  A    between atoms: C_15  and  C_16
REMARK    9  A    between atoms: C_19  and  C_20
REMARK   10  A    between atoms: C_19  and  C_22
REMARK   11  A    between atoms: C_20  and  O_21
REMARK   12  A    between atoms: N_24  and  N_25
REMARK                            x       y       z     vdW  Elec       q    Type
REMARK                         _______ _______ _______ _____ _____    ______ ____
ROOT
ATOM      1  N   UNL     1      -4.920   5.130 130.319  0.00  0.00    +0.000 N 
ENDROOT
BRANCH   1   2
ATOM      2  C   UNL     1      -5.170   4.966 131.712  0.00  0.00    +0.000 A 
ATOM      3  C   UNL     1      -4.502   3.916 132.345  0.00  0.00    +0.000 A 
ATOM      4  C   UNL     1      -4.694   3.682 133.698  0.00  0.00    +0.000 A 
ATOM      5  C   UNL     1      -5.335   4.637 134.484  0.00  0.00    +0.000 A 
ATOM      6  C   UNL     1      -5.325   4.496 135.975  0.00  0.00    +0.000 C 
ATOM      7  C   UNL     1      -5.935   5.741 133.867  0.00  0.00    +0.000 A 
ATOM      8  C   UNL     1      -5.955   5.845 132.469  0.00  0.00    +0.000 A 
ENDBRANCH   1   2
BRANCH   1   9
ATOM      9  S   UNL     1      -3.615   6.172 129.754  0.00  0.00    +0.000 S 
ATOM     10  O   UNL     1      -4.251   7.260 129.032  0.00  0.00    +0.000 OA
ATOM     11  O   UNL     1      -2.623   5.353 129.093  0.00  0.00    +0.000 OA
BRANCH   9  15
ATOM     12  C   UNL     1      -1.008   8.107 133.081  0.00  0.00    +0.000 A 
ATOM     13  C   UNL     1      -2.231   8.685 132.718  0.00  0.00    +0.000 A 
ATOM     14  C   UNL     1      -3.082   8.057 131.773  0.00  0.00    +0.000 A 
ATOM     15  C   UNL     1      -2.630   6.925 131.077  0.00  0.00    +0.000 A 
ATOM     16  C   UNL     1      -1.338   6.517 131.342  0.00  0.00    +0.000 A 
ATOM     17  C   UNL     1      -0.606   6.968 132.424  0.00  0.00    +0.000 A 
BRANCH  12  18
ATOM     18  O   UNL     1      -0.258   8.693 134.061  0.00  0.00    +0.000 OA
BRANCH  18  20
ATOM     19  C   UNL     1       0.851  10.651 133.254  0.00  0.00    +0.000 C 
ATOM     20  C   UNL     1      -0.304  10.131 134.080  0.00  0.00    +0.000 C 
ENDBRANCH  18  20
ENDBRANCH  12  18
ENDBRANCH   9  15
ENDBRANCH   1   9
BRANCH   1  21
ATOM     21  C   UNL     1      -6.035   4.631 129.331  0.00  0.00    +0.000 C 
BRANCH  21  22
ATOM     22  C   UNL     1      -7.268   3.642 129.779  0.00  0.00    +0.000 C 
ATOM     23  O   UNL     1      -7.145   2.400 129.934  0.00  0.00    +0.000 OA
ATOM     24  N   UNL     1      -8.473   4.328 130.155  0.00  0.00    +0.000 N 
ATOM     25  H   UNL     1      -8.331   5.183 130.689  0.00  0.00    +0.000 HD
BRANCH  24  26
ATOM     26  N   UNL     1      -9.925   4.135 129.842  0.00  0.00    +0.000 NA
ATOM     27  C   UNL     1     -10.666   5.196 130.175  0.00  0.00    +0.000 C 
ATOM     28  C   UNL     1     -10.332   5.782 131.484  0.00  0.00    +0.000 C 
ATOM     29  O   UNL     1      -9.289   6.425 131.448  0.00  0.00    +0.000 OA
ATOM     30  N   UNL     1     -11.537   6.089 132.071  0.00  0.00    +0.000 N 
ATOM     31  C   UNL     1     -12.150   6.844 131.062  0.00  0.00    +0.000 A 
ATOM     32  C   UNL     1     -12.885   7.963 131.486  0.00  0.00    +0.000 A 
ATOM     33  C   UNL     1     -13.154   8.959 130.584  0.00  0.00    +0.000 A 
ATOM     34  C   UNL     1     -12.639   8.781 129.293  0.00  0.00    +0.000 A 
ATOM     35  C   UNL     1     -11.898   7.561 128.869  0.00  0.00    +0.000 A 
ATOM     36  C   UNL     1     -11.645   6.497 129.776  0.00  0.00    +0.000 A 
ATOM     37  H   UNL     1     -12.123   5.264 132.186  0.00  0.00    +0.000 HD
ENDBRANCH  24  26
ENDBRANCH  21  22
BRANCH  21  38
ATOM     38  C   UNL     1      -5.347   3.821 128.208  0.00  0.00    +0.000 C 
BRANCH  38  39
ATOM     39  O   UNL     1      -4.416   2.829 128.600  0.00  0.00    +0.000 OA
ATOM     40  H   UNL     1      -3.607   2.876 128.067  0.00  0.00    +0.000 HD
ENDBRANCH  38  39
ENDBRANCH  21  38
ENDBRANCH   1  21
TORSDOF 10
ENDMDL
MODEL 9
REMARK VINA RESULT:      -8.7      2.724      8.790
REMARK  Name = CHEMBL2113197
REMARK  12 active torsions:
REMARK  status: ('A' for Active; 'I' for Inactive)
REMARK    1  A    between atoms: C_1  and  C_2
REMARK    2  A    between atoms: C_2  and  O_3
REMARK    3  A    between atoms: O_3  and  C_4
REMARK    4  A    between atoms: C_7  and  S_8
REMARK    5  A    between atoms: S_8  and  N_11
REMARK    6  A    between atoms: N_11  and  C_12
REMARK    7  A    between atoms: N_11  and  C_19
REMARK    8  A    between atoms: C_15  and  C_16
REMARK    9  A    between atoms: C_19  and  C_20
REMARK   10  A    between atoms: C_19  and  C_22
REMARK   11  A    between atoms: C_20  and  O_21
REMARK   12  A    between atoms: N_24  and  N_25
REMARK                            x       y       z     vdW  Elec       q    Type
REMARK                         _______ _______ _______ _____ _____    ______ ____
ROOT
ATOM      1  N   UNL     1      -6.406   3.577 128.980  0.00  0.00    +0.000 N 
ENDROOT
BRANCH   1   2
ATOM      2  C   UNL     1      -6.583   2.194 129.272  0.00  0.00    +0.000 A 
ATOM      3  C   UNL     1      -7.892   1.712 129.237  0.00  0.00    +0.000 A 
ATOM      4  C   UNL     1      -8.153   0.379 129.516  0.00  0.00    +0.000 A 
ATOM      5  C   UNL     1      -7.105  -0.537 129.570  0.00  0.00    +0.000 A 
ATOM      6  C   UNL     1      -7.406  -2.003 129.627  0.00  0.00    +0.000 C 
ATOM      7  C   UNL     1      -5.786  -0.072 129.519  0.00  0.00    +0.000 A 
ATOM      8  C   UNL     1      -5.523   1.304 129.489  0.00  0.00    +0.000 A 
ENDBRANCH   1   2
BRANCH   1   9
ATOM      9  S   UNL     1      -6.546   4.792 130.249  0.00  0.00    +0.000 S 
ATOM     10  O   UNL     1      -5.900   5.987 129.739  0.00  0.00    +0.000 OA
ATOM     11  O   UNL     1      -6.102   4.210 131.497  0.00  0.00    +0.000 OA
BRANCH   9  15
ATOM     12  C   UNL     1     -10.885   6.071 131.325  0.00  0.00    +0.000 A 
ATOM     13  C   UNL     1     -10.608   5.495 130.079  0.00  0.00    +0.000 A 
ATOM     14  C   UNL     1      -9.310   5.012 129.771  0.00  0.00    +0.000 A 
ATOM     15  C   UNL     1      -8.252   5.253 130.660  0.00  0.00    +0.000 A 
ATOM     16  C   UNL     1      -8.551   5.996 131.784  0.00  0.00    +0.000 A 
ATOM     17  C   UNL     1      -9.844   6.250 132.204  0.00  0.00    +0.000 A 
BRANCH  12  18
ATOM     18  O   UNL     1     -12.167   6.440 131.619  0.00  0.00    +0.000 OA
BRANCH  18  20
ATOM     19  C   UNL     1     -12.723   8.486 130.515  0.00  0.00    +0.000 C 
ATOM     20  C   UNL     1     -12.909   6.985 130.513  0.00  0.00    +0.000 C 
ENDBRANCH  18  20
ENDBRANCH  12  18
ENDBRANCH   9  15
ENDBRANCH   1   9
BRANCH   1  21
ATOM     21  C   UNL     1      -6.419   3.993 127.464  0.00  0.00    +0.000 C 
BRANCH  21  22
ATOM     22  C   UNL     1      -7.776   4.005 126.539  0.00  0.00    +0.000 C 
ATOM     23  O   UNL     1      -8.439   5.043 126.288  0.00  0.00    +0.000 OA
ATOM     24  N   UNL     1      -8.060   2.759 125.885  0.00  0.00    +0.000 N 
ATOM     25  H   UNL     1      -7.244   2.267 125.526  0.00  0.00    +0.000 HD
BRANCH  24  26
ATOM     26  N   UNL     1      -9.297   1.934 125.699  0.00  0.00    +0.000 NA
ATOM     27  C   UNL     1      -9.032   0.706 125.245  0.00  0.00    +0.000 C 
ATOM     28  C   UNL     1      -8.026   0.662 124.169  0.00  0.00    +0.000 C 
ATOM     29  O   UNL     1      -6.889   0.834 124.594  0.00  0.00    +0.000 OA
ATOM     30  N   UNL     1      -8.498  -0.254 123.259  0.00  0.00    +0.000 N 
ATOM     31  C   UNL     1      -8.742  -1.360 124.084  0.00  0.00    +0.000 A 
ATOM     32  C   UNL     1      -8.407  -2.617 123.551  0.00  0.00    +0.000 A 
ATOM     33  C   UNL     1      -8.222  -3.671 124.407  0.00  0.00    +0.000 A 
ATOM     34  C   UNL     1      -8.362  -3.392 125.773  0.00  0.00    +0.000 A 
ATOM     35  C   UNL     1      -8.758  -2.056 126.299  0.00  0.00    +0.000 A 
ATOM     36  C   UNL     1      -8.996  -0.960 125.427  0.00  0.00    +0.000 A 
ATOM     37  H   UNL     1      -9.408   0.014 122.889  0.00  0.00    +0.000 HD
ENDBRANCH  24  26
ENDBRANCH  21  22
BRANCH  21  38
ATOM     38  C   UNL     1      -5.497   3.019 126.697  0.00  0.00    +0.000 C 
BRANCH  38  39
ATOM     39  O   UNL     1      -5.265   3.289 125.326  0.00  0.00    +0.000 OA
ATOM     40  H   UNL     1      -4.377   3.654 125.184  0.00  0.00    +0.000 HD
ENDBRANCH  38  39
ENDBRANCH  21  38
ENDBRANCH   1  21
TORSDOF 10
ENDMDL
