MODEL 1
REMARK VINA RESULT:      -8.7      0.000      0.000
REMARK  Name = CHEMBL373167
REMARK  7 active torsions:
REMARK  status: ('A' for Active; 'I' for Inactive)
REMARK    1  A    between atoms: C_1  and  O_2
REMARK    2  A    between atoms: O_2  and  C_3
REMARK    3  A    between atoms: C_6  and  N_7
REMARK    4  A    between atoms: N_7  and  C_8
REMARK    5  A    between atoms: N_7  and  S_21
REMARK    6  A    between atoms: C_8  and  C_9
REMARK    7  A    between atoms: S_21  and  C_24
REMARK                            x       y       z     vdW  Elec       q    Type
REMARK                         _______ _______ _______ _____ _____    ______ ____
ROOT
ATOM      1  N   UNL     1      -8.594  -1.036 125.954  0.00  0.00    +0.000 N 
ENDROOT
BRANCH   1   5
ATOM      2  C   UNL     1      -7.050  -3.299 129.259  0.00  0.00    +0.000 A 
ATOM      3  C   UNL     1      -8.313  -3.503 128.764  0.00  0.00    +0.000 A 
ATOM      4  C   UNL     1      -8.620  -2.940 127.534  0.00  0.00    +0.000 A 
ATOM      5  C   UNL     1      -7.962  -1.831 127.019  0.00  0.00    +0.000 A 
ATOM      6  C   UNL     1      -6.672  -1.648 127.513  0.00  0.00    +0.000 A 
ATOM      7  C   UNL     1      -6.201  -2.426 128.583  0.00  0.00    +0.000 A 
BRANCH   2   9
ATOM      8  C   UNL     1      -5.264  -4.277 130.375  0.00  0.00    +0.000 C 
ATOM      9  O   UNL     1      -6.670  -4.124 130.276  0.00  0.00    +0.000 OA
ENDBRANCH   2   9
ENDBRANCH   1   5
BRANCH   1  10
ATOM     10  S   UNL     1      -8.479  -1.721 124.348  0.00  0.00    +0.000 S 
ATOM     11  O   UNL     1      -9.556  -2.622 124.101  0.00  0.00    +0.000 OA
ATOM     12  O   UNL     1      -8.327  -0.534 123.460  0.00  0.00    +0.000 OA
BRANCH  10  13
ATOM     13  C   UNL     1      -6.989  -2.659 124.043  0.00  0.00    +0.000 A 
ATOM     14  C   UNL     1      -6.823  -3.998 124.363  0.00  0.00    +0.000 A 
ATOM     15  C   UNL     1      -5.604  -4.646 124.206  0.00  0.00    +0.000 A 
ATOM     16  C   UNL     1      -4.560  -3.998 123.575  0.00  0.00    +0.000 A 
ATOM     17  C   UNL     1      -4.713  -2.670 123.182  0.00  0.00    +0.000 A 
ATOM     18  C   UNL     1      -5.915  -1.992 123.428  0.00  0.00    +0.000 A 
ENDBRANCH  10  13
ENDBRANCH   1  10
BRANCH   1  19
ATOM     19  C   UNL     1      -8.917   0.451 126.192  0.00  0.00    +0.000 C 
BRANCH  19  20
ATOM     20  C   UNL     1      -7.930   1.503 126.791  0.00  0.00    +0.000 C 
ATOM     21  O   UNL     1      -8.516   2.278 127.576  0.00  0.00    +0.000 OA
ATOM     22  N   UNL     1      -6.551   1.723 126.658  0.00  0.00    +0.000 N 
ATOM     23  C   UNL     1      -6.082   2.612 127.642  0.00  0.00    +0.000 C 
ATOM     24  C   UNL     1      -4.900   1.781 128.500  0.00  0.00    +0.000 C 
ATOM     25  C   UNL     1      -3.864   2.693 128.122  0.00  0.00    +0.000 A 
ATOM     26  C   UNL     1      -3.566   3.603 129.222  0.00  0.00    +0.000 A 
ATOM     27  C   UNL     1      -2.996   4.824 129.041  0.00  0.00    +0.000 A 
ATOM     28  C   UNL     1      -2.705   4.944 127.705  0.00  0.00    +0.000 A 
ATOM     29  C   UNL     1      -3.149   3.883 126.535  0.00  0.00    +0.000 A 
ATOM     30  C   UNL     1      -3.774   2.551 126.720  0.00  0.00    +0.000 A 
ATOM     31  C   UNL     1      -5.144   1.305 126.179  0.00  0.00    +0.000 C 
ENDBRANCH  19  20
ENDBRANCH   1  19
TORSDOF 6
ENDMDL
MODEL 2
REMARK VINA RESULT:      -8.7      2.994      4.717
REMARK  Name = CHEMBL373167
REMARK  7 active torsions:
REMARK  status: ('A' for Active; 'I' for Inactive)
REMARK    1  A    between atoms: C_1  and  O_2
REMARK    2  A    between atoms: O_2  and  C_3
REMARK    3  A    between atoms: C_6  and  N_7
REMARK    4  A    between atoms: N_7  and  C_8
REMARK    5  A    between atoms: N_7  and  S_21
REMARK    6  A    between atoms: C_8  and  C_9
REMARK    7  A    between atoms: S_21  and  C_24
REMARK                            x       y       z     vdW  Elec       q    Type
REMARK                         _______ _______ _______ _____ _____    ______ ____
ROOT
ATOM      1  N   UNL     1      -7.965   1.473 125.346  0.00  0.00    +0.000 N 
ENDROOT
BRANCH   1   5
ATOM      2  C   UNL     1      -5.855  -1.883 123.694  0.00  0.00    +0.000 A 
ATOM      3  C   UNL     1      -6.850  -1.237 123.004  0.00  0.00    +0.000 A 
ATOM      4  C   UNL     1      -7.272  -0.006 123.486  0.00  0.00    +0.000 A 
ATOM      5  C   UNL     1      -7.135   0.379 124.814  0.00  0.00    +0.000 A 
ATOM      6  C   UNL     1      -6.107  -0.268 125.496  0.00  0.00    +0.000 A 
ATOM      7  C   UNL     1      -5.431  -1.348 124.908  0.00  0.00    +0.000 A 
BRANCH   2   9
ATOM      8  C   UNL     1      -4.701  -3.887 123.894  0.00  0.00    +0.000 C 
ATOM      9  O   UNL     1      -5.234  -2.898 123.030  0.00  0.00    +0.000 OA
ENDBRANCH   2   9
ENDBRANCH   1   5
BRANCH   1  10
ATOM     10  S   UNL     1      -8.442   2.680 124.173  0.00  0.00    +0.000 S 
ATOM     11  O   UNL     1      -9.384   2.145 123.247  0.00  0.00    +0.000 OA
ATOM     12  O   UNL     1      -8.846   3.849 125.004  0.00  0.00    +0.000 OA
BRANCH  10  13
ATOM     13  C   UNL     1      -7.104   3.324 123.178  0.00  0.00    +0.000 A 
ATOM     14  C   UNL     1      -5.919   3.834 123.689  0.00  0.00    +0.000 A 
ATOM     15  C   UNL     1      -4.962   4.424 122.874  0.00  0.00    +0.000 A 
ATOM     16  C   UNL     1      -5.106   4.376 121.501  0.00  0.00    +0.000 A 
ATOM     17  C   UNL     1      -6.256   3.812 120.951  0.00  0.00    +0.000 A 
ATOM     18  C   UNL     1      -7.263   3.302 121.782  0.00  0.00    +0.000 A 
ENDBRANCH  10  13
ENDBRANCH   1  10
BRANCH   1  19
ATOM     19  C   UNL     1      -8.010   1.737 126.862  0.00  0.00    +0.000 C 
BRANCH  19  20
ATOM     20  C   UNL     1      -7.111   2.760 127.626  0.00  0.00    +0.000 C 
ATOM     21  O   UNL     1      -7.763   3.379 128.493  0.00  0.00    +0.000 OA
ATOM     22  N   UNL     1      -5.748   3.088 127.563  0.00  0.00    +0.000 N 
ATOM     23  C   UNL     1      -5.361   3.863 128.671  0.00  0.00    +0.000 C 
ATOM     24  C   UNL     1      -4.140   3.003 129.440  0.00  0.00    +0.000 C 
ATOM     25  C   UNL     1      -3.164   4.025 129.219  0.00  0.00    +0.000 A 
ATOM     26  C   UNL     1      -2.950   4.793 130.440  0.00  0.00    +0.000 A 
ATOM     27  C   UNL     1      -2.464   6.063 130.443  0.00  0.00    +0.000 A 
ATOM     28  C   UNL     1      -2.157   6.385 129.144  0.00  0.00    +0.000 A 
ATOM     29  C   UNL     1      -2.505   5.467 127.829  0.00  0.00    +0.000 A 
ATOM     30  C   UNL     1      -3.037   4.084 127.814  0.00  0.00    +0.000 A 
ATOM     31  C   UNL     1      -4.307   2.835 127.071  0.00  0.00    +0.000 C 
ENDBRANCH  19  20
ENDBRANCH   1  19
TORSDOF 6
ENDMDL
MODEL 3
REMARK VINA RESULT:      -8.7      2.702      5.002
REMARK  Name = CHEMBL373167
REMARK  7 active torsions:
REMARK  status: ('A' for Active; 'I' for Inactive)
REMARK    1  A    between atoms: C_1  and  O_2
REMARK    2  A    between atoms: O_2  and  C_3
REMARK    3  A    between atoms: C_6  and  N_7
REMARK    4  A    between atoms: N_7  and  C_8
REMARK    5  A    between atoms: N_7  and  S_21
REMARK    6  A    between atoms: C_8  and  C_9
REMARK    7  A    between atoms: S_21  and  C_24
REMARK                            x       y       z     vdW  Elec       q    Type
REMARK                         _______ _______ _______ _____ _____    ______ ____
ROOT
ATOM      1  N   UNL     1      -8.322   0.955 124.782  0.00  0.00    +0.000 N 
ENDROOT
BRANCH   1   5
ATOM      2  C   UNL     1      -7.390   3.495 121.448  0.00  0.00    +0.000 A 
ATOM      3  C   UNL     1      -6.414   2.853 122.169  0.00  0.00    +0.000 A 
ATOM      4  C   UNL     1      -6.813   1.842 123.032  0.00  0.00    +0.000 A 
ATOM      5  C   UNL     1      -8.090   1.764 123.575  0.00  0.00    +0.000 A 
ATOM      6  C   UNL     1      -9.074   2.401 122.821  0.00  0.00    +0.000 A 
ATOM      7  C   UNL     1      -8.723   3.206 121.726  0.00  0.00    +0.000 A 
BRANCH   2   9
ATOM      8  C   UNL     1      -5.565   4.496 120.419  0.00  0.00    +0.000 C 
ATOM      9  O   UNL     1      -6.956   4.227 120.383  0.00  0.00    +0.000 OA
ENDBRANCH   2   9
ENDBRANCH   1   5
BRANCH   1  10
ATOM     10  S   UNL     1      -8.695  -0.729 124.486  0.00  0.00    +0.000 S 
ATOM     11  O   UNL     1      -9.295  -1.326 125.633  0.00  0.00    +0.000 OA
ATOM     12  O   UNL     1      -9.465  -0.709 123.211  0.00  0.00    +0.000 OA
BRANCH  10  13
ATOM     13  C   UNL     1      -7.280  -1.750 124.099  0.00  0.00    +0.000 A 
ATOM     14  C   UNL     1      -6.615  -2.553 125.013  0.00  0.00    +0.000 A 
ATOM     15  C   UNL     1      -5.453  -3.237 124.682  0.00  0.00    +0.000 A 
ATOM     16  C   UNL     1      -5.016  -3.251 123.372  0.00  0.00    +0.000 A 
ATOM     17  C   UNL     1      -5.697  -2.505 122.413  0.00  0.00    +0.000 A 
ATOM     18  C   UNL     1      -6.816  -1.741 122.772  0.00  0.00    +0.000 A 
ENDBRANCH  10  13
ENDBRANCH   1  10
BRANCH   1  19
ATOM     19  C   UNL     1      -8.640   1.644 126.122  0.00  0.00    +0.000 C 
BRANCH  19  20
ATOM     20  C   UNL     1      -7.669   2.584 126.905  0.00  0.00    +0.000 C 
ATOM     21  O   UNL     1      -8.297   3.369 127.646  0.00  0.00    +0.000 OA
ATOM     22  N   UNL     1      -6.272   2.695 126.970  0.00  0.00    +0.000 N 
ATOM     23  C   UNL     1      -5.878   3.499 128.055  0.00  0.00    +0.000 C 
ATOM     24  C   UNL     1      -4.892   2.536 129.017  0.00  0.00    +0.000 C 
ATOM     25  C   UNL     1      -3.748   3.376 128.833  0.00  0.00    +0.000 A 
ATOM     26  C   UNL     1      -3.537   4.209 130.010  0.00  0.00    +0.000 A 
ATOM     27  C   UNL     1      -2.857   5.386 129.975  0.00  0.00    +0.000 A 
ATOM     28  C   UNL     1      -2.375   5.540 128.698  0.00  0.00    +0.000 A 
ATOM     29  C   UNL     1      -2.733   4.572 127.423  0.00  0.00    +0.000 A 
ATOM     30  C   UNL     1      -3.476   3.289 127.449  0.00  0.00    +0.000 A 
ATOM     31  C   UNL     1      -4.848   2.185 126.662  0.00  0.00    +0.000 C 
ENDBRANCH  19  20
ENDBRANCH   1  19
TORSDOF 6
ENDMDL
MODEL 4
REMARK VINA RESULT:      -8.5      2.888      5.745
REMARK  Name = CHEMBL373167
REMARK  7 active torsions:
REMARK  status: ('A' for Active; 'I' for Inactive)
REMARK    1  A    between atoms: C_1  and  O_2
REMARK    2  A    between atoms: O_2  and  C_3
REMARK    3  A    between atoms: C_6  and  N_7
REMARK    4  A    between atoms: N_7  and  C_8
REMARK    5  A    between atoms: N_7  and  S_21
REMARK    6  A    between atoms: C_8  and  C_9
REMARK    7  A    between atoms: S_21  and  C_24
REMARK                            x       y       z     vdW  Elec       q    Type
REMARK                         _______ _______ _______ _____ _____    ______ ____
ROOT
ATOM      1  N   UNL     1      -8.195   1.392 125.723  0.00  0.00    +0.000 N 
ENDROOT
BRANCH   1   5
ATOM      2  C   UNL     1      -6.906  -2.469 124.357  0.00  0.00    +0.000 A 
ATOM      3  C   UNL     1      -8.018  -2.309 125.145  0.00  0.00    +0.000 A 
ATOM      4  C   UNL     1      -8.518  -1.025 125.299  0.00  0.00    +0.000 A 
ATOM      5  C   UNL     1      -7.744   0.118 125.140  0.00  0.00    +0.000 A 
ATOM      6  C   UNL     1      -6.631  -0.052 124.319  0.00  0.00    +0.000 A 
ATOM      7  C   UNL     1      -6.259  -1.332 123.879  0.00  0.00    +0.000 A 
BRANCH   2   9
ATOM      8  C   UNL     1      -5.257  -4.027 123.868  0.00  0.00    +0.000 C 
ATOM      9  O   UNL     1      -6.643  -3.744 123.952  0.00  0.00    +0.000 OA
ENDBRANCH   2   9
ENDBRANCH   1   5
BRANCH   1  10
ATOM     10  S   UNL     1      -8.666   2.614 124.563  0.00  0.00    +0.000 S 
ATOM     11  O   UNL     1      -9.648   2.107 123.662  0.00  0.00    +0.000 OA
ATOM     12  O   UNL     1      -9.014   3.794 125.403  0.00  0.00    +0.000 OA
BRANCH  10  13
ATOM     13  C   UNL     1      -7.335   3.217 123.534  0.00  0.00    +0.000 A 
ATOM     14  C   UNL     1      -6.188   3.832 124.012  0.00  0.00    +0.000 A 
ATOM     15  C   UNL     1      -5.239   4.382 123.160  0.00  0.00    +0.000 A 
ATOM     16  C   UNL     1      -5.349   4.190 121.796  0.00  0.00    +0.000 A 
ATOM     17  C   UNL     1      -6.459   3.520 121.285  0.00  0.00    +0.000 A 
ATOM     18  C   UNL     1      -7.461   3.048 122.144  0.00  0.00    +0.000 A 
ENDBRANCH  10  13
ENDBRANCH   1  10
BRANCH   1  19
ATOM     19  C   UNL     1      -7.848   1.736 127.184  0.00  0.00    +0.000 C 
BRANCH  19  20
ATOM     20  C   UNL     1      -7.432   0.703 128.279  0.00  0.00    +0.000 C 
ATOM     21  O   UNL     1      -8.126   0.830 129.309  0.00  0.00    +0.000 OA
ATOM     22  N   UNL     1      -6.489  -0.334 128.322  0.00  0.00    +0.000 N 
ATOM     23  C   UNL     1      -6.708  -1.174 129.430  0.00  0.00    +0.000 C 
ATOM     24  C   UNL     1      -6.960  -2.714 128.808  0.00  0.00    +0.000 C 
ATOM     25  C   UNL     1      -5.809  -3.258 129.460  0.00  0.00    +0.000 A 
ATOM     26  C   UNL     1      -6.207  -4.018 130.639  0.00  0.00    +0.000 A 
ATOM     27  C   UNL     1      -5.373  -4.256 131.686  0.00  0.00    +0.000 A 
ATOM     28  C   UNL     1      -4.146  -3.737 131.355  0.00  0.00    +0.000 A 
ATOM     29  C   UNL     1      -3.822  -2.833 130.025  0.00  0.00    +0.000 A 
ATOM     30  C   UNL     1      -4.723  -2.566 128.879  0.00  0.00    +0.000 A 
ATOM     31  C   UNL     1      -5.460  -1.270 127.653  0.00  0.00    +0.000 C 
ENDBRANCH  19  20
ENDBRANCH   1  19
TORSDOF 6
ENDMDL
MODEL 5
REMARK VINA RESULT:      -8.5      3.223      5.696
REMARK  Name = CHEMBL373167
REMARK  7 active torsions:
REMARK  status: ('A' for Active; 'I' for Inactive)
REMARK    1  A    between atoms: C_1  and  O_2
REMARK    2  A    between atoms: O_2  and  C_3
REMARK    3  A    between atoms: C_6  and  N_7
REMARK    4  A    between atoms: N_7  and  C_8
REMARK    5  A    between atoms: N_7  and  S_21
REMARK    6  A    between atoms: C_8  and  C_9
REMARK    7  A    between atoms: S_21  and  C_24
REMARK                            x       y       z     vdW  Elec       q    Type
REMARK                         _______ _______ _______ _____ _____    ______ ____
ROOT
ATOM      1  N   UNL     1      -7.996   2.477 124.959  0.00  0.00    +0.000 N 
ENDROOT
BRANCH   1   5
ATOM      2  C   UNL     1      -6.927   3.767 121.005  0.00  0.00    +0.000 A 
ATOM      3  C   UNL     1      -5.991   3.605 121.996  0.00  0.00    +0.000 A 
ATOM      4  C   UNL     1      -6.378   2.921 123.139  0.00  0.00    +0.000 A 
ATOM      5  C   UNL     1      -7.698   2.825 123.559  0.00  0.00    +0.000 A 
ATOM      6  C   UNL     1      -8.637   2.968 122.540  0.00  0.00    +0.000 A 
ATOM      7  C   UNL     1      -8.239   3.373 121.256  0.00  0.00    +0.000 A 
BRANCH   2   9
ATOM      8  C   UNL     1      -7.460   4.473 118.859  0.00  0.00    +0.000 C 
ATOM      9  O   UNL     1      -6.442   4.130 119.784  0.00  0.00    +0.000 OA
ENDBRANCH   2   9
ENDBRANCH   1   5
BRANCH   1  10
ATOM     10  S   UNL     1      -8.427   0.803 125.232  0.00  0.00    +0.000 S 
ATOM     11  O   UNL     1      -8.383   0.488 126.621  0.00  0.00    +0.000 OA
ATOM     12  O   UNL     1      -9.718   0.641 124.506  0.00  0.00    +0.000 OA
BRANCH  10  13
ATOM     13  C   UNL     1      -7.353  -0.382 124.436  0.00  0.00    +0.000 A 
ATOM     14  C   UNL     1      -7.495  -0.818 123.127  0.00  0.00    +0.000 A 
ATOM     15  C   UNL     1      -6.699  -1.825 122.597  0.00  0.00    +0.000 A 
ATOM     16  C   UNL     1      -5.634  -2.313 123.328  0.00  0.00    +0.000 A 
ATOM     17  C   UNL     1      -5.423  -1.851 124.626  0.00  0.00    +0.000 A 
ATOM     18  C   UNL     1      -6.286  -0.902 125.190  0.00  0.00    +0.000 A 
ENDBRANCH  10  13
ENDBRANCH   1  10
BRANCH   1  19
ATOM     19  C   UNL     1      -8.325   3.587 125.974  0.00  0.00    +0.000 C 
BRANCH  19  20
ATOM     20  C   UNL     1      -7.332   4.162 127.034  0.00  0.00    +0.000 C 
ATOM     21  O   UNL     1      -7.933   4.536 128.063  0.00  0.00    +0.000 OA
ATOM     22  N   UNL     1      -5.937   4.305 127.076  0.00  0.00    +0.000 N 
ATOM     23  C   UNL     1      -5.497   4.602 128.379  0.00  0.00    +0.000 C 
ATOM     24  C   UNL     1      -4.429   3.377 128.804  0.00  0.00    +0.000 C 
ATOM     25  C   UNL     1      -3.321   4.272 128.937  0.00  0.00    +0.000 A 
ATOM     26  C   UNL     1      -3.059   4.549 130.344  0.00  0.00    +0.000 A 
ATOM     27  C   UNL     1      -2.413   5.665 130.773  0.00  0.00    +0.000 A 
ATOM     28  C   UNL     1      -2.015   6.360 129.658  0.00  0.00    +0.000 A 
ATOM     29  C   UNL     1      -2.426   5.994 128.112  0.00  0.00    +0.000 A 
ATOM     30  C   UNL     1      -3.132   4.782 127.633  0.00  0.00    +0.000 A 
ATOM     31  C   UNL     1      -4.522   4.039 126.519  0.00  0.00    +0.000 C 
ENDBRANCH  19  20
ENDBRANCH   1  19
TORSDOF 6
ENDMDL
MODEL 6
REMARK VINA RESULT:      -8.5      3.260      4.083
REMARK  Name = CHEMBL373167
REMARK  7 active torsions:
REMARK  status: ('A' for Active; 'I' for Inactive)
REMARK    1  A    between atoms: C_1  and  O_2
REMARK    2  A    between atoms: O_2  and  C_3
REMARK    3  A    between atoms: C_6  and  N_7
REMARK    4  A    between atoms: N_7  and  C_8
REMARK    5  A    between atoms: N_7  and  S_21
REMARK    6  A    between atoms: C_8  and  C_9
REMARK    7  A    between atoms: S_21  and  C_24
REMARK                            x       y       z     vdW  Elec       q    Type
REMARK                         _______ _______ _______ _____ _____    ______ ____
ROOT
ATOM      1  N   UNL     1      -7.992  -1.262 127.343  0.00  0.00    +0.000 N 
ENDROOT
BRANCH   1   5
ATOM      2  C   UNL     1      -5.739  -3.593 130.158  0.00  0.00    +0.000 A 
ATOM      3  C   UNL     1      -5.141  -2.941 129.109  0.00  0.00    +0.000 A 
ATOM      4  C   UNL     1      -5.892  -1.993 128.430  0.00  0.00    +0.000 A 
ATOM      5  C   UNL     1      -7.281  -2.001 128.399  0.00  0.00    +0.000 A 
ATOM      6  C   UNL     1      -7.875  -2.646 129.482  0.00  0.00    +0.000 A 
ATOM      7  C   UNL     1      -7.095  -3.380 130.389  0.00  0.00    +0.000 A 
BRANCH   2   9
ATOM      8  C   UNL     1      -5.569  -4.868 132.091  0.00  0.00    +0.000 C 
ATOM      9  O   UNL     1      -4.898  -4.252 131.005  0.00  0.00    +0.000 OA
ENDBRANCH   2   9
ENDBRANCH   1   5
BRANCH   1  10
ATOM     10  S   UNL     1      -8.492  -2.226 125.971  0.00  0.00    +0.000 S 
ATOM     11  O   UNL     1      -8.772  -3.567 126.367  0.00  0.00    +0.000 OA
ATOM     12  O   UNL     1      -9.585  -1.427 125.348  0.00  0.00    +0.000 OA
BRANCH  10  13
ATOM     13  C   UNL     1      -7.278  -2.353 124.667  0.00  0.00    +0.000 A 
ATOM     14  C   UNL     1      -7.354  -1.686 123.453  0.00  0.00    +0.000 A 
ATOM     15  C   UNL     1      -6.439  -1.911 122.433  0.00  0.00    +0.000 A 
ATOM     16  C   UNL     1      -5.331  -2.702 122.667  0.00  0.00    +0.000 A 
ATOM     17  C   UNL     1      -5.190  -3.338 123.899  0.00  0.00    +0.000 A 
ATOM     18  C   UNL     1      -6.165  -3.182 124.894  0.00  0.00    +0.000 A 
ENDBRANCH  10  13
ENDBRANCH   1  10
BRANCH   1  19
ATOM     19  C   UNL     1      -7.892   0.273 127.276  0.00  0.00    +0.000 C 
BRANCH  19  20
ATOM     20  C   UNL     1      -8.137   1.246 128.474  0.00  0.00    +0.000 C 
ATOM     21  O   UNL     1      -8.829   2.226 128.127  0.00  0.00    +0.000 OA
ATOM     22  N   UNL     1      -7.778   1.221 129.830  0.00  0.00    +0.000 N 
ATOM     23  C   UNL     1      -8.498   2.182 130.562  0.00  0.00    +0.000 C 
ATOM     24  C   UNL     1      -9.332   1.337 131.751  0.00  0.00    +0.000 C 
ATOM     25  C   UNL     1      -8.649   1.998 132.820  0.00  0.00    +0.000 A 
ATOM     26  C   UNL     1      -9.501   3.026 133.406  0.00  0.00    +0.000 A 
ATOM     27  C   UNL     1      -9.012   4.094 134.091  0.00  0.00    +0.000 A 
ATOM     28  C   UNL     1      -7.651   3.935 134.175  0.00  0.00    +0.000 A 
ATOM     29  C   UNL     1      -6.780   2.771 133.415  0.00  0.00    +0.000 A 
ATOM     30  C   UNL     1      -7.301   1.605 132.663  0.00  0.00    +0.000 A 
ATOM     31  C   UNL     1      -7.203   0.513 131.075  0.00  0.00    +0.000 C 
ENDBRANCH  19  20
ENDBRANCH   1  19
TORSDOF 6
ENDMDL
MODEL 7
REMARK VINA RESULT:      -8.4      3.937      6.405
REMARK  Name = CHEMBL373167
REMARK  7 active torsions:
REMARK  status: ('A' for Active; 'I' for Inactive)
REMARK    1  A    between atoms: C_1  and  O_2
REMARK    2  A    between atoms: O_2  and  C_3
REMARK    3  A    between atoms: C_6  and  N_7
REMARK    4  A    between atoms: N_7  and  C_8
REMARK    5  A    between atoms: N_7  and  S_21
REMARK    6  A    between atoms: C_8  and  C_9
REMARK    7  A    between atoms: S_21  and  C_24
REMARK                            x       y       z     vdW  Elec       q    Type
REMARK                         _______ _______ _______ _____ _____    ______ ____
ROOT
ATOM      1  N   UNL     1      -7.659   1.136 125.962  0.00  0.00    +0.000 N 
ENDROOT
BRANCH   1   5
ATOM      2  C   UNL     1      -7.504   3.203 122.203  0.00  0.00    +0.000 A 
ATOM      3  C   UNL     1      -8.649   2.593 122.651  0.00  0.00    +0.000 A 
ATOM      4  C   UNL     1      -8.690   2.204 123.982  0.00  0.00    +0.000 A 
ATOM      5  C   UNL     1      -7.552   1.939 124.734  0.00  0.00    +0.000 A 
ATOM      6  C   UNL     1      -6.402   2.583 124.281  0.00  0.00    +0.000 A 
ATOM      7  C   UNL     1      -6.403   3.264 123.054  0.00  0.00    +0.000 A 
BRANCH   2   9
ATOM      8  C   UNL     1      -8.916   3.824 120.468  0.00  0.00    +0.000 C 
ATOM      9  O   UNL     1      -7.611   3.868 121.017  0.00  0.00    +0.000 OA
ENDBRANCH   2   9
ENDBRANCH   1   5
BRANCH   1  10
ATOM     10  S   UNL     1      -6.808  -0.393 125.925  0.00  0.00    +0.000 S 
ATOM     11  O   UNL     1      -6.675  -0.868 124.588  0.00  0.00    +0.000 OA
ATOM     12  O   UNL     1      -5.570  -0.136 126.715  0.00  0.00    +0.000 OA
BRANCH  10  13
ATOM     13  C   UNL     1      -7.607  -1.713 126.827  0.00  0.00    +0.000 A 
ATOM     14  C   UNL     1      -7.379  -2.002 128.165  0.00  0.00    +0.000 A 
ATOM     15  C   UNL     1      -7.943  -3.110 128.783  0.00  0.00    +0.000 A 
ATOM     16  C   UNL     1      -8.877  -3.871 128.108  0.00  0.00    +0.000 A 
ATOM     17  C   UNL     1      -9.178  -3.570 126.781  0.00  0.00    +0.000 A 
ATOM     18  C   UNL     1      -8.535  -2.506 126.132  0.00  0.00    +0.000 A 
ENDBRANCH  10  13
ENDBRANCH   1  10
BRANCH   1  19
ATOM     19  C   UNL     1      -8.776   1.430 126.980  0.00  0.00    +0.000 C 
BRANCH  19  20
ATOM     20  C   UNL     1      -8.586   2.186 128.334  0.00  0.00    +0.000 C 
ATOM     21  O   UNL     1      -8.671   3.422 128.178  0.00  0.00    +0.000 OA
ATOM     22  N   UNL     1      -8.383   1.766 129.657  0.00  0.00    +0.000 N 
ATOM     23  C   UNL     1      -8.577   2.826 130.561  0.00  0.00    +0.000 C 
ATOM     24  C   UNL     1      -9.802   2.337 131.601  0.00  0.00    +0.000 C 
ATOM     25  C   UNL     1      -8.956   2.382 132.754  0.00  0.00    +0.000 A 
ATOM     26  C   UNL     1      -9.220   3.588 133.529  0.00  0.00    +0.000 A 
ATOM     27  C   UNL     1      -8.313   4.138 134.379  0.00  0.00    +0.000 A 
ATOM     28  C   UNL     1      -7.222   3.305 134.405  0.00  0.00    +0.000 A 
ATOM     29  C   UNL     1      -6.997   2.001 133.435  0.00  0.00    +0.000 A 
ATOM     30  C   UNL     1      -7.977   1.395 132.503  0.00  0.00    +0.000 A 
ATOM     31  C   UNL     1      -8.326   0.675 130.747  0.00  0.00    +0.000 C 
ENDBRANCH  19  20
ENDBRANCH   1  19
TORSDOF 6
ENDMDL
MODEL 8
REMARK VINA RESULT:      -8.4      2.594      5.377
REMARK  Name = CHEMBL373167
REMARK  7 active torsions:
REMARK  status: ('A' for Active; 'I' for Inactive)
REMARK    1  A    between atoms: C_1  and  O_2
REMARK    2  A    between atoms: O_2  and  C_3
REMARK    3  A    between atoms: C_6  and  N_7
REMARK    4  A    between atoms: N_7  and  C_8
REMARK    5  A    between atoms: N_7  and  S_21
REMARK    6  A    between atoms: C_8  and  C_9
REMARK    7  A    between atoms: S_21  and  C_24
REMARK                            x       y       z     vdW  Elec       q    Type
REMARK                         _______ _______ _______ _____ _____    ______ ____
ROOT
ATOM      1  N   UNL     1      -8.000   1.043 125.435  0.00  0.00    +0.000 N 
ENDROOT
BRANCH   1   5
ATOM      2  C   UNL     1      -7.682   3.254 121.769  0.00  0.00    +0.000 A 
ATOM      3  C   UNL     1      -8.888   2.810 122.248  0.00  0.00    +0.000 A 
ATOM      4  C   UNL     1      -8.933   2.363 123.561  0.00  0.00    +0.000 A 
ATOM      5  C   UNL     1      -7.820   1.883 124.240  0.00  0.00    +0.000 A 
ATOM      6  C   UNL     1      -6.603   2.360 123.757  0.00  0.00    +0.000 A 
ATOM      7  C   UNL     1      -6.549   3.098 122.564  0.00  0.00    +0.000 A 
BRANCH   2   9
ATOM      8  C   UNL     1      -9.013   3.989 120.014  0.00  0.00    +0.000 C 
ATOM      9  O   UNL     1      -7.732   3.989 120.621  0.00  0.00    +0.000 OA
ENDBRANCH   2   9
ENDBRANCH   1   5
BRANCH   1  10
ATOM     10  S   UNL     1      -8.341  -0.643 125.112  0.00  0.00    +0.000 S 
ATOM     11  O   UNL     1      -9.651  -0.802 124.573  0.00  0.00    +0.000 OA
ATOM     12  O   UNL     1      -7.177  -1.096 124.299  0.00  0.00    +0.000 OA
BRANCH  10  13
ATOM     13  C   UNL     1      -8.280  -1.705 126.548  0.00  0.00    +0.000 A 
ATOM     14  C   UNL     1      -7.599  -1.406 127.719  0.00  0.00    +0.000 A 
ATOM     15  C   UNL     1      -7.493  -2.318 128.760  0.00  0.00    +0.000 A 
ATOM     16  C   UNL     1      -8.204  -3.502 128.710  0.00  0.00    +0.000 A 
ATOM     17  C   UNL     1      -8.951  -3.806 127.574  0.00  0.00    +0.000 A 
ATOM     18  C   UNL     1      -8.979  -2.922 126.486  0.00  0.00    +0.000 A 
ENDBRANCH  10  13
ENDBRANCH   1  10
BRANCH   1  19
ATOM     19  C   UNL     1      -8.298   1.695 126.797  0.00  0.00    +0.000 C 
BRANCH  19  20
ATOM     20  C   UNL     1      -7.359   2.696 127.542  0.00  0.00    +0.000 C 
ATOM     21  O   UNL     1      -7.983   3.346 128.407  0.00  0.00    +0.000 OA
ATOM     22  N   UNL     1      -5.987   2.977 127.464  0.00  0.00    +0.000 N 
ATOM     23  C   UNL     1      -5.564   3.751 128.560  0.00  0.00    +0.000 C 
ATOM     24  C   UNL     1      -4.366   2.859 129.330  0.00  0.00    +0.000 C 
ATOM     25  C   UNL     1      -3.358   3.845 129.090  0.00  0.00    +0.000 A 
ATOM     26  C   UNL     1      -3.109   4.619 130.299  0.00  0.00    +0.000 A 
ATOM     27  C   UNL     1      -2.580   5.872 130.284  0.00  0.00    +0.000 A 
ATOM     28  C   UNL     1      -2.274   6.169 128.979  0.00  0.00    +0.000 A 
ATOM     29  C   UNL     1      -2.663   5.249 127.678  0.00  0.00    +0.000 A 
ATOM     30  C   UNL     1      -3.242   3.884 127.682  0.00  0.00    +0.000 A 
ATOM     31  C   UNL     1      -4.559   2.670 126.964  0.00  0.00    +0.000 C 
ENDBRANCH  19  20
ENDBRANCH   1  19
TORSDOF 6
ENDMDL
MODEL 9
REMARK VINA RESULT:      -8.4      3.278      5.468
REMARK  Name = CHEMBL373167
REMARK  7 active torsions:
REMARK  status: ('A' for Active; 'I' for Inactive)
REMARK    1  A    between atoms: C_1  and  O_2
REMARK    2  A    between atoms: O_2  and  C_3
REMARK    3  A    between atoms: C_6  and  N_7
REMARK    4  A    between atoms: N_7  and  C_8
REMARK    5  A    between atoms: N_7  and  S_21
REMARK    6  A    between atoms: C_8  and  C_9
REMARK    7  A    between atoms: S_21  and  C_24
REMARK                            x       y       z     vdW  Elec       q    Type
REMARK                         _______ _______ _______ _____ _____    ______ ____
ROOT
ATOM      1  N   UNL     1      -6.635   2.328 125.637  0.00  0.00    +0.000 N 
ENDROOT
BRANCH   1   5
ATOM      2  C   UNL     1      -8.843  -1.299 125.000  0.00  0.00    +0.000 A 
ATOM      3  C   UNL     1      -7.881  -0.869 124.121  0.00  0.00    +0.000 A 
ATOM      4  C   UNL     1      -7.031   0.143 124.543  0.00  0.00    +0.000 A 
ATOM      5  C   UNL     1      -7.366   1.054 125.537  0.00  0.00    +0.000 A 
ATOM      6  C   UNL     1      -8.327   0.595 126.436  0.00  0.00    +0.000 A 
ATOM      7  C   UNL     1      -9.010  -0.608 126.197  0.00  0.00    +0.000 A 
BRANCH   2   9
ATOM      8  C   UNL     1      -9.270  -2.870 123.345  0.00  0.00    +0.000 C 
ATOM      9  O   UNL     1      -9.428  -2.494 124.702  0.00  0.00    +0.000 OA
ENDBRANCH   2   9
ENDBRANCH   1   5
BRANCH   1  10
ATOM     10  S   UNL     1      -7.276   3.630 124.660  0.00  0.00    +0.000 S 
ATOM     11  O   UNL     1      -8.657   3.420 124.376  0.00  0.00    +0.000 OA
ATOM     12  O   UNL     1      -6.882   4.862 125.399  0.00  0.00    +0.000 OA
BRANCH  10  13
ATOM     13  C   UNL     1      -6.484   3.830 123.071  0.00  0.00    +0.000 A 
ATOM     14  C   UNL     1      -7.006   3.377 121.868  0.00  0.00    +0.000 A 
ATOM     15  C   UNL     1      -6.293   3.461 120.679  0.00  0.00    +0.000 A 
ATOM     16  C   UNL     1      -5.094   4.146 120.646  0.00  0.00    +0.000 A 
ATOM     17  C   UNL     1      -4.570   4.670 121.826  0.00  0.00    +0.000 A 
ATOM     18  C   UNL     1      -5.249   4.501 123.040  0.00  0.00    +0.000 A 
ENDBRANCH  10  13
ENDBRANCH   1  10
BRANCH   1  19
ATOM     19  C   UNL     1      -5.201   2.350 126.198  0.00  0.00    +0.000 C 
BRANCH  19  20
ATOM     20  C   UNL     1      -4.747   3.116 127.481  0.00  0.00    +0.000 C 
ATOM     21  O   UNL     1      -4.626   2.341 128.453  0.00  0.00    +0.000 OA
ATOM     22  N   UNL     1      -4.421   4.455 127.745  0.00  0.00    +0.000 N 
ATOM     23  C   UNL     1      -3.779   4.585 128.990  0.00  0.00    +0.000 C 
ATOM     24  C   UNL     1      -2.282   5.278 128.674  0.00  0.00    +0.000 C 
ATOM     25  C   UNL     1      -2.567   6.450 129.443  0.00  0.00    +0.000 A 
ATOM     26  C   UNL     1      -1.902   6.380 130.739  0.00  0.00    +0.000 A 
ATOM     27  C   UNL     1      -2.325   7.074 131.829  0.00  0.00    +0.000 A 
ATOM     28  C   UNL     1      -3.376   7.861 131.429  0.00  0.00    +0.000 A 
ATOM     29  C   UNL     1      -4.095   7.811 129.955  0.00  0.00    +0.000 A 
ATOM     30  C   UNL     1      -3.645   7.057 128.761  0.00  0.00    +0.000 A 
ATOM     31  C   UNL     1      -4.118   5.899 127.291  0.00  0.00    +0.000 C 
ENDBRANCH  19  20
ENDBRANCH   1  19
TORSDOF 6
ENDMDL
