MODEL 1
REMARK VINA RESULT:      -8.9      0.000      0.000
REMARK  Name = CHEMBL31645
REMARK  2 active torsions:
REMARK  status: ('A' for Active; 'I' for Inactive)
REMARK    1  A    between atoms: C_2  and  C_3
REMARK    2  A    between atoms: C_15  and  N_16
REMARK                            x       y       z     vdW  Elec       q    Type
REMARK                         _______ _______ _______ _____ _____    ______ ____
ROOT
ATOM      1  O   UNL     1      -7.305   0.922 124.151  0.00  0.00    +0.000 OA
ATOM      2  C   UNL     1      -7.084   2.130 124.109  0.00  0.00    +0.000 C 
ATOM      3  N   UNL     1      -6.514   2.837 125.157  0.00  0.00    +0.000 N 
ATOM      4  C   UNL     1      -6.981   4.158 125.566  0.00  0.00    +0.000 C 
ATOM      5  C   UNL     1      -5.807   5.110 125.645  0.00  0.00    +0.000 C 
ATOM      6  C   UNL     1      -4.704   4.550 126.570  0.00  0.00    +0.000 C 
ATOM      7  C   UNL     1      -4.309   3.126 126.147  0.00  0.00    +0.000 C 
ATOM      8  C   UNL     1      -5.514   2.201 126.003  0.00  0.00    +0.000 C 
ENDROOT
BRANCH   6   9
ATOM      9  N   UNL     1      -5.022   4.735 128.024  0.00  0.00    +0.000 N 
ATOM     10  C   UNL     1      -6.192   4.287 128.637  0.00  0.00    +0.000 C 
ATOM     11  O   UNL     1      -6.726   3.190 128.536  0.00  0.00    +0.000 OA
ATOM     12  O   UNL     1      -6.813   5.243 129.374  0.00  0.00    +0.000 OA
ATOM     13  C   UNL     1      -6.044   5.568 130.511  0.00  0.00    +0.000 C 
ATOM     14  C   UNL     1      -4.624   5.856 130.133  0.00  0.00    +0.000 A 
ATOM     15  C   UNL     1      -3.793   6.499 131.053  0.00  0.00    +0.000 A 
ATOM     16  C   UNL     1      -2.467   6.747 130.729  0.00  0.00    +0.000 A 
ATOM     17  C   UNL     1      -1.967   6.343 129.494  0.00  0.00    +0.000 A 
ATOM     18  C   UNL     1      -2.794   5.700 128.572  0.00  0.00    +0.000 A 
ATOM     19  C   UNL     1      -4.135   5.457 128.878  0.00  0.00    +0.000 A 
ENDBRANCH   6   9
BRANCH   2  20
ATOM     20  C   UNL     1      -7.308   2.876 122.827  0.00  0.00    +0.000 A 
ATOM     21  C   UNL     1      -8.580   2.878 122.263  0.00  0.00    +0.000 A 
ATOM     22  C   UNL     1      -8.772   3.472 121.015  0.00  0.00    +0.000 A 
ATOM     23  C   UNL     1      -7.631   3.995 120.406  0.00  0.00    +0.000 A 
ATOM     24  N   UNL     1      -7.445   4.617 119.191  0.00  0.00    +0.000 N 
ATOM     25  C   UNL     1      -6.121   4.942 119.027  0.00  0.00    +0.000 A 
ATOM     26  C   UNL     1      -5.442   4.528 120.153  0.00  0.00    +0.000 A 
ATOM     27  C   UNL     1      -6.386   3.943 121.030  0.00  0.00    +0.000 A 
ATOM     28  N   UNL     1      -6.190   3.406 122.258  0.00  0.00    +0.000 NA
ATOM     29  H   UNL     1      -8.177   4.804 118.518  0.00  0.00    +0.000 HD
ENDBRANCH   2  20
TORSDOF 2
ENDMDL
MODEL 2
REMARK VINA RESULT:      -8.8      6.398      8.196
REMARK  Name = CHEMBL31645
REMARK  2 active torsions:
REMARK  status: ('A' for Active; 'I' for Inactive)
REMARK    1  A    between atoms: C_2  and  C_3
REMARK    2  A    between atoms: C_15  and  N_16
REMARK                            x       y       z     vdW  Elec       q    Type
REMARK                         _______ _______ _______ _____ _____    ______ ____
ROOT
ATOM      1  O   UNL     1      -7.848   1.502 133.320  0.00  0.00    +0.000 OA
ATOM      2  C   UNL     1      -8.147   1.765 132.157  0.00  0.00    +0.000 C 
ATOM      3  N   UNL     1      -8.668   2.988 131.762  0.00  0.00    +0.000 N 
ATOM      4  C   UNL     1      -9.759   3.109 130.802  0.00  0.00    +0.000 C 
ATOM      5  C   UNL     1      -9.373   4.087 129.712  0.00  0.00    +0.000 C 
ATOM      6  C   UNL     1      -8.948   5.444 130.315  0.00  0.00    +0.000 C 
ATOM      7  C   UNL     1      -7.856   5.251 131.380  0.00  0.00    +0.000 C 
ATOM      8  C   UNL     1      -8.236   4.209 132.427  0.00  0.00    +0.000 C 
ENDROOT
BRANCH   6   9
ATOM      9  N   UNL     1     -10.120   6.284 130.727  0.00  0.00    +0.000 N 
ATOM     10  C   UNL     1     -10.626   6.347 132.026  0.00  0.00    +0.000 C 
ATOM     11  O   UNL     1     -10.005   6.484 133.072  0.00  0.00    +0.000 OA
ATOM     12  O   UNL     1     -11.969   6.161 132.089  0.00  0.00    +0.000 OA
ATOM     13  C   UNL     1     -12.647   7.253 131.505  0.00  0.00    +0.000 C 
ATOM     14  C   UNL     1     -12.095   7.560 130.148  0.00  0.00    +0.000 A 
ATOM     15  C   UNL     1     -12.827   8.381 129.287  0.00  0.00    +0.000 A 
ATOM     16  C   UNL     1     -12.315   8.700 128.037  0.00  0.00    +0.000 A 
ATOM     17  C   UNL     1     -11.071   8.211 127.651  0.00  0.00    +0.000 A 
ATOM     18  C   UNL     1     -10.335   7.391 128.508  0.00  0.00    +0.000 A 
ATOM     19  C   UNL     1     -10.843   7.049 129.764  0.00  0.00    +0.000 A 
ENDBRANCH   6   9
BRANCH   2  20
ATOM     20  C   UNL     1      -7.822   0.780 131.072  0.00  0.00    +0.000 A 
ATOM     21  C   UNL     1      -8.339  -0.509 131.155  0.00  0.00    +0.000 A 
ATOM     22  C   UNL     1      -7.949  -1.462 130.213  0.00  0.00    +0.000 A 
ATOM     23  C   UNL     1      -7.020  -1.037 129.264  0.00  0.00    +0.000 A 
ATOM     24  N   UNL     1      -6.407  -1.699 128.223  0.00  0.00    +0.000 N 
ATOM     25  C   UNL     1      -5.544  -0.854 127.571  0.00  0.00    +0.000 A 
ATOM     26  C   UNL     1      -5.603   0.374 128.197  0.00  0.00    +0.000 A 
ATOM     27  C   UNL     1      -6.537   0.270 129.254  0.00  0.00    +0.000 A 
ATOM     28  N   UNL     1      -6.935   1.218 130.136  0.00  0.00    +0.000 NA
ATOM     29  H   UNL     1      -6.568  -2.668 127.978  0.00  0.00    +0.000 HD
ENDBRANCH   2  20
TORSDOF 2
ENDMDL
MODEL 3
REMARK VINA RESULT:      -8.5      5.838      7.176
REMARK  Name = CHEMBL31645
REMARK  2 active torsions:
REMARK  status: ('A' for Active; 'I' for Inactive)
REMARK    1  A    between atoms: C_2  and  C_3
REMARK    2  A    between atoms: C_15  and  N_16
REMARK                            x       y       z     vdW  Elec       q    Type
REMARK                         _______ _______ _______ _____ _____    ______ ____
ROOT
ATOM      1  O   UNL     1     -10.472   3.303 129.996  0.00  0.00    +0.000 OA
ATOM      2  C   UNL     1      -9.925   4.351 130.329  0.00  0.00    +0.000 C 
ATOM      3  N   UNL     1      -8.567   4.453 130.591  0.00  0.00    +0.000 N 
ATOM      4  C   UNL     1      -8.033   5.228 131.706  0.00  0.00    +0.000 C 
ATOM      5  C   UNL     1      -6.957   6.166 131.204  0.00  0.00    +0.000 C 
ATOM      6  C   UNL     1      -5.865   5.392 130.433  0.00  0.00    +0.000 C 
ATOM      7  C   UNL     1      -6.489   4.528 129.325  0.00  0.00    +0.000 C 
ATOM      8  C   UNL     1      -7.620   3.642 129.838  0.00  0.00    +0.000 C 
ENDROOT
BRANCH   6   9
ATOM      9  N   UNL     1      -4.903   4.689 131.344  0.00  0.00    +0.000 N 
ATOM     10  C   UNL     1      -5.211   3.549 132.086  0.00  0.00    +0.000 C 
ATOM     11  O   UNL     1      -5.782   2.534 131.708  0.00  0.00    +0.000 OA
ATOM     12  O   UNL     1      -4.875   3.653 133.396  0.00  0.00    +0.000 OA
ATOM     13  C   UNL     1      -3.472   3.676 133.547  0.00  0.00    +0.000 C 
ATOM     14  C   UNL     1      -2.854   4.688 132.634  0.00  0.00    +0.000 A 
ATOM     15  C   UNL     1      -1.533   5.087 132.856  0.00  0.00    +0.000 A 
ATOM     16  C   UNL     1      -0.936   6.001 132.001  0.00  0.00    +0.000 A 
ATOM     17  C   UNL     1      -1.649   6.509 130.919  0.00  0.00    +0.000 A 
ATOM     18  C   UNL     1      -2.968   6.113 130.692  0.00  0.00    +0.000 A 
ATOM     19  C   UNL     1      -3.589   5.204 131.553  0.00  0.00    +0.000 A 
ENDBRANCH   6   9
BRANCH   2  20
ATOM     20  C   UNL     1     -10.715   5.627 130.330  0.00  0.00    +0.000 A 
ATOM     21  C   UNL     1     -11.435   5.973 131.470  0.00  0.00    +0.000 A 
ATOM     22  C   UNL     1     -12.262   7.096 131.440  0.00  0.00    +0.000 A 
ATOM     23  C   UNL     1     -12.328   7.774 130.223  0.00  0.00    +0.000 A 
ATOM     24  N   UNL     1     -13.043   8.883 129.830  0.00  0.00    +0.000 N 
ATOM     25  C   UNL     1     -12.786   9.166 128.511  0.00  0.00    +0.000 A 
ATOM     26  C   UNL     1     -11.889   8.228 128.046  0.00  0.00    +0.000 A 
ATOM     27  C   UNL     1     -11.586   7.357 129.119  0.00  0.00    +0.000 A 
ATOM     28  N   UNL     1     -10.747   6.293 129.143  0.00  0.00    +0.000 NA
ATOM     29  H   UNL     1     -13.669   9.410 130.426  0.00  0.00    +0.000 HD
ENDBRANCH   2  20
TORSDOF 2
ENDMDL
MODEL 4
REMARK VINA RESULT:      -8.5      5.691      8.319
REMARK  Name = CHEMBL31645
REMARK  2 active torsions:
REMARK  status: ('A' for Active; 'I' for Inactive)
REMARK    1  A    between atoms: C_2  and  C_3
REMARK    2  A    between atoms: C_15  and  N_16
REMARK                            x       y       z     vdW  Elec       q    Type
REMARK                         _______ _______ _______ _____ _____    ______ ____
ROOT
ATOM      1  O   UNL     1      -7.019   6.823 131.457  0.00  0.00    +0.000 OA
ATOM      2  C   UNL     1      -7.874   6.131 130.909  0.00  0.00    +0.000 C 
ATOM      3  N   UNL     1      -7.674   4.802 130.566  0.00  0.00    +0.000 N 
ATOM      4  C   UNL     1      -8.130   4.235 129.302  0.00  0.00    +0.000 C 
ATOM      5  C   UNL     1      -8.925   2.974 129.567  0.00  0.00    +0.000 C 
ATOM      6  C   UNL     1      -8.108   1.974 130.414  0.00  0.00    +0.000 C 
ATOM      7  C   UNL     1      -7.581   2.646 131.694  0.00  0.00    +0.000 C 
ATOM      8  C   UNL     1      -6.845   3.952 131.410  0.00  0.00    +0.000 C 
ENDROOT
BRANCH   6   9
ATOM      9  N   UNL     1      -7.091   1.227 129.604  0.00  0.00    +0.000 N 
ATOM     10  C   UNL     1      -6.040   1.828 128.911  0.00  0.00    +0.000 C 
ATOM     11  O   UNL     1      -5.267   2.689 129.311  0.00  0.00    +0.000 OA
ATOM     12  O   UNL     1      -5.947   1.423 127.620  0.00  0.00    +0.000 OA
ATOM     13  C   UNL     1      -5.549   0.071 127.552  0.00  0.00    +0.000 C 
ATOM     14  C   UNL     1      -6.398  -0.781 128.442  0.00  0.00    +0.000 A 
ATOM     15  C   UNL     1      -6.376  -2.168 128.277  0.00  0.00    +0.000 A 
ATOM     16  C   UNL     1      -7.135  -2.974 129.114  0.00  0.00    +0.000 A 
ATOM     17  C   UNL     1      -7.906  -2.399 130.120  0.00  0.00    +0.000 A 
ATOM     18  C   UNL     1      -7.930  -1.014 130.289  0.00  0.00    +0.000 A 
ATOM     19  C   UNL     1      -7.183  -0.188 129.446  0.00  0.00    +0.000 A 
ENDBRANCH   6   9
BRANCH   2  20
ATOM     20  C   UNL     1      -9.254   6.685 130.709  0.00  0.00    +0.000 A 
ATOM     21  C   UNL     1     -10.271   6.288 131.572  0.00  0.00    +0.000 A 
ATOM     22  C   UNL     1     -11.578   6.709 131.325  0.00  0.00    +0.000 A 
ATOM     23  C   UNL     1     -11.764   7.484 130.180  0.00  0.00    +0.000 A 
ATOM     24  N   UNL     1     -12.895   8.040 129.624  0.00  0.00    +0.000 N 
ATOM     25  C   UNL     1     -12.572   8.710 128.471  0.00  0.00    +0.000 A 
ATOM     26  C   UNL     1     -11.212   8.588 128.279  0.00  0.00    +0.000 A 
ATOM     27  C   UNL     1     -10.695   7.830 129.356  0.00  0.00    +0.000 A 
ATOM     28  N   UNL     1      -9.414   7.463 129.603  0.00  0.00    +0.000 NA
ATOM     29  H   UNL     1     -13.827   7.963 130.010  0.00  0.00    +0.000 HD
ENDBRANCH   2  20
TORSDOF 2
ENDMDL
MODEL 5
REMARK VINA RESULT:      -8.4      3.656      7.690
REMARK  Name = CHEMBL31645
REMARK  2 active torsions:
REMARK  status: ('A' for Active; 'I' for Inactive)
REMARK    1  A    between atoms: C_2  and  C_3
REMARK    2  A    between atoms: C_15  and  N_16
REMARK                            x       y       z     vdW  Elec       q    Type
REMARK                         _______ _______ _______ _____ _____    ______ ____
ROOT
ATOM      1  O   UNL     1      -7.738   4.148 125.256  0.00  0.00    +0.000 OA
ATOM      2  C   UNL     1      -6.890   3.368 125.682  0.00  0.00    +0.000 C 
ATOM      3  N   UNL     1      -7.008   1.989 125.588  0.00  0.00    +0.000 N 
ATOM      4  C   UNL     1      -6.644   1.089 126.676  0.00  0.00    +0.000 C 
ATOM      5  C   UNL     1      -5.716   0.011 126.158  0.00  0.00    +0.000 C 
ATOM      6  C   UNL     1      -6.344  -0.724 124.953  0.00  0.00    +0.000 C 
ATOM      7  C   UNL     1      -6.785   0.276 123.872  0.00  0.00    +0.000 C 
ATOM      8  C   UNL     1      -7.661   1.394 124.430  0.00  0.00    +0.000 C 
ENDROOT
BRANCH   6   9
ATOM      9  N   UNL     1      -7.372  -1.734 125.367  0.00  0.00    +0.000 N 
ATOM     10  C   UNL     1      -8.408  -2.184 124.547  0.00  0.00    +0.000 C 
ATOM     11  O   UNL     1      -8.344  -2.547 123.380  0.00  0.00    +0.000 OA
ATOM     12  O   UNL     1      -9.626  -2.129 125.143  0.00  0.00    +0.000 OA
ATOM     13  C   UNL     1      -9.708  -3.073 126.188  0.00  0.00    +0.000 C 
ATOM     14  C   UNL     1      -8.530  -2.960 127.105  0.00  0.00    +0.000 A 
ATOM     15  C   UNL     1      -8.582  -3.575 128.358  0.00  0.00    +0.000 A 
ATOM     16  C   UNL     1      -7.487  -3.505 129.207  0.00  0.00    +0.000 A 
ATOM     17  C   UNL     1      -6.337  -2.833 128.802  0.00  0.00    +0.000 A 
ATOM     18  C   UNL     1      -6.280  -2.218 127.551  0.00  0.00    +0.000 A 
ATOM     19  C   UNL     1      -7.380  -2.267 126.690  0.00  0.00    +0.000 A 
ENDBRANCH   6   9
BRANCH   2  20
ATOM     20  C   UNL     1      -5.595   3.906 126.215  0.00  0.00    +0.000 A 
ATOM     21  C   UNL     1      -4.402   3.485 125.636  0.00  0.00    +0.000 A 
ATOM     22  C   UNL     1      -3.191   3.891 126.198  0.00  0.00    +0.000 A 
ATOM     23  C   UNL     1      -3.284   4.676 127.348  0.00  0.00    +0.000 A 
ATOM     24  N   UNL     1      -2.318   5.224 128.163  0.00  0.00    +0.000 N 
ATOM     25  C   UNL     1      -2.908   5.911 129.194  0.00  0.00    +0.000 A 
ATOM     26  C   UNL     1      -4.275   5.810 129.042  0.00  0.00    +0.000 A 
ATOM     27  C   UNL     1      -4.519   5.046 127.876  0.00  0.00    +0.000 A 
ATOM     28  N   UNL     1      -5.703   4.694 127.320  0.00  0.00    +0.000 NA
ATOM     29  H   UNL     1      -1.320   5.130 128.023  0.00  0.00    +0.000 HD
ENDBRANCH   2  20
TORSDOF 2
ENDMDL
MODEL 6
REMARK VINA RESULT:      -8.4      6.342      8.414
REMARK  Name = CHEMBL31645
REMARK  2 active torsions:
REMARK  status: ('A' for Active; 'I' for Inactive)
REMARK    1  A    between atoms: C_2  and  C_3
REMARK    2  A    between atoms: C_15  and  N_16
REMARK                            x       y       z     vdW  Elec       q    Type
REMARK                         _______ _______ _______ _____ _____    ______ ____
ROOT
ATOM      1  O   UNL     1      -8.915   6.285 133.514  0.00  0.00    +0.000 OA
ATOM      2  C   UNL     1      -9.259   5.757 132.459  0.00  0.00    +0.000 C 
ATOM      3  N   UNL     1      -8.891   4.471 132.094  0.00  0.00    +0.000 N 
ATOM      4  C   UNL     1      -8.483   4.120 130.738  0.00  0.00    +0.000 C 
ATOM      5  C   UNL     1      -9.274   2.921 130.262  0.00  0.00    +0.000 C 
ATOM      6  C   UNL     1      -9.141   1.744 131.253  0.00  0.00    +0.000 C 
ATOM      7  C   UNL     1      -9.502   2.189 132.681  0.00  0.00    +0.000 C 
ATOM      8  C   UNL     1      -8.746   3.441 133.113  0.00  0.00    +0.000 C 
ENDROOT
BRANCH   6   9
ATOM      9  N   UNL     1      -7.841   1.011 131.108  0.00  0.00    +0.000 N 
ATOM     10  C   UNL     1      -7.025   0.635 132.175  0.00  0.00    +0.000 C 
ATOM     11  O   UNL     1      -7.354   0.091 133.221  0.00  0.00    +0.000 OA
ATOM     12  O   UNL     1      -5.728   0.999 132.014  0.00  0.00    +0.000 OA
ATOM     13  C   UNL     1      -5.132   0.257 130.972  0.00  0.00    +0.000 C 
ATOM     14  C   UNL     1      -5.977   0.296 129.737  0.00  0.00    +0.000 A 
ATOM     15  C   UNL     1      -5.419  -0.100 128.519  0.00  0.00    +0.000 A 
ATOM     16  C   UNL     1      -6.198  -0.098 127.371  0.00  0.00    +0.000 A 
ATOM     17  C   UNL     1      -7.534   0.286 127.439  0.00  0.00    +0.000 A 
ATOM     18  C   UNL     1      -8.096   0.681 128.654  0.00  0.00    +0.000 A 
ATOM     19  C   UNL     1      -7.321   0.699 129.816  0.00  0.00    +0.000 A 
ENDBRANCH   6   9
BRANCH   2  20
ATOM     20  C   UNL     1     -10.233   6.467 131.565  0.00  0.00    +0.000 A 
ATOM     21  C   UNL     1     -11.594   6.373 131.841  0.00  0.00    +0.000 A 
ATOM     22  C   UNL     1     -12.511   6.933 130.952  0.00  0.00    +0.000 A 
ATOM     23  C   UNL     1     -11.971   7.524 129.809  0.00  0.00    +0.000 A 
ATOM     24  N   UNL     1     -12.563   8.139 128.729  0.00  0.00    +0.000 N 
ATOM     25  C   UNL     1     -11.605   8.552 127.838  0.00  0.00    +0.000 A 
ATOM     26  C   UNL     1     -10.373   8.202 128.351  0.00  0.00    +0.000 A 
ATOM     27  C   UNL     1     -10.594   7.567 129.596  0.00  0.00    +0.000 A 
ATOM     28  N   UNL     1      -9.688   7.063 130.469  0.00  0.00    +0.000 NA
ATOM     29  H   UNL     1     -13.560   8.265 128.609  0.00  0.00    +0.000 HD
ENDBRANCH   2  20
TORSDOF 2
ENDMDL
MODEL 7
REMARK VINA RESULT:      -8.3      3.110      8.149
REMARK  Name = CHEMBL31645
REMARK  2 active torsions:
REMARK  status: ('A' for Active; 'I' for Inactive)
REMARK    1  A    between atoms: C_2  and  C_3
REMARK    2  A    between atoms: C_15  and  N_16
REMARK                            x       y       z     vdW  Elec       q    Type
REMARK                         _______ _______ _______ _____ _____    ______ ____
ROOT
ATOM      1  O   UNL     1      -8.404   4.469 127.989  0.00  0.00    +0.000 OA
ATOM      2  C   UNL     1      -7.429   3.748 127.789  0.00  0.00    +0.000 C 
ATOM      3  N   UNL     1      -7.447   2.663 126.926  0.00  0.00    +0.000 N 
ATOM      4  C   UNL     1      -6.810   1.390 127.243  0.00  0.00    +0.000 C 
ATOM      5  C   UNL     1      -5.912   0.971 126.099  0.00  0.00    +0.000 C 
ATOM      6  C   UNL     1      -6.694   0.936 124.768  0.00  0.00    +0.000 C 
ATOM      7  C   UNL     1      -7.415   2.272 124.523  0.00  0.00    +0.000 C 
ATOM      8  C   UNL     1      -8.257   2.712 125.716  0.00  0.00    +0.000 C 
ENDROOT
BRANCH   6   9
ATOM      9  N   UNL     1      -7.538  -0.296 124.627  0.00  0.00    +0.000 N 
ATOM     10  C   UNL     1      -8.933  -0.303 124.663  0.00  0.00    +0.000 C 
ATOM     11  O   UNL     1      -9.707   0.442 124.075  0.00  0.00    +0.000 OA
ATOM     12  O   UNL     1      -9.444  -1.223 125.519  0.00  0.00    +0.000 OA
ATOM     13  C   UNL     1      -9.200  -2.529 125.044  0.00  0.00    +0.000 C 
ATOM     14  C   UNL     1      -7.759  -2.707 124.682  0.00  0.00    +0.000 A 
ATOM     15  C   UNL     1      -7.257  -3.997 124.499  0.00  0.00    +0.000 A 
ATOM     16  C   UNL     1      -5.931  -4.177 124.134  0.00  0.00    +0.000 A 
ATOM     17  C   UNL     1      -5.108  -3.071 123.940  0.00  0.00    +0.000 A 
ATOM     18  C   UNL     1      -5.605  -1.779 124.120  0.00  0.00    +0.000 A 
ATOM     19  C   UNL     1      -6.934  -1.582 124.501  0.00  0.00    +0.000 A 
ENDBRANCH   6   9
BRANCH   2  20
ATOM     20  C   UNL     1      -6.105   4.116 128.391  0.00  0.00    +0.000 A 
ATOM     21  C   UNL     1      -5.814   3.697 129.686  0.00  0.00    +0.000 A 
ATOM     22  C   UNL     1      -4.636   4.130 130.295  0.00  0.00    +0.000 A 
ATOM     23  C   UNL     1      -3.845   5.001 129.546  0.00  0.00    +0.000 A 
ATOM     24  N   UNL     1      -2.656   5.633 129.831  0.00  0.00    +0.000 N 
ATOM     25  C   UNL     1      -2.272   6.415 128.770  0.00  0.00    +0.000 A 
ATOM     26  C   UNL     1      -3.225   6.284 127.783  0.00  0.00    +0.000 A 
ATOM     27  C   UNL     1      -4.211   5.387 128.258  0.00  0.00    +0.000 A 
ATOM     28  N   UNL     1      -5.331   4.944 127.636  0.00  0.00    +0.000 NA
ATOM     29  H   UNL     1      -2.142   5.537 130.698  0.00  0.00    +0.000 HD
ENDBRANCH   2  20
TORSDOF 2
ENDMDL
MODEL 8
REMARK VINA RESULT:      -8.2      4.279      8.661
REMARK  Name = CHEMBL31645
REMARK  2 active torsions:
REMARK  status: ('A' for Active; 'I' for Inactive)
REMARK    1  A    between atoms: C_2  and  C_3
REMARK    2  A    between atoms: C_15  and  N_16
REMARK                            x       y       z     vdW  Elec       q    Type
REMARK                         _______ _______ _______ _____ _____    ______ ____
ROOT
ATOM      1  O   UNL     1      -5.890   4.698 128.735  0.00  0.00    +0.000 OA
ATOM      2  C   UNL     1      -6.911   4.018 128.666  0.00  0.00    +0.000 C 
ATOM      3  N   UNL     1      -6.974   2.802 128.001  0.00  0.00    +0.000 N 
ATOM      4  C   UNL     1      -8.104   2.417 127.164  0.00  0.00    +0.000 C 
ATOM      5  C   UNL     1      -8.597   1.045 127.573  0.00  0.00    +0.000 C 
ATOM      6  C   UNL     1      -7.447   0.015 127.542  0.00  0.00    +0.000 C 
ATOM      7  C   UNL     1      -6.249   0.508 128.371  0.00  0.00    +0.000 C 
ATOM      8  C   UNL     1      -5.815   1.920 127.991  0.00  0.00    +0.000 C 
ENDROOT
BRANCH   6   9
ATOM      9  N   UNL     1      -7.130  -0.455 126.153  0.00  0.00    +0.000 N 
ATOM     10  C   UNL     1      -6.069   0.024 125.383  0.00  0.00    +0.000 C 
ATOM     11  O   UNL     1      -4.905   0.192 125.723  0.00  0.00    +0.000 OA
ATOM     12  O   UNL     1      -6.440   0.398 124.132  0.00  0.00    +0.000 OA
ATOM     13  C   UNL     1      -6.813  -0.729 123.370  0.00  0.00    +0.000 C 
ATOM     14  C   UNL     1      -7.797  -1.577 124.114  0.00  0.00    +0.000 A 
ATOM     15  C   UNL     1      -8.521  -2.547 123.418  0.00  0.00    +0.000 A 
ATOM     16  C   UNL     1      -9.415  -3.361 124.099  0.00  0.00    +0.000 A 
ATOM     17  C   UNL     1      -9.578  -3.216 125.473  0.00  0.00    +0.000 A 
ATOM     18  C   UNL     1      -8.855  -2.248 126.173  0.00  0.00    +0.000 A 
ATOM     19  C   UNL     1      -7.962  -1.412 125.500  0.00  0.00    +0.000 A 
ENDBRANCH   6   9
BRANCH   2  20
ATOM     20  C   UNL     1      -8.127   4.434 129.440  0.00  0.00    +0.000 A 
ATOM     21  C   UNL     1      -8.627   3.580 130.418  0.00  0.00    +0.000 A 
ATOM     22  C   UNL     1      -9.821   3.906 131.063  0.00  0.00    +0.000 A 
ATOM     23  C   UNL     1     -10.449   5.075 130.632  0.00  0.00    +0.000 A 
ATOM     24  N   UNL     1     -11.626   5.677 131.016  0.00  0.00    +0.000 N 
ATOM     25  C   UNL     1     -11.832   6.818 130.281  0.00  0.00    +0.000 A 
ATOM     26  C   UNL     1     -10.771   6.957 129.411  0.00  0.00    +0.000 A 
ATOM     27  C   UNL     1      -9.891   5.872 129.634  0.00  0.00    +0.000 A 
ATOM     28  N   UNL     1      -8.713   5.591 129.027  0.00  0.00    +0.000 NA
ATOM     29  H   UNL     1     -12.248   5.328 131.733  0.00  0.00    +0.000 HD
ENDBRANCH   2  20
TORSDOF 2
ENDMDL
MODEL 9
REMARK VINA RESULT:      -8.1      2.622      8.390
REMARK  Name = CHEMBL31645
REMARK  2 active torsions:
REMARK  status: ('A' for Active; 'I' for Inactive)
REMARK    1  A    between atoms: C_2  and  C_3
REMARK    2  A    between atoms: C_15  and  N_16
REMARK                            x       y       z     vdW  Elec       q    Type
REMARK                         _______ _______ _______ _____ _____    ______ ____
ROOT
ATOM      1  O   UNL     1      -8.706   5.275 127.997  0.00  0.00    +0.000 OA
ATOM      2  C   UNL     1      -7.902   4.363 127.818  0.00  0.00    +0.000 C 
ATOM      3  N   UNL     1      -7.863   3.597 126.663  0.00  0.00    +0.000 N 
ATOM      4  C   UNL     1      -7.664   2.152 126.680  0.00  0.00    +0.000 C 
ATOM      5  C   UNL     1      -6.546   1.781 125.730  0.00  0.00    +0.000 C 
ATOM      6  C   UNL     1      -6.819   2.334 124.314  0.00  0.00    +0.000 C 
ATOM      7  C   UNL     1      -7.105   3.844 124.363  0.00  0.00    +0.000 C 
ATOM      8  C   UNL     1      -8.185   4.204 125.379  0.00  0.00    +0.000 C 
ENDROOT
BRANCH   6   9
ATOM      9  N   UNL     1      -7.812   1.507 123.553  0.00  0.00    +0.000 N 
ATOM     10  C   UNL     1      -8.872   2.032 122.812  0.00  0.00    +0.000 C 
ATOM     11  O   UNL     1      -8.847   2.957 122.012  0.00  0.00    +0.000 OA
ATOM     12  O   UNL     1     -10.066   1.455 123.100  0.00  0.00    +0.000 OA
ATOM     13  C   UNL     1     -10.089   0.117 122.653  0.00  0.00    +0.000 C 
ATOM     14  C   UNL     1      -8.878  -0.625 123.125  0.00  0.00    +0.000 A 
ATOM     15  C   UNL     1      -8.869  -2.021 123.063  0.00  0.00    +0.000 A 
ATOM     16  C   UNL     1      -7.742  -2.722 123.468  0.00  0.00    +0.000 A 
ATOM     17  C   UNL     1      -6.621  -2.033 123.923  0.00  0.00    +0.000 A 
ATOM     18  C   UNL     1      -6.625  -0.638 123.985  0.00  0.00    +0.000 A 
ATOM     19  C   UNL     1      -7.757   0.081 123.595  0.00  0.00    +0.000 A 
ENDBRANCH   6   9
BRANCH   2  20
ATOM     20  C   UNL     1      -6.814   4.133 128.826  0.00  0.00    +0.000 A 
ATOM     21  C   UNL     1      -7.127   3.489 130.019  0.00  0.00    +0.000 A 
ATOM     22  C   UNL     1      -6.149   3.372 131.007  0.00  0.00    +0.000 A 
ATOM     23  C   UNL     1      -4.917   3.960 130.720  0.00  0.00    +0.000 A 
ATOM     24  N   UNL     1      -3.756   4.059 131.455  0.00  0.00    +0.000 N 
ATOM     25  C   UNL     1      -2.808   4.754 130.745  0.00  0.00    +0.000 A 
ATOM     26  C   UNL     1      -3.363   5.107 129.533  0.00  0.00    +0.000 A 
ATOM     27  C   UNL     1      -4.685   4.600 129.505  0.00  0.00    +0.000 A 
ATOM     28  N   UNL     1      -5.610   4.688 128.519  0.00  0.00    +0.000 NA
ATOM     29  H   UNL     1      -3.623   3.677 132.382  0.00  0.00    +0.000 HD
ENDBRANCH   2  20
TORSDOF 2
ENDMDL
