MODEL 1
REMARK VINA RESULT:      -9.0      0.000      0.000
REMARK  Name = CHEMBL2035011
REMARK  13 active torsions:
REMARK  status: ('A' for Active; 'I' for Inactive)
REMARK    1  A    between atoms: C_1  and  C_2
REMARK    2  A    between atoms: C_2  and  C_3
REMARK    3  A    between atoms: C_8  and  C_9
REMARK    4  A    between atoms: C_9  and  C_10
REMARK    5  A    between atoms: C_9  and  N_16
REMARK    6  A    between atoms: N_12  and  C_13
REMARK    7  A    between atoms: C_13  and  C_14
REMARK    8  A    between atoms: C_13  and  C_15
REMARK    9  A    between atoms: C_19  and  C_20
REMARK   10  A    between atoms: CA_32  and  CB_33
REMARK   11  A    between atoms: CB_33  and  CG_34
REMARK   12  A    between atoms: CG_34  and  CD1_35
REMARK   13  A    between atoms: CG_34  and  CD2_36
REMARK                            x       y       z     vdW  Elec       q    Type
REMARK                         _______ _______ _______ _____ _____    ______ ____
ROOT
ATOM      1  N   LEU A   1      -7.159   3.375 128.040  0.00  0.00    +0.000 N 
ATOM      2  C   UNK A   2      -8.145   4.361 128.238  0.00  0.00    +0.000 C 
ATOM      3  O   UNK A   2      -8.606   4.939 127.268  0.00  0.00    +0.000 OA
ATOM      4  C   UNK A   2      -8.554   4.676 129.759  0.00  0.00    +0.000 C 
ATOM      5  N   UNK A   2      -8.697   3.372 130.360  0.00  0.00    +0.000 N 
ATOM      6  C   LEU A   1      -7.672   2.452 130.263  0.00  0.00    +0.000 C 
ATOM      7  O   LEU A   1      -7.696   1.448 130.930  0.00  0.00    +0.000 OA
ATOM      8  CA  LEU A   1      -6.519   2.886 129.295  0.00  0.00    +0.000 C 
ATOM      9  H   UNK A   2      -9.429   3.133 131.017  0.00  0.00    +0.000 HD
ENDROOT
BRANCH   4  10
ATOM     10  C   UNK A   2      -9.847   5.504 129.769  0.00  0.00    +0.000 C 
ATOM     11  C   UNK A   2      -9.437   6.940 129.997  0.00  0.00    +0.000 C 
ATOM     12  C   UNK A   2     -10.778   7.516 129.889  0.00  0.00    +0.000 A 
ATOM     13  C   UNK A   2     -11.206   8.394 128.919  0.00  0.00    +0.000 A 
ATOM     14  C   UNK A   2     -12.402   9.031 129.121  0.00  0.00    +0.000 A 
ATOM     15  C   UNK A   2     -13.113   8.730 130.286  0.00  0.00    +0.000 A 
ATOM     16  C   UNK A   2     -12.738   7.621 131.112  0.00  0.00    +0.000 A 
ATOM     17  C   UNK A   2     -11.635   6.861 130.741  0.00  0.00    +0.000 A 
ATOM     18  C   UNK A   2     -11.054   5.413 130.840  0.00  0.00    +0.000 C 
ENDBRANCH   4  10
BRANCH   1  19
ATOM     19  C   UNK A   0      -6.709   3.237 126.562  0.00  0.00    +0.000 C 
BRANCH  19  25
ATOM     20  C   UNK A   0      -7.673   1.482 124.745  0.00  0.00    +0.000 A 
ATOM     21  C   UNK A   0      -7.573   0.304 123.946  0.00  0.00    +0.000 A 
ATOM     22  C   UNK A   0      -6.570  -0.629 124.197  0.00  0.00    +0.000 A 
ATOM     23  C   UNK A   0      -5.689  -0.375 125.272  0.00  0.00    +0.000 A 
ATOM     24  C   UNK A   0      -5.853   0.762 126.133  0.00  0.00    +0.000 A 
ATOM     25  C   UNK A   0      -6.776   1.801 125.826  0.00  0.00    +0.000 A 
BRANCH  20  27
ATOM     26  C   UNK A   0      -8.515   2.828 123.146  0.00  0.00    +0.000 C 
ATOM     27  C   UNK A   0      -8.908   2.278 124.512  0.00  0.00    +0.000 C 
ENDBRANCH  20  27
ENDBRANCH  19  25
BRANCH  19  28
ATOM     28  C   UNK A   0      -5.324   4.107 126.447  0.00  0.00    +0.000 C 
ATOM     29  O   UNK A   0      -5.339   5.334 126.295  0.00  0.00    +0.000 OA
ATOM     30  N   UNK A   0      -4.113   3.421 126.580  0.00  0.00    +0.000 N 
ATOM     31  H   UNK A   0      -4.143   2.413 126.480  0.00  0.00    +0.000 HD
BRANCH  30  32
ATOM     32  C   UNK A   0      -2.777   4.031 126.822  0.00  0.00    +0.000 C 
ATOM     33  C   UNK A   0      -2.585   4.697 128.208  0.00  0.00    +0.000 C 
ATOM     34  C   UNK A   0      -1.663   2.977 126.638  0.00  0.00    +0.000 C 
ENDBRANCH  30  32
ENDBRANCH  19  28
ENDBRANCH   1  19
BRANCH   8  35
ATOM     35  CB  LEU A   1      -5.666   1.666 129.144  0.00  0.00    +0.000 C 
BRANCH  35  36
ATOM     36  CG  LEU A   1      -4.343   1.805 129.879  0.00  0.00    +0.000 C 
ATOM     37  CD1 LEU A   1      -4.192   2.907 130.858  0.00  0.00    +0.000 C 
ATOM     38  CD2 LEU A   1      -4.157   0.589 130.724  0.00  0.00    +0.000 C 
ENDBRANCH  35  36
ENDBRANCH   8  35
TORSDOF 8
ENDMDL
MODEL 2
REMARK VINA RESULT:      -8.9      2.282      2.962
REMARK  Name = CHEMBL2035011
REMARK  13 active torsions:
REMARK  status: ('A' for Active; 'I' for Inactive)
REMARK    1  A    between atoms: C_1  and  C_2
REMARK    2  A    between atoms: C_2  and  C_3
REMARK    3  A    between atoms: C_8  and  C_9
REMARK    4  A    between atoms: C_9  and  C_10
REMARK    5  A    between atoms: C_9  and  N_16
REMARK    6  A    between atoms: N_12  and  C_13
REMARK    7  A    between atoms: C_13  and  C_14
REMARK    8  A    between atoms: C_13  and  C_15
REMARK    9  A    between atoms: C_19  and  C_20
REMARK   10  A    between atoms: CA_32  and  CB_33
REMARK   11  A    between atoms: CB_33  and  CG_34
REMARK   12  A    between atoms: CG_34  and  CD1_35
REMARK   13  A    between atoms: CG_34  and  CD2_36
REMARK                            x       y       z     vdW  Elec       q    Type
REMARK                         _______ _______ _______ _____ _____    ______ ____
ROOT
ATOM      1  N   LEU A   1      -7.499   2.044 129.937  0.00  0.00    +0.000 N 
ATOM      2  C   UNK A   2      -8.313   3.126 129.552  0.00  0.00    +0.000 C 
ATOM      3  O   UNK A   2      -8.736   3.169 128.409  0.00  0.00    +0.000 OA
ATOM      4  C   UNK A   2      -8.584   4.255 130.661  0.00  0.00    +0.000 C 
ATOM      5  N   UNK A   2      -8.886   3.506 131.857  0.00  0.00    +0.000 N 
ATOM      6  C   LEU A   1      -8.017   2.525 132.294  0.00  0.00    +0.000 C 
ATOM      7  O   LEU A   1      -8.153   2.043 133.389  0.00  0.00    +0.000 OA
ATOM      8  CA  LEU A   1      -6.869   2.197 131.280  0.00  0.00    +0.000 C 
ATOM      9  H   UNK A   2      -9.606   3.767 132.517  0.00  0.00    +0.000 HD
ENDROOT
BRANCH   4  10
ATOM     10  C   UNK A   2      -9.735   5.154 130.190  0.00  0.00    +0.000 C 
ATOM     11  C   UNK A   2      -9.307   6.579 130.457  0.00  0.00    +0.000 C 
ATOM     12  C   UNK A   2     -10.485   7.220 129.875  0.00  0.00    +0.000 A 
ATOM     13  C   UNK A   2     -10.497   8.039 128.768  0.00  0.00    +0.000 A 
ATOM     14  C   UNK A   2     -11.637   8.759 128.521  0.00  0.00    +0.000 A 
ATOM     15  C   UNK A   2     -12.713   8.596 129.397  0.00  0.00    +0.000 A 
ATOM     16  C   UNK A   2     -12.723   7.539 130.364  0.00  0.00    +0.000 A 
ATOM     17  C   UNK A   2     -11.625   6.688 130.428  0.00  0.00    +0.000 A 
ATOM     18  C   UNK A   2     -11.230   5.223 130.799  0.00  0.00    +0.000 C 
ENDBRANCH   4  10
BRANCH   1  19
ATOM     19  C   UNK A   0      -7.159   1.078 128.771  0.00  0.00    +0.000 C 
BRANCH  19  25
ATOM     20  C   UNK A   0      -7.927  -1.258 127.647  0.00  0.00    +0.000 A 
ATOM     21  C   UNK A   0      -8.149  -2.667 127.681  0.00  0.00    +0.000 A 
ATOM     22  C   UNK A   0      -8.140  -3.348 128.897  0.00  0.00    +0.000 A 
ATOM     23  C   UNK A   0      -7.929  -2.592 130.071  0.00  0.00    +0.000 A 
ATOM     24  C   UNK A   0      -7.801  -1.162 130.040  0.00  0.00    +0.000 A 
ATOM     25  C   UNK A   0      -7.671  -0.454 128.813  0.00  0.00    +0.000 A 
BRANCH  20  27
ATOM     26  C   UNK A   0      -9.085  -1.723 125.769  0.00  0.00    +0.000 C 
ATOM     27  C   UNK A   0      -8.177  -0.631 126.321  0.00  0.00    +0.000 C 
ENDBRANCH  20  27
ENDBRANCH  19  25
BRANCH  19  28
ATOM     28  C   UNK A   0      -5.584   1.364 128.417  0.00  0.00    +0.000 C 
ATOM     29  O   UNK A   0      -4.708   0.517 128.629  0.00  0.00    +0.000 OA
ATOM     30  N   UNK A   0      -5.264   2.584 127.813  0.00  0.00    +0.000 N 
ATOM     31  H   UNK A   0      -5.962   3.317 127.864  0.00  0.00    +0.000 HD
BRANCH  30  32
ATOM     32  C   UNK A   0      -3.984   2.921 127.132  0.00  0.00    +0.000 C 
ATOM     33  C   UNK A   0      -4.107   3.845 125.893  0.00  0.00    +0.000 C 
ATOM     34  C   UNK A   0      -3.004   3.581 128.126  0.00  0.00    +0.000 C 
ENDBRANCH  30  32
ENDBRANCH  19  28
ENDBRANCH   1  19
BRANCH   8  35
ATOM     35  CB  LEU A   1      -6.218   0.965 131.825  0.00  0.00    +0.000 C 
BRANCH  35  36
ATOM     36  CG  LEU A   1      -4.847   1.259 132.411  0.00  0.00    +0.000 C 
ATOM     37  CD1 LEU A   1      -3.804   0.212 132.325  0.00  0.00    +0.000 C 
ATOM     38  CD2 LEU A   1      -4.248   2.384 131.634  0.00  0.00    +0.000 C 
ENDBRANCH  35  36
ENDBRANCH   8  35
TORSDOF 8
ENDMDL
MODEL 3
REMARK VINA RESULT:      -8.8      2.470      7.697
REMARK  Name = CHEMBL2035011
REMARK  13 active torsions:
REMARK  status: ('A' for Active; 'I' for Inactive)
REMARK    1  A    between atoms: C_1  and  C_2
REMARK    2  A    between atoms: C_2  and  C_3
REMARK    3  A    between atoms: C_8  and  C_9
REMARK    4  A    between atoms: C_9  and  C_10
REMARK    5  A    between atoms: C_9  and  N_16
REMARK    6  A    between atoms: N_12  and  C_13
REMARK    7  A    between atoms: C_13  and  C_14
REMARK    8  A    between atoms: C_13  and  C_15
REMARK    9  A    between atoms: C_19  and  C_20
REMARK   10  A    between atoms: CA_32  and  CB_33
REMARK   11  A    between atoms: CB_33  and  CG_34
REMARK   12  A    between atoms: CG_34  and  CD1_35
REMARK   13  A    between atoms: CG_34  and  CD2_36
REMARK                            x       y       z     vdW  Elec       q    Type
REMARK                         _______ _______ _______ _____ _____    ______ ____
ROOT
ATOM      1  N   LEU A   1      -7.606   3.549 128.514  0.00  0.00    +0.000 N 
ATOM      2  C   UNK A   2      -7.576   3.955 127.166  0.00  0.00    +0.000 C 
ATOM      3  O   UNK A   2      -7.773   5.128 126.897  0.00  0.00    +0.000 OA
ATOM      4  C   UNK A   2      -7.325   2.805 126.073  0.00  0.00    +0.000 C 
ATOM      5  N   UNK A   2      -6.240   2.030 126.624  0.00  0.00    +0.000 N 
ATOM      6  C   LEU A   1      -6.331   1.534 127.910  0.00  0.00    +0.000 C 
ATOM      7  O   LEU A   1      -5.532   0.721 128.301  0.00  0.00    +0.000 OA
ATOM      8  CA  LEU A   1      -7.564   2.072 128.712  0.00  0.00    +0.000 C 
ATOM      9  H   UNK A   2      -5.477   1.658 126.073  0.00  0.00    +0.000 HD
ENDROOT
BRANCH   4  10
ATOM     10  C   UNK A   2      -6.991   3.460 124.725  0.00  0.00    +0.000 C 
ATOM     11  C   UNK A   2      -6.943   2.347 123.705  0.00  0.00    +0.000 C 
ATOM     12  C   UNK A   2      -6.699   3.197 122.540  0.00  0.00    +0.000 A 
ATOM     13  C   UNK A   2      -7.547   3.365 121.469  0.00  0.00    +0.000 A 
ATOM     14  C   UNK A   2      -7.048   3.986 120.353  0.00  0.00    +0.000 A 
ATOM     15  C   UNK A   2      -5.721   4.422 120.389  0.00  0.00    +0.000 A 
ATOM     16  C   UNK A   2      -4.987   4.449 121.619  0.00  0.00    +0.000 A 
ATOM     17  C   UNK A   2      -5.617   4.011 122.778  0.00  0.00    +0.000 A 
ATOM     18  C   UNK A   2      -5.625   4.227 124.325  0.00  0.00    +0.000 C 
ENDBRANCH   4  10
BRANCH   1  19
ATOM     19  C   UNK A   0      -8.006   4.684 129.494  0.00  0.00    +0.000 C 
BRANCH  19  25
ATOM     20  C   UNK A   0      -5.778   5.466 130.811  0.00  0.00    +0.000 A 
ATOM     21  C   UNK A   0      -5.090   5.926 131.972  0.00  0.00    +0.000 A 
ATOM     22  C   UNK A   0      -5.714   5.887 133.217  0.00  0.00    +0.000 A 
ATOM     23  C   UNK A   0      -7.024   5.360 133.279  0.00  0.00    +0.000 A 
ATOM     24  C   UNK A   0      -7.675   4.811 132.123  0.00  0.00    +0.000 A 
ATOM     25  C   UNK A   0      -7.124   4.957 130.819  0.00  0.00    +0.000 A 
BRANCH  20  27
ATOM     26  C   UNK A   0      -4.292   4.018 129.929  0.00  0.00    +0.000 C 
ATOM     27  C   UNK A   0      -4.926   5.363 129.595  0.00  0.00    +0.000 C 
ENDBRANCH  20  27
ENDBRANCH  19  25
BRANCH  19  28
ATOM     28  C   UNK A   0      -9.633   4.568 129.651  0.00  0.00    +0.000 C 
ATOM     29  O   UNK A   0     -10.203   3.472 129.714  0.00  0.00    +0.000 OA
ATOM     30  N   UNK A   0     -10.362   5.756 129.765  0.00  0.00    +0.000 N 
ATOM     31  H   UNK A   0      -9.892   6.611 129.488  0.00  0.00    +0.000 HD
BRANCH  30  32
ATOM     32  C   UNK A   0     -11.773   5.884 130.222  0.00  0.00    +0.000 C 
ATOM     33  C   UNK A   0     -11.981   6.668 131.543  0.00  0.00    +0.000 C 
ATOM     34  C   UNK A   0     -12.634   6.552 129.128  0.00  0.00    +0.000 C 
ENDBRANCH  30  32
ENDBRANCH  19  28
ENDBRANCH   1  19
BRANCH   8  35
ATOM     35  CB  LEU A   1      -7.331   1.623 130.120  0.00  0.00    +0.000 C 
BRANCH  35  36
ATOM     36  CG  LEU A   1      -8.354   0.589 130.562  0.00  0.00    +0.000 C 
ATOM     37  CD1 LEU A   1      -7.885  -0.783 130.864  0.00  0.00    +0.000 C 
ATOM     38  CD2 LEU A   1      -8.922   1.036 131.868  0.00  0.00    +0.000 C 
ENDBRANCH  35  36
ENDBRANCH   8  35
TORSDOF 8
ENDMDL
MODEL 4
REMARK VINA RESULT:      -8.6      2.361      7.446
REMARK  Name = CHEMBL2035011
REMARK  13 active torsions:
REMARK  status: ('A' for Active; 'I' for Inactive)
REMARK    1  A    between atoms: C_1  and  C_2
REMARK    2  A    between atoms: C_2  and  C_3
REMARK    3  A    between atoms: C_8  and  C_9
REMARK    4  A    between atoms: C_9  and  C_10
REMARK    5  A    between atoms: C_9  and  N_16
REMARK    6  A    between atoms: N_12  and  C_13
REMARK    7  A    between atoms: C_13  and  C_14
REMARK    8  A    between atoms: C_13  and  C_15
REMARK    9  A    between atoms: C_19  and  C_20
REMARK   10  A    between atoms: CA_32  and  CB_33
REMARK   11  A    between atoms: CB_33  and  CG_34
REMARK   12  A    between atoms: CG_34  and  CD1_35
REMARK   13  A    between atoms: CG_34  and  CD2_36
REMARK                            x       y       z     vdW  Elec       q    Type
REMARK                         _______ _______ _______ _____ _____    ______ ____
ROOT
ATOM      1  N   LEU A   1      -6.299   3.419 127.858  0.00  0.00    +0.000 N 
ATOM      2  C   UNK A   2      -6.512   3.941 126.568  0.00  0.00    +0.000 C 
ATOM      3  O   UNK A   2      -6.420   5.145 126.395  0.00  0.00    +0.000 OA
ATOM      4  C   UNK A   2      -6.910   2.889 125.422  0.00  0.00    +0.000 C 
ATOM      5  N   UNK A   2      -5.995   1.791 125.621  0.00  0.00    +0.000 N 
ATOM      6  C   LEU A   1      -5.881   1.206 126.867  0.00  0.00    +0.000 C 
ATOM      7  O   LEU A   1      -5.282   0.169 126.995  0.00  0.00    +0.000 OA
ATOM      8  CA  LEU A   1      -6.641   1.975 128.001  0.00  0.00    +0.000 C 
ATOM      9  H   UNK A   2      -5.551   1.285 124.866  0.00  0.00    +0.000 HD
ENDROOT
BRANCH   4  10
ATOM     10  C   UNK A   2      -6.771   3.565 124.051  0.00  0.00    +0.000 C 
ATOM     11  C   UNK A   2      -6.988   2.488 123.014  0.00  0.00    +0.000 C 
ATOM     12  C   UNK A   2      -6.890   3.359 121.843  0.00  0.00    +0.000 A 
ATOM     13  C   UNK A   2      -7.898   3.624 120.945  0.00  0.00    +0.000 A 
ATOM     14  C   UNK A   2      -7.558   4.246 119.772  0.00  0.00    +0.000 A 
ATOM     15  C   UNK A   2      -6.216   4.586 119.580  0.00  0.00    +0.000 A 
ATOM     16  C   UNK A   2      -5.277   4.519 120.659  0.00  0.00    +0.000 A 
ATOM     17  C   UNK A   2      -5.725   4.086 121.902  0.00  0.00    +0.000 A 
ATOM     18  C   UNK A   2      -5.443   4.247 123.430  0.00  0.00    +0.000 C 
ENDBRANCH   4  10
BRANCH   1  19
ATOM     19  C   UNK A   0      -6.072   4.510 128.938  0.00  0.00    +0.000 C 
BRANCH  19  25
ATOM     20  C   UNK A   0      -3.678   5.633 129.503  0.00  0.00    +0.000 A 
ATOM     21  C   UNK A   0      -2.546   5.844 130.345  0.00  0.00    +0.000 A 
ATOM     22  C   UNK A   0      -2.326   5.016 131.444  0.00  0.00    +0.000 A 
ATOM     23  C   UNK A   0      -3.243   3.965 131.667  0.00  0.00    +0.000 A 
ATOM     24  C   UNK A   0      -4.326   3.698 130.763  0.00  0.00    +0.000 A 
ATOM     25  C   UNK A   0      -4.657   4.599 129.713  0.00  0.00    +0.000 A 
BRANCH  20  27
ATOM     26  C   UNK A   0      -2.185   6.773 128.256  0.00  0.00    +0.000 C 
ATOM     27  C   UNK A   0      -3.673   6.444 128.255  0.00  0.00    +0.000 C 
ENDBRANCH  20  27
ENDBRANCH  19  25
BRANCH  19  28
ATOM     28  C   UNK A   0      -7.450   4.536 129.825  0.00  0.00    +0.000 C 
ATOM     29  O   UNK A   0      -7.460   4.206 131.017  0.00  0.00    +0.000 OA
ATOM     30  N   UNK A   0      -8.615   4.996 129.204  0.00  0.00    +0.000 N 
ATOM     31  H   UNK A   0      -8.608   5.040 128.192  0.00  0.00    +0.000 HD
BRANCH  30  32
ATOM     32  C   UNK A   0      -9.877   5.396 129.884  0.00  0.00    +0.000 C 
ATOM     33  C   UNK A   0     -10.652   4.252 130.586  0.00  0.00    +0.000 C 
ATOM     34  C   UNK A   0      -9.598   6.498 130.930  0.00  0.00    +0.000 C 
ENDBRANCH  30  32
ENDBRANCH  19  28
ENDBRANCH   1  19
BRANCH   8  35
ATOM     35  CB  LEU A   1      -6.184   1.333 129.272  0.00  0.00    +0.000 C 
BRANCH  35  36
ATOM     36  CG  LEU A   1      -7.344   0.748 130.061  0.00  0.00    +0.000 C 
ATOM     37  CD1 LEU A   1      -7.725  -0.662 129.813  0.00  0.00    +0.000 C 
ATOM     38  CD2 LEU A   1      -6.958   0.733 131.503  0.00  0.00    +0.000 C 
ENDBRANCH  35  36
ENDBRANCH   8  35
TORSDOF 8
ENDMDL
MODEL 5
REMARK VINA RESULT:      -8.5      2.277      3.187
REMARK  Name = CHEMBL2035011
REMARK  13 active torsions:
REMARK  status: ('A' for Active; 'I' for Inactive)
REMARK    1  A    between atoms: C_1  and  C_2
REMARK    2  A    between atoms: C_2  and  C_3
REMARK    3  A    between atoms: C_8  and  C_9
REMARK    4  A    between atoms: C_9  and  C_10
REMARK    5  A    between atoms: C_9  and  N_16
REMARK    6  A    between atoms: N_12  and  C_13
REMARK    7  A    between atoms: C_13  and  C_14
REMARK    8  A    between atoms: C_13  and  C_15
REMARK    9  A    between atoms: C_19  and  C_20
REMARK   10  A    between atoms: CA_32  and  CB_33
REMARK   11  A    between atoms: CB_33  and  CG_34
REMARK   12  A    between atoms: CG_34  and  CD1_35
REMARK   13  A    between atoms: CG_34  and  CD2_36
REMARK                            x       y       z     vdW  Elec       q    Type
REMARK                         _______ _______ _______ _____ _____    ______ ____
ROOT
ATOM      1  N   LEU A   1      -6.918   2.691 129.813  0.00  0.00    +0.000 N 
ATOM      2  C   UNK A   2      -7.903   3.634 129.463  0.00  0.00    +0.000 C 
ATOM      3  O   UNK A   2      -8.533   3.474 128.431  0.00  0.00    +0.000 OA
ATOM      4  C   UNK A   2      -8.085   4.886 130.451  0.00  0.00    +0.000 C 
ATOM      5  N   UNK A   2      -8.076   4.297 131.768  0.00  0.00    +0.000 N 
ATOM      6  C   LEU A   1      -7.040   3.466 132.145  0.00  0.00    +0.000 C 
ATOM      7  O   LEU A   1      -6.916   3.139 133.298  0.00  0.00    +0.000 OA
ATOM      8  CA  LEU A   1      -6.070   3.089 130.973  0.00  0.00    +0.000 C 
ATOM      9  H   UNK A   2      -8.686   4.591 132.520  0.00  0.00    +0.000 HD
ENDROOT
BRANCH   4  10
ATOM     10  C   UNK A   2      -9.395   5.609 130.108  0.00  0.00    +0.000 C 
ATOM     11  C   UNK A   2      -9.113   7.089 130.215  0.00  0.00    +0.000 C 
ATOM     12  C   UNK A   2     -10.434   7.544 129.782  0.00  0.00    +0.000 A 
ATOM     13  C   UNK A   2     -10.708   8.263 128.641  0.00  0.00    +0.000 A 
ATOM     14  C   UNK A   2     -11.952   8.828 128.528  0.00  0.00    +0.000 A 
ATOM     15  C   UNK A   2     -12.860   8.616 129.569  0.00  0.00    +0.000 A 
ATOM     16  C   UNK A   2     -12.598   7.647 130.591  0.00  0.00    +0.000 A 
ATOM     17  C   UNK A   2     -11.406   6.934 130.539  0.00  0.00    +0.000 A 
ATOM     18  C   UNK A   2     -10.782   5.557 130.936  0.00  0.00    +0.000 C 
ENDBRANCH   4  10
BRANCH   1  19
ATOM     19  C   UNK A   0      -6.696   1.597 128.734  0.00  0.00    +0.000 C 
BRANCH  19  25
ATOM     20  C   UNK A   0      -7.407  -0.718 129.937  0.00  0.00    +0.000 A 
ATOM     21  C   UNK A   0      -7.312  -2.129 130.123  0.00  0.00    +0.000 A 
ATOM     22  C   UNK A   0      -6.252  -2.839 129.564  0.00  0.00    +0.000 A 
ATOM     23  C   UNK A   0      -5.282  -2.110 128.839  0.00  0.00    +0.000 A 
ATOM     24  C   UNK A   0      -5.331  -0.679 128.736  0.00  0.00    +0.000 A 
ATOM     25  C   UNK A   0      -6.465   0.060 129.176  0.00  0.00    +0.000 A 
BRANCH  20  27
ATOM     26  C   UNK A   0      -7.873  -0.419 132.122  0.00  0.00    +0.000 C 
ATOM     27  C   UNK A   0      -8.458  -0.061 130.761  0.00  0.00    +0.000 C 
ENDBRANCH  20  27
ENDBRANCH  19  25
BRANCH  19  28
ATOM     28  C   UNK A   0      -5.660   2.260 127.651  0.00  0.00    +0.000 C 
ATOM     29  O   UNK A   0      -5.915   2.283 126.441  0.00  0.00    +0.000 OA
ATOM     30  N   UNK A   0      -4.492   2.849 128.144  0.00  0.00    +0.000 N 
ATOM     31  H   UNK A   0      -4.224   2.613 129.092  0.00  0.00    +0.000 HD
BRANCH  30  32
ATOM     32  C   UNK A   0      -3.586   3.766 127.400  0.00  0.00    +0.000 C 
ATOM     33  C   UNK A   0      -3.179   5.061 128.149  0.00  0.00    +0.000 C 
ATOM     34  C   UNK A   0      -2.295   3.027 126.985  0.00  0.00    +0.000 C 
ENDBRANCH  30  32
ENDBRANCH  19  28
ENDBRANCH   1  19
BRANCH   8  35
ATOM     35  CB  LEU A   1      -5.199   2.008 131.529  0.00  0.00    +0.000 C 
BRANCH  35  36
ATOM     36  CG  LEU A   1      -3.751   2.453 131.651  0.00  0.00    +0.000 C 
ATOM     37  CD1 LEU A   1      -3.454   3.904 131.610  0.00  0.00    +0.000 C 
ATOM     38  CD2 LEU A   1      -3.260   2.057 133.004  0.00  0.00    +0.000 C 
ENDBRANCH  35  36
ENDBRANCH   8  35
TORSDOF 8
ENDMDL
MODEL 6
REMARK VINA RESULT:      -8.5      1.875      4.331
REMARK  Name = CHEMBL2035011
REMARK  13 active torsions:
REMARK  status: ('A' for Active; 'I' for Inactive)
REMARK    1  A    between atoms: C_1  and  C_2
REMARK    2  A    between atoms: C_2  and  C_3
REMARK    3  A    between atoms: C_8  and  C_9
REMARK    4  A    between atoms: C_9  and  C_10
REMARK    5  A    between atoms: C_9  and  N_16
REMARK    6  A    between atoms: N_12  and  C_13
REMARK    7  A    between atoms: C_13  and  C_14
REMARK    8  A    between atoms: C_13  and  C_15
REMARK    9  A    between atoms: C_19  and  C_20
REMARK   10  A    between atoms: CA_32  and  CB_33
REMARK   11  A    between atoms: CB_33  and  CG_34
REMARK   12  A    between atoms: CG_34  and  CD1_35
REMARK   13  A    between atoms: CG_34  and  CD2_36
REMARK                            x       y       z     vdW  Elec       q    Type
REMARK                         _______ _______ _______ _____ _____    ______ ____
ROOT
ATOM      1  N   LEU A   1      -6.508   3.687 130.749  0.00  0.00    +0.000 N 
ATOM      2  C   UNK A   2      -7.500   4.589 130.320  0.00  0.00    +0.000 C 
ATOM      3  O   UNK A   2      -7.476   4.990 129.168  0.00  0.00    +0.000 OA
ATOM      4  C   UNK A   2      -8.574   5.056 131.419  0.00  0.00    +0.000 C 
ATOM      5  N   UNK A   2      -8.942   3.833 132.090  0.00  0.00    +0.000 N 
ATOM      6  C   LEU A   1      -7.964   3.012 132.614  0.00  0.00    +0.000 C 
ATOM      7  O   LEU A   1      -8.265   2.105 133.348  0.00  0.00    +0.000 OA
ATOM      8  CA  LEU A   1      -6.506   3.429 132.218  0.00  0.00    +0.000 C 
ATOM      9  H   UNK A   2      -9.888   3.610 132.373  0.00  0.00    +0.000 HD
ENDROOT
BRANCH   4  10
ATOM     10  C   UNK A   2      -9.746   5.748 130.711  0.00  0.00    +0.000 C 
ATOM     11  C   UNK A   2      -9.312   7.172 130.448  0.00  0.00    +0.000 C 
ATOM     12  C   UNK A   2     -10.516   7.584 129.726  0.00  0.00    +0.000 A 
ATOM     13  C   UNK A   2     -10.577   7.966 128.405  0.00  0.00    +0.000 A 
ATOM     14  C   UNK A   2     -11.728   8.568 127.969  0.00  0.00    +0.000 A 
ATOM     15  C   UNK A   2     -12.766   8.733 128.890  0.00  0.00    +0.000 A 
ATOM     16  C   UNK A   2     -12.732   8.080 130.164  0.00  0.00    +0.000 A 
ATOM     17  C   UNK A   2     -11.630   7.292 130.476  0.00  0.00    +0.000 A 
ATOM     18  C   UNK A   2     -11.215   6.042 131.319  0.00  0.00    +0.000 C 
ENDBRANCH   4  10
BRANCH   1  19
ATOM     19  C   UNK A   0      -5.422   3.405 129.677  0.00  0.00    +0.000 C 
BRANCH  19  25
ATOM     20  C   UNK A   0      -3.228   4.341 128.404  0.00  0.00    +0.000 A 
ATOM     21  C   UNK A   0      -2.374   5.394 127.961  0.00  0.00    +0.000 A 
ATOM     22  C   UNK A   0      -2.528   6.681 128.471  0.00  0.00    +0.000 A 
ATOM     23  C   UNK A   0      -3.531   6.886 129.445  0.00  0.00    +0.000 A 
ATOM     24  C   UNK A   0      -4.323   5.804 129.957  0.00  0.00    +0.000 A 
ATOM     25  C   UNK A   0      -4.286   4.511 129.365  0.00  0.00    +0.000 A 
BRANCH  20  27
ATOM     26  C   UNK A   0      -2.090   3.432 126.682  0.00  0.00    +0.000 C 
ATOM     27  C   UNK A   0      -2.817   2.986 127.945  0.00  0.00    +0.000 C 
ENDBRANCH  20  27
ENDBRANCH  19  25
BRANCH  19  28
ATOM     28  C   UNK A   0      -6.222   2.732 128.415  0.00  0.00    +0.000 C 
ATOM     29  O   UNK A   0      -6.843   1.669 128.533  0.00  0.00    +0.000 OA
ATOM     30  N   UNK A   0      -6.226   3.428 127.202  0.00  0.00    +0.000 N 
ATOM     31  H   UNK A   0      -5.535   4.161 127.092  0.00  0.00    +0.000 HD
BRANCH  30  32
ATOM     32  C   UNK A   0      -7.126   3.175 126.044  0.00  0.00    +0.000 C 
ATOM     33  C   UNK A   0      -7.900   4.409 125.514  0.00  0.00    +0.000 C 
ATOM     34  C   UNK A   0      -6.331   2.567 124.868  0.00  0.00    +0.000 C 
ENDBRANCH  30  32
ENDBRANCH  19  28
ENDBRANCH   1  19
BRANCH   8  35
ATOM     35  CB  LEU A   1      -5.647   2.289 132.665  0.00  0.00    +0.000 C 
BRANCH  35  36
ATOM     36  CG  LEU A   1      -4.390   2.769 133.372  0.00  0.00    +0.000 C 
ATOM     37  CD1 LEU A   1      -3.105   2.721 132.637  0.00  0.00    +0.000 C 
ATOM     38  CD2 LEU A   1      -4.551   4.226 133.654  0.00  0.00    +0.000 C 
ENDBRANCH  35  36
ENDBRANCH   8  35
TORSDOF 8
ENDMDL
MODEL 7
REMARK VINA RESULT:      -8.2      2.638      7.840
REMARK  Name = CHEMBL2035011
REMARK  13 active torsions:
REMARK  status: ('A' for Active; 'I' for Inactive)
REMARK    1  A    between atoms: C_1  and  C_2
REMARK    2  A    between atoms: C_2  and  C_3
REMARK    3  A    between atoms: C_8  and  C_9
REMARK    4  A    between atoms: C_9  and  C_10
REMARK    5  A    between atoms: C_9  and  N_16
REMARK    6  A    between atoms: N_12  and  C_13
REMARK    7  A    between atoms: C_13  and  C_14
REMARK    8  A    between atoms: C_13  and  C_15
REMARK    9  A    between atoms: C_19  and  C_20
REMARK   10  A    between atoms: CA_32  and  CB_33
REMARK   11  A    between atoms: CB_33  and  CG_34
REMARK   12  A    between atoms: CG_34  and  CD1_35
REMARK   13  A    between atoms: CG_34  and  CD2_36
REMARK                            x       y       z     vdW  Elec       q    Type
REMARK                         _______ _______ _______ _____ _____    ______ ____
ROOT
ATOM      1  N   LEU A   1      -6.673   2.798 129.537  0.00  0.00    +0.000 N 
ATOM      2  C   UNK A   2      -7.023   1.959 128.462  0.00  0.00    +0.000 C 
ATOM      3  O   UNK A   2      -7.094   2.434 127.341  0.00  0.00    +0.000 OA
ATOM      4  C   UNK A   2      -7.349   0.428 128.820  0.00  0.00    +0.000 C 
ATOM      5  N   UNK A   2      -6.293   0.047 129.726  0.00  0.00    +0.000 N 
ATOM      6  C   LEU A   1      -6.036   0.814 130.846  0.00  0.00    +0.000 C 
ATOM      7  O   LEU A   1      -5.304   0.397 131.708  0.00  0.00    +0.000 OA
ATOM      8  CA  LEU A   1      -6.821   2.169 130.881  0.00  0.00    +0.000 C 
ATOM      9  H   UNK A   2      -5.833  -0.853 129.707  0.00  0.00    +0.000 HD
ENDROOT
BRANCH   4  10
ATOM     10  C   UNK A   2      -7.375  -0.394 127.524  0.00  0.00    +0.000 C 
ATOM     11  C   UNK A   2      -7.763  -1.802 127.913  0.00  0.00    +0.000 C 
ATOM     12  C   UNK A   2      -7.796  -2.348 126.557  0.00  0.00    +0.000 A 
ATOM     13  C   UNK A   2      -8.907  -2.836 125.907  0.00  0.00    +0.000 A 
ATOM     14  C   UNK A   2      -8.709  -3.546 124.752  0.00  0.00    +0.000 A 
ATOM     15  C   UNK A   2      -7.395  -3.707 124.303  0.00  0.00    +0.000 A 
ATOM     16  C   UNK A   2      -6.322  -2.954 124.881  0.00  0.00    +0.000 A 
ATOM     17  C   UNK A   2      -6.611  -2.073 125.916  0.00  0.00    +0.000 A 
ATOM     18  C   UNK A   2      -6.122  -0.736 126.562  0.00  0.00    +0.000 C 
ENDBRANCH   4  10
BRANCH   1  19
ATOM     19  C   UNK A   0      -6.525   4.290 129.137  0.00  0.00    +0.000 C 
BRANCH  19  25
ATOM     20  C   UNK A   0      -3.923   4.975 129.411  0.00  0.00    +0.000 A 
ATOM     21  C   UNK A   0      -2.885   5.892 129.751  0.00  0.00    +0.000 A 
ATOM     22  C   UNK A   0      -3.183   7.058 130.453  0.00  0.00    +0.000 A 
ATOM     23  C   UNK A   0      -4.528   7.275 130.826  0.00  0.00    +0.000 A 
ATOM     24  C   UNK A   0      -5.553   6.304 130.565  0.00  0.00    +0.000 A 
ATOM     25  C   UNK A   0      -5.312   5.172 129.737  0.00  0.00    +0.000 A 
BRANCH  20  27
ATOM     26  C   UNK A   0      -2.601   4.265 127.729  0.00  0.00    +0.000 C 
ATOM     27  C   UNK A   0      -3.441   3.681 128.859  0.00  0.00    +0.000 C 
ENDBRANCH  20  27
ENDBRANCH  19  25
BRANCH  19  28
ATOM     28  C   UNK A   0      -8.041   4.908 129.196  0.00  0.00    +0.000 C 
ATOM     29  O   UNK A   0      -8.677   5.166 128.168  0.00  0.00    +0.000 OA
ATOM     30  N   UNK A   0      -8.620   5.090 130.456  0.00  0.00    +0.000 N 
ATOM     31  H   UNK A   0      -7.996   5.079 131.254  0.00  0.00    +0.000 HD
BRANCH  30  32
ATOM     32  C   UNK A   0     -10.062   5.332 130.736  0.00  0.00    +0.000 C 
ATOM     33  C   UNK A   0     -10.995   4.107 130.553  0.00  0.00    +0.000 C 
ATOM     34  C   UNK A   0     -10.248   5.865 132.173  0.00  0.00    +0.000 C 
ENDBRANCH  30  32
ENDBRANCH  19  28
ENDBRANCH   1  19
BRANCH   8  35
ATOM     35  CB  LEU A   1      -6.215   2.933 132.015  0.00  0.00    +0.000 C 
BRANCH  35  36
ATOM     36  CG  LEU A   1      -7.229   3.225 133.109  0.00  0.00    +0.000 C 
ATOM     37  CD1 LEU A   1      -8.532   2.521 133.068  0.00  0.00    +0.000 C 
ATOM     38  CD2 LEU A   1      -6.650   2.766 134.406  0.00  0.00    +0.000 C 
ENDBRANCH  35  36
ENDBRANCH   8  35
TORSDOF 8
ENDMDL
MODEL 8
REMARK VINA RESULT:      -8.1      3.587      4.996
REMARK  Name = CHEMBL2035011
REMARK  13 active torsions:
REMARK  status: ('A' for Active; 'I' for Inactive)
REMARK    1  A    between atoms: C_1  and  C_2
REMARK    2  A    between atoms: C_2  and  C_3
REMARK    3  A    between atoms: C_8  and  C_9
REMARK    4  A    between atoms: C_9  and  C_10
REMARK    5  A    between atoms: C_9  and  N_16
REMARK    6  A    between atoms: N_12  and  C_13
REMARK    7  A    between atoms: C_13  and  C_14
REMARK    8  A    between atoms: C_13  and  C_15
REMARK    9  A    between atoms: C_19  and  C_20
REMARK   10  A    between atoms: CA_32  and  CB_33
REMARK   11  A    between atoms: CB_33  and  CG_34
REMARK   12  A    between atoms: CG_34  and  CD1_35
REMARK   13  A    between atoms: CG_34  and  CD2_36
REMARK                            x       y       z     vdW  Elec       q    Type
REMARK                         _______ _______ _______ _____ _____    ______ ____
ROOT
ATOM      1  N   LEU A   1      -6.448   4.761 131.488  0.00  0.00    +0.000 N 
ATOM      2  C   UNK A   2      -7.511   5.087 130.624  0.00  0.00    +0.000 C 
ATOM      3  O   UNK A   2      -7.627   4.478 129.574  0.00  0.00    +0.000 OA
ATOM      4  C   UNK A   2      -8.472   6.288 131.086  0.00  0.00    +0.000 C 
ATOM      5  N   UNK A   2      -8.724   6.018 132.481  0.00  0.00    +0.000 N 
ATOM      6  C   LEU A   1      -7.667   5.817 133.346  0.00  0.00    +0.000 C 
ATOM      7  O   LEU A   1      -7.855   5.798 134.536  0.00  0.00    +0.000 OA
ATOM      8  CA  LEU A   1      -6.277   5.701 132.634  0.00  0.00    +0.000 C 
ATOM      9  H   UNK A   2      -9.625   6.144 132.925  0.00  0.00    +0.000 HD
ENDROOT
BRANCH   4  10
ATOM     10  C   UNK A   2      -9.738   6.278 130.218  0.00  0.00    +0.000 C 
ATOM     11  C   UNK A   2      -9.823   7.637 129.563  0.00  0.00    +0.000 C 
ATOM     12  C   UNK A   2     -11.015   7.362 128.761  0.00  0.00    +0.000 A 
ATOM     13  C   UNK A   2     -11.076   7.332 127.386  0.00  0.00    +0.000 A 
ATOM     14  C   UNK A   2     -12.317   7.321 126.804  0.00  0.00    +0.000 A 
ATOM     15  C   UNK A   2     -13.432   7.321 127.647  0.00  0.00    +0.000 A 
ATOM     16  C   UNK A   2     -13.293   7.088 129.054  0.00  0.00    +0.000 A 
ATOM     17  C   UNK A   2     -12.018   6.882 129.569  0.00  0.00    +0.000 A 
ATOM     18  C   UNK A   2     -11.267   6.148 130.726  0.00  0.00    +0.000 C 
ENDBRANCH   4  10
BRANCH   1  19
ATOM     19  C   UNK A   0      -5.477   3.701 130.903  0.00  0.00    +0.000 C 
BRANCH  19  25
ATOM     20  C   UNK A   0      -5.858   1.274 132.032  0.00  0.00    +0.000 A 
ATOM     21  C   UNK A   0      -5.386   0.062 132.617  0.00  0.00    +0.000 A 
ATOM     22  C   UNK A   0      -4.055  -0.053 133.011  0.00  0.00    +0.000 A 
ATOM     23  C   UNK A   0      -3.217   1.070 132.832  0.00  0.00    +0.000 A 
ATOM     24  C   UNK A   0      -3.720   2.318 132.332  0.00  0.00    +0.000 A 
ATOM     25  C   UNK A   0      -5.034   2.430 131.796  0.00  0.00    +0.000 A 
BRANCH  20  27
ATOM     26  C   UNK A   0      -7.654   1.940 133.221  0.00  0.00    +0.000 C 
ATOM     27  C   UNK A   0      -7.335   1.336 131.859  0.00  0.00    +0.000 C 
ENDBRANCH  20  27
ENDBRANCH  19  25
BRANCH  19  28
ATOM     28  C   UNK A   0      -4.311   4.558 130.135  0.00  0.00    +0.000 C 
ATOM     29  O   UNK A   0      -3.277   4.913 130.715  0.00  0.00    +0.000 OA
ATOM     30  N   UNK A   0      -4.495   4.836 128.777  0.00  0.00    +0.000 N 
ATOM     31  H   UNK A   0      -5.434   4.726 128.410  0.00  0.00    +0.000 HD
BRANCH  30  32
ATOM     32  C   UNK A   0      -3.454   5.310 127.824  0.00  0.00    +0.000 C 
ATOM     33  C   UNK A   0      -2.714   6.609 128.232  0.00  0.00    +0.000 C 
ATOM     34  C   UNK A   0      -2.396   4.208 127.593  0.00  0.00    +0.000 C 
ENDBRANCH  30  32
ENDBRANCH  19  28
ENDBRANCH   1  19
BRANCH   8  35
ATOM     35  CB  LEU A   1      -5.336   5.241 133.702  0.00  0.00    +0.000 C 
BRANCH  35  36
ATOM     36  CG  LEU A   1      -4.295   6.297 134.034  0.00  0.00    +0.000 C 
ATOM     37  CD1 LEU A   1      -4.332   6.926 135.375  0.00  0.00    +0.000 C 
ATOM     38  CD2 LEU A   1      -2.954   5.642 134.017  0.00  0.00    +0.000 C 
ENDBRANCH  35  36
ENDBRANCH   8  35
TORSDOF 8
ENDMDL
MODEL 9
REMARK VINA RESULT:      -8.1      2.413      7.638
REMARK  Name = CHEMBL2035011
REMARK  13 active torsions:
REMARK  status: ('A' for Active; 'I' for Inactive)
REMARK    1  A    between atoms: C_1  and  C_2
REMARK    2  A    between atoms: C_2  and  C_3
REMARK    3  A    between atoms: C_8  and  C_9
REMARK    4  A    between atoms: C_9  and  C_10
REMARK    5  A    between atoms: C_9  and  N_16
REMARK    6  A    between atoms: N_12  and  C_13
REMARK    7  A    between atoms: C_13  and  C_14
REMARK    8  A    between atoms: C_13  and  C_15
REMARK    9  A    between atoms: C_19  and  C_20
REMARK   10  A    between atoms: CA_32  and  CB_33
REMARK   11  A    between atoms: CB_33  and  CG_34
REMARK   12  A    between atoms: CG_34  and  CD1_35
REMARK   13  A    between atoms: CG_34  and  CD2_36
REMARK                            x       y       z     vdW  Elec       q    Type
REMARK                         _______ _______ _______ _____ _____    ______ ____
ROOT
ATOM      1  N   LEU A   1      -6.115   2.885 128.292  0.00  0.00    +0.000 N 
ATOM      2  C   UNK A   2      -6.696   1.775 127.649  0.00  0.00    +0.000 C 
ATOM      3  O   UNK A   2      -7.408   1.025 128.295  0.00  0.00    +0.000 OA
ATOM      4  C   UNK A   2      -6.328   1.565 126.100  0.00  0.00    +0.000 C 
ATOM      5  N   UNK A   2      -6.452   2.884 125.529  0.00  0.00    +0.000 N 
ATOM      6  C   LEU A   1      -5.779   3.948 126.098  0.00  0.00    +0.000 C 
ATOM      7  O   LEU A   1      -5.710   5.000 125.515  0.00  0.00    +0.000 OA
ATOM      8  CA  LEU A   1      -5.104   3.611 127.470  0.00  0.00    +0.000 C 
ATOM      9  H   UNK A   2      -6.854   3.067 124.619  0.00  0.00    +0.000 HD
ENDROOT
BRANCH   4  10
ATOM     10  C   UNK A   2      -7.291   0.537 125.492  0.00  0.00    +0.000 C 
ATOM     11  C   UNK A   2      -6.483  -0.715 125.238  0.00  0.00    +0.000 C 
ATOM     12  C   UNK A   2      -7.592  -1.536 124.754  0.00  0.00    +0.000 A 
ATOM     13  C   UNK A   2      -8.086  -2.669 125.361  0.00  0.00    +0.000 A 
ATOM     14  C   UNK A   2      -8.945  -3.455 124.639  0.00  0.00    +0.000 A 
ATOM     15  C   UNK A   2      -9.276  -3.040 123.346  0.00  0.00    +0.000 A 
ATOM     16  C   UNK A   2      -8.937  -1.728 122.883  0.00  0.00    +0.000 A 
ATOM     17  C   UNK A   2      -8.249  -0.879 123.741  0.00  0.00    +0.000 A 
ATOM     18  C   UNK A   2      -8.052   0.636 124.069  0.00  0.00    +0.000 C 
ENDBRANCH   4  10
BRANCH   1  19
ATOM     19  C   UNK A   0      -6.394   2.934 129.818  0.00  0.00    +0.000 C 
BRANCH  19  25
ATOM     20  C   UNK A   0      -8.599   3.885 131.061  0.00  0.00    +0.000 A 
ATOM     21  C   UNK A   0      -9.302   4.875 131.808  0.00  0.00    +0.000 A 
ATOM     22  C   UNK A   0      -8.766   6.152 131.957  0.00  0.00    +0.000 A 
ATOM     23  C   UNK A   0      -7.531   6.423 131.328  0.00  0.00    +0.000 A 
ATOM     24  C   UNK A   0      -6.873   5.453 130.498  0.00  0.00    +0.000 A 
ATOM     25  C   UNK A   0      -7.321   4.104 130.435  0.00  0.00    +0.000 A 
BRANCH  20  27
ATOM     26  C   UNK A   0      -9.581   2.246 132.257  0.00  0.00    +0.000 C 
ATOM     27  C   UNK A   0      -9.379   2.645 130.800  0.00  0.00    +0.000 C 
ENDBRANCH  20  27
ENDBRANCH  19  25
BRANCH  19  28
ATOM     28  C   UNK A   0      -4.951   2.626 130.532  0.00  0.00    +0.000 C 
ATOM     29  O   UNK A   0      -4.295   1.614 130.259  0.00  0.00    +0.000 OA
ATOM     30  N   UNK A   0      -4.454   3.575 131.430  0.00  0.00    +0.000 N 
ATOM     31  H   UNK A   0      -5.112   4.260 131.784  0.00  0.00    +0.000 HD
BRANCH  30  32
ATOM     32  C   UNK A   0      -3.058   3.658 131.941  0.00  0.00    +0.000 C 
ATOM     33  C   UNK A   0      -2.442   5.080 131.980  0.00  0.00    +0.000 C 
ATOM     34  C   UNK A   0      -2.970   3.059 133.362  0.00  0.00    +0.000 C 
ENDBRANCH  30  32
ENDBRANCH  19  28
ENDBRANCH   1  19
BRANCH   8  35
ATOM     35  CB  LEU A   1      -4.666   4.933 128.017  0.00  0.00    +0.000 C 
BRANCH  35  36
ATOM     36  CG  LEU A   1      -3.174   4.961 128.305  0.00  0.00    +0.000 C 
ATOM     37  CD1 LEU A   1      -2.273   4.167 127.437  0.00  0.00    +0.000 C 
ATOM     38  CD2 LEU A   1      -2.691   6.357 128.087  0.00  0.00    +0.000 C 
ENDBRANCH  35  36
ENDBRANCH   8  35
TORSDOF 8
ENDMDL
