MODEL 1
REMARK VINA RESULT:      -9.6      0.000      0.000
REMARK  Name = CHEMBL378939
REMARK  12 active torsions:
REMARK  status: ('A' for Active; 'I' for Inactive)
REMARK    1  A    between atoms: CD1_1  and  CG_2
REMARK    2  A    between atoms: CG_2  and  CD2_3
REMARK    3  A    between atoms: CG_2  and  CB_4
REMARK    4  A    between atoms: CB_4  and  CA_5
REMARK    5  A    between atoms: C_9  and  C_10
REMARK    6  A    between atoms: N_21  and  C_22
REMARK    7  A    between atoms: C_22  and  C_23
REMARK    8  A    between atoms: C_22  and  C_30
REMARK    9  A    between atoms: N_25  and  C_26
REMARK   10  A    between atoms: C_26  and  C_27
REMARK   11  A    between atoms: C_26  and  C_28
REMARK   12  A    between atoms: C_26  and  C_29
REMARK                            x       y       z     vdW  Elec       q    Type
REMARK                         _______ _______ _______ _____ _____    ______ ____
ROOT
ATOM      1  CA  LEU A   2      -5.569   2.575 127.572  0.00  0.00    +0.000 C 
ATOM      2  C   LEU A   2      -5.341   2.019 128.997  0.00  0.00    +0.000 C 
ATOM      3  O   LEU A   2      -4.293   1.693 129.502  0.00  0.00    +0.000 OA
ATOM      4  N   UNK A   1      -6.483   1.991 129.726  0.00  0.00    +0.000 N 
ATOM      5  C   UNK A   1      -7.741   2.478 129.212  0.00  0.00    +0.000 C 
ATOM      6  C   UNK A   1      -7.957   1.947 127.796  0.00  0.00    +0.000 C 
ATOM      7  O   UNK A   1      -9.101   1.696 127.460  0.00  0.00    +0.000 OA
ATOM      8  N   LEU A   2      -6.808   1.861 126.995  0.00  0.00    +0.000 N 
ATOM      9  H   UNK A   1      -6.349   1.680 130.680  0.00  0.00    +0.000 HD
ENDROOT
BRANCH   5  10
ATOM     10  C   UNK A   1      -8.949   1.969 130.030  0.00  0.00    +0.000 C 
ATOM     11  C   UNK A   1      -9.833   3.130 130.488  0.00  0.00    +0.000 C 
ATOM     12  C   UNK A   1      -9.221   3.441 131.819  0.00  0.00    +0.000 A 
ATOM     13  C   UNK A   1      -9.255   4.645 132.495  0.00  0.00    +0.000 A 
ATOM     14  C   UNK A   1      -8.501   4.763 133.663  0.00  0.00    +0.000 A 
ATOM     15  C   UNK A   1      -7.719   3.692 134.130  0.00  0.00    +0.000 A 
ATOM     16  C   UNK A   1      -7.679   2.483 133.436  0.00  0.00    +0.000 A 
ATOM     17  C   UNK A   1      -8.444   2.370 132.288  0.00  0.00    +0.000 A 
ATOM     18  C   UNK A   1      -8.481   1.231 131.320  0.00  0.00    +0.000 C 
ENDBRANCH   5  10
BRANCH   1  19
ATOM     19  CB  LEU A   2      -4.270   2.309 126.872  0.00  0.00    +0.000 C 
BRANCH  19  21
ATOM     20  CD1 LEU A   2      -3.535   4.712 127.371  0.00  0.00    +0.000 C 
ATOM     21  CG  LEU A   2      -3.322   3.450 126.518  0.00  0.00    +0.000 C 
ATOM     22  CD2 LEU A   2      -1.847   3.105 126.590  0.00  0.00    +0.000 C 
ENDBRANCH  19  21
ENDBRANCH   1  19
BRANCH   8  23
ATOM     23  C   UNK A   0      -6.847   1.030 125.684  0.00  0.00    +0.000 C 
BRANCH  23  24
ATOM     24  C   UNK A   0      -7.313   1.813 124.418  0.00  0.00    +0.000 A 
ATOM     25  C   UNK A   0      -8.687   2.109 124.195  0.00  0.00    +0.000 A 
ATOM     26  C   UNK A   0      -9.132   2.612 122.960  0.00  0.00    +0.000 A 
ATOM     27  C   UNK A   0      -8.186   2.994 122.038  0.00  0.00    +0.000 A 
ATOM     28  C   UNK A   0      -6.850   2.823 122.287  0.00  0.00    +0.000 A 
ATOM     29  C   UNK A   0      -6.415   2.212 123.425  0.00  0.00    +0.000 A 
ATOM     30  C   UNK A   0      -6.017   3.303 121.174  0.00  0.00    +0.000 C 
ATOM     31  C   UNK A   0      -7.102   4.099 120.466  0.00  0.00    +0.000 C 
ATOM     32  O   UNK A   0      -8.411   3.568 120.819  0.00  0.00    +0.000 OA
ENDBRANCH  23  24
BRANCH  23  33
ATOM     33  C   UNK A   0      -7.506  -0.474 125.731  0.00  0.00    +0.000 C 
ATOM     34  O   UNK A   0      -7.482  -1.203 126.719  0.00  0.00    +0.000 OA
ATOM     35  N   UNK A   0      -8.162  -1.018 124.654  0.00  0.00    +0.000 N 
ATOM     36  H   UNK A   0      -8.628  -0.432 123.996  0.00  0.00    +0.000 HD
BRANCH  35  37
ATOM     37  C   UNK A   0      -8.528  -2.414 124.509  0.00  0.00    +0.000 C 
ATOM     38  C   UNK A   0      -9.383  -2.864 125.703  0.00  0.00    +0.000 C 
ATOM     39  C   UNK A   0      -9.197  -2.480 123.145  0.00  0.00    +0.000 C 
ATOM     40  C   UNK A   0      -7.260  -3.303 124.516  0.00  0.00    +0.000 C 
ENDBRANCH  35  37
ENDBRANCH  23  33
ENDBRANCH   8  23
TORSDOF 7
ENDMDL
MODEL 2
REMARK VINA RESULT:      -9.5      2.458      8.006
REMARK  Name = CHEMBL378939
REMARK  12 active torsions:
REMARK  status: ('A' for Active; 'I' for Inactive)
REMARK    1  A    between atoms: CD1_1  and  CG_2
REMARK    2  A    between atoms: CG_2  and  CD2_3
REMARK    3  A    between atoms: CG_2  and  CB_4
REMARK    4  A    between atoms: CB_4  and  CA_5
REMARK    5  A    between atoms: C_9  and  C_10
REMARK    6  A    between atoms: N_21  and  C_22
REMARK    7  A    between atoms: C_22  and  C_23
REMARK    8  A    between atoms: C_22  and  C_30
REMARK    9  A    between atoms: N_25  and  C_26
REMARK   10  A    between atoms: C_26  and  C_27
REMARK   11  A    between atoms: C_26  and  C_28
REMARK   12  A    between atoms: C_26  and  C_29
REMARK                            x       y       z     vdW  Elec       q    Type
REMARK                         _______ _______ _______ _____ _____    ______ ____
ROOT
ATOM      1  CA  LEU A   2      -7.898   0.676 129.587  0.00  0.00    +0.000 C 
ATOM      2  C   LEU A   2      -7.231  -0.464 128.781  0.00  0.00    +0.000 C 
ATOM      3  O   LEU A   2      -6.607  -1.404 129.213  0.00  0.00    +0.000 OA
ATOM      4  N   UNK A   1      -7.483  -0.369 127.454  0.00  0.00    +0.000 N 
ATOM      5  C   UNK A   1      -8.320   0.667 126.896  0.00  0.00    +0.000 C 
ATOM      6  C   UNK A   1      -7.939   2.017 127.502  0.00  0.00    +0.000 C 
ATOM      7  O   UNK A   1      -8.028   2.997 126.784  0.00  0.00    +0.000 OA
ATOM      8  N   LEU A   2      -7.580   1.997 128.858  0.00  0.00    +0.000 N 
ATOM      9  H   UNK A   1      -7.100  -1.133 126.912  0.00  0.00    +0.000 HD
ENDROOT
BRANCH   5  10
ATOM     10  C   UNK A   1      -8.123   0.830 125.373  0.00  0.00    +0.000 C 
ATOM     11  C   UNK A   1      -9.214   0.094 124.594  0.00  0.00    +0.000 C 
ATOM     12  C   UNK A   1      -8.571  -1.247 124.408  0.00  0.00    +0.000 A 
ATOM     13  C   UNK A   1      -9.204  -2.458 124.210  0.00  0.00    +0.000 A 
ATOM     14  C   UNK A   1      -8.421  -3.613 124.198  0.00  0.00    +0.000 A 
ATOM     15  C   UNK A   1      -7.032  -3.546 124.396  0.00  0.00    +0.000 A 
ATOM     16  C   UNK A   1      -6.400  -2.321 124.610  0.00  0.00    +0.000 A 
ATOM     17  C   UNK A   1      -7.183  -1.180 124.602  0.00  0.00    +0.000 A 
ATOM     18  C   UNK A   1      -6.763   0.221 124.916  0.00  0.00    +0.000 C 
ENDBRANCH   5  10
BRANCH   1  19
ATOM     19  CB  LEU A   2      -7.320   0.528 130.963  0.00  0.00    +0.000 C 
BRANCH  19  21
ATOM     20  CD1 LEU A   2      -7.547   1.872 133.133  0.00  0.00    +0.000 C 
ATOM     21  CG  LEU A   2      -8.162   0.813 132.201  0.00  0.00    +0.000 C 
ATOM     22  CD2 LEU A   2      -9.591   1.240 131.922  0.00  0.00    +0.000 C 
ENDBRANCH  19  21
ENDBRANCH   1  19
BRANCH   8  23
ATOM     23  C   UNK A   0      -6.856   3.224 129.478  0.00  0.00    +0.000 C 
BRANCH  23  24
ATOM     24  C   UNK A   0      -7.781   4.221 130.242  0.00  0.00    +0.000 A 
ATOM     25  C   UNK A   0      -7.274   5.055 131.277  0.00  0.00    +0.000 A 
ATOM     26  C   UNK A   0      -8.137   5.785 132.113  0.00  0.00    +0.000 A 
ATOM     27  C   UNK A   0      -9.472   5.828 131.784  0.00  0.00    +0.000 A 
ATOM     28  C   UNK A   0      -9.958   5.122 130.716  0.00  0.00    +0.000 A 
ATOM     29  C   UNK A   0      -9.151   4.304 129.982  0.00  0.00    +0.000 A 
ATOM     30  C   UNK A   0     -11.405   5.314 130.542  0.00  0.00    +0.000 C 
ATOM     31  C   UNK A   0     -11.537   6.527 131.450  0.00  0.00    +0.000 C 
ATOM     32  O   UNK A   0     -10.453   6.535 132.421  0.00  0.00    +0.000 OA
ENDBRANCH  23  24
BRANCH  23  33
ATOM     33  C   UNK A   0      -5.746   4.018 128.567  0.00  0.00    +0.000 C 
ATOM     34  O   UNK A   0      -5.926   5.130 128.078  0.00  0.00    +0.000 OA
ATOM     35  N   UNK A   0      -4.504   3.491 128.303  0.00  0.00    +0.000 N 
ATOM     36  H   UNK A   0      -4.072   2.866 128.949  0.00  0.00    +0.000 HD
BRANCH  35  37
ATOM     37  C   UNK A   0      -3.576   3.981 127.302  0.00  0.00    +0.000 C 
ATOM     38  C   UNK A   0      -4.238   3.968 125.916  0.00  0.00    +0.000 C 
ATOM     39  C   UNK A   0      -3.151   5.343 127.828  0.00  0.00    +0.000 C 
ATOM     40  C   UNK A   0      -2.346   3.046 127.212  0.00  0.00    +0.000 C 
ENDBRANCH  35  37
ENDBRANCH  23  33
ENDBRANCH   8  23
TORSDOF 7
ENDMDL
MODEL 3
REMARK VINA RESULT:      -9.4      4.140      7.845
REMARK  Name = CHEMBL378939
REMARK  12 active torsions:
REMARK  status: ('A' for Active; 'I' for Inactive)
REMARK    1  A    between atoms: CD1_1  and  CG_2
REMARK    2  A    between atoms: CG_2  and  CD2_3
REMARK    3  A    between atoms: CG_2  and  CB_4
REMARK    4  A    between atoms: CB_4  and  CA_5
REMARK    5  A    between atoms: C_9  and  C_10
REMARK    6  A    between atoms: N_21  and  C_22
REMARK    7  A    between atoms: C_22  and  C_23
REMARK    8  A    between atoms: C_22  and  C_30
REMARK    9  A    between atoms: N_25  and  C_26
REMARK   10  A    between atoms: C_26  and  C_27
REMARK   11  A    between atoms: C_26  and  C_28
REMARK   12  A    between atoms: C_26  and  C_29
REMARK                            x       y       z     vdW  Elec       q    Type
REMARK                         _______ _______ _______ _____ _____    ______ ____
ROOT
ATOM      1  CA  LEU A   2      -4.425   1.973 128.681  0.00  0.00    +0.000 C 
ATOM      2  C   LEU A   2      -5.276   0.880 127.992  0.00  0.00    +0.000 C 
ATOM      3  O   LEU A   2      -5.295   0.591 126.819  0.00  0.00    +0.000 OA
ATOM      4  N   UNK A   1      -6.002   0.159 128.881  0.00  0.00    +0.000 N 
ATOM      5  C   UNK A   1      -5.928   0.385 130.305  0.00  0.00    +0.000 C 
ATOM      6  C   UNK A   1      -6.002   1.883 130.592  0.00  0.00    +0.000 C 
ATOM      7  O   UNK A   1      -6.569   2.231 131.613  0.00  0.00    +0.000 OA
ATOM      8  N   LEU A   2      -5.346   2.714 129.671  0.00  0.00    +0.000 N 
ATOM      9  H   UNK A   1      -6.527  -0.596 128.459  0.00  0.00    +0.000 HD
ENDROOT
BRANCH   5  10
ATOM     10  C   UNK A   1      -7.120  -0.238 131.064  0.00  0.00    +0.000 C 
ATOM     11  C   UNK A   1      -6.655  -0.935 132.344  0.00  0.00    +0.000 C 
ATOM     12  C   UNK A   1      -6.413  -2.323 131.837  0.00  0.00    +0.000 A 
ATOM     13  C   UNK A   1      -5.562  -3.272 132.369  0.00  0.00    +0.000 A 
ATOM     14  C   UNK A   1      -5.380  -4.460 131.660  0.00  0.00    +0.000 A 
ATOM     15  C   UNK A   1      -6.032  -4.678 130.435  0.00  0.00    +0.000 A 
ATOM     16  C   UNK A   1      -6.880  -3.711 129.895  0.00  0.00    +0.000 A 
ATOM     17  C   UNK A   1      -7.068  -2.543 130.615  0.00  0.00    +0.000 A 
ATOM     18  C   UNK A   1      -7.829  -1.324 130.200  0.00  0.00    +0.000 C 
ENDBRANCH   5  10
BRANCH   1  19
ATOM     19  CB  LEU A   2      -3.895   2.787 127.538  0.00  0.00    +0.000 C 
BRANCH  19  21
ATOM     20  CD1 LEU A   2      -1.557   3.015 126.514  0.00  0.00    +0.000 C 
ATOM     21  CG  LEU A   2      -2.529   3.458 127.621  0.00  0.00    +0.000 C 
ATOM     22  CD2 LEU A   2      -2.556   4.975 127.610  0.00  0.00    +0.000 C 
ENDBRANCH  19  21
ENDBRANCH   1  19
BRANCH   8  23
ATOM     23  C   UNK A   0      -5.640   4.239 129.668  0.00  0.00    +0.000 C 
BRANCH  23  24
ATOM     24  C   UNK A   0      -4.630   5.109 130.479  0.00  0.00    +0.000 A 
ATOM     25  C   UNK A   0      -4.752   6.525 130.535  0.00  0.00    +0.000 A 
ATOM     26  C   UNK A   0      -3.727   7.324 131.071  0.00  0.00    +0.000 A 
ATOM     27  C   UNK A   0      -2.689   6.695 131.718  0.00  0.00    +0.000 A 
ATOM     28  C   UNK A   0      -2.617   5.329 131.774  0.00  0.00    +0.000 A 
ATOM     29  C   UNK A   0      -3.536   4.545 131.140  0.00  0.00    +0.000 A 
ATOM     30  C   UNK A   0      -1.433   4.869 132.514  0.00  0.00    +0.000 C 
ATOM     31  C   UNK A   0      -1.097   6.203 133.163  0.00  0.00    +0.000 C 
ATOM     32  O   UNK A   0      -1.641   7.290 132.363  0.00  0.00    +0.000 OA
ENDBRANCH  23  24
BRANCH  23  33
ATOM     33  C   UNK A   0      -7.185   4.738 129.911  0.00  0.00    +0.000 C 
ATOM     34  O   UNK A   0      -7.971   5.002 129.006  0.00  0.00    +0.000 OA
ATOM     35  N   UNK A   0      -7.721   4.873 131.169  0.00  0.00    +0.000 N 
ATOM     36  H   UNK A   0      -7.394   4.307 131.922  0.00  0.00    +0.000 HD
BRANCH  35  37
ATOM     37  C   UNK A   0      -8.959   5.556 131.489  0.00  0.00    +0.000 C 
ATOM     38  C   UNK A   0      -9.003   6.925 130.792  0.00  0.00    +0.000 C 
ATOM     39  C   UNK A   0     -10.041   4.567 131.086  0.00  0.00    +0.000 C 
ATOM     40  C   UNK A   0      -9.040   5.833 133.010  0.00  0.00    +0.000 C 
ENDBRANCH  35  37
ENDBRANCH  23  33
ENDBRANCH   8  23
TORSDOF 7
ENDMDL
MODEL 4
REMARK VINA RESULT:      -9.1      4.961      8.154
REMARK  Name = CHEMBL378939
REMARK  12 active torsions:
REMARK  status: ('A' for Active; 'I' for Inactive)
REMARK    1  A    between atoms: CD1_1  and  CG_2
REMARK    2  A    between atoms: CG_2  and  CD2_3
REMARK    3  A    between atoms: CG_2  and  CB_4
REMARK    4  A    between atoms: CB_4  and  CA_5
REMARK    5  A    between atoms: C_9  and  C_10
REMARK    6  A    between atoms: N_21  and  C_22
REMARK    7  A    between atoms: C_22  and  C_23
REMARK    8  A    between atoms: C_22  and  C_30
REMARK    9  A    between atoms: N_25  and  C_26
REMARK   10  A    between atoms: C_26  and  C_27
REMARK   11  A    between atoms: C_26  and  C_28
REMARK   12  A    between atoms: C_26  and  C_29
REMARK                            x       y       z     vdW  Elec       q    Type
REMARK                         _______ _______ _______ _____ _____    ______ ____
ROOT
ATOM      1  CA  LEU A   2      -8.684   3.217 130.823  0.00  0.00    +0.000 C 
ATOM      2  C   LEU A   2      -8.820   3.947 129.466  0.00  0.00    +0.000 C 
ATOM      3  O   LEU A   2      -8.441   3.566 128.383  0.00  0.00    +0.000 OA
ATOM      4  N   UNK A   1      -9.518   5.103 129.572  0.00  0.00    +0.000 N 
ATOM      5  C   UNK A   1     -10.095   5.547 130.819  0.00  0.00    +0.000 C 
ATOM      6  C   UNK A   1      -9.070   5.396 131.942  0.00  0.00    +0.000 C 
ATOM      7  O   UNK A   1      -9.087   6.227 132.832  0.00  0.00    +0.000 OA
ATOM      8  N   LEU A   2      -8.242   4.265 131.864  0.00  0.00    +0.000 N 
ATOM      9  H   UNK A   1      -9.665   5.572 128.687  0.00  0.00    +0.000 HD
ENDROOT
BRANCH   5  10
ATOM     10  C   UNK A   1     -10.463   7.047 130.798  0.00  0.00    +0.000 C 
ATOM     11  C   UNK A   1     -11.978   7.243 130.754  0.00  0.00    +0.000 C 
ATOM     12  C   UNK A   1     -12.213   7.292 129.276  0.00  0.00    +0.000 A 
ATOM     13  C   UNK A   1     -13.379   6.984 128.603  0.00  0.00    +0.000 A 
ATOM     14  C   UNK A   1     -13.345   6.963 127.208  0.00  0.00    +0.000 A 
ATOM     15  C   UNK A   1     -12.156   7.233 126.510  0.00  0.00    +0.000 A 
ATOM     16  C   UNK A   1     -10.978   7.530 127.195  0.00  0.00    +0.000 A 
ATOM     17  C   UNK A   1     -11.027   7.566 128.578  0.00  0.00    +0.000 A 
ATOM     18  C   UNK A   1      -9.887   7.747 129.531  0.00  0.00    +0.000 C 
ENDBRANCH   5  10
BRANCH   1  19
ATOM     19  CB  LEU A   2      -7.706   2.115 130.541  0.00  0.00    +0.000 C 
BRANCH  19  21
ATOM     20  CD1 LEU A   2      -6.986  -0.343 130.485  0.00  0.00    +0.000 C 
ATOM     21  CG  LEU A   2      -8.154   0.658 130.516  0.00  0.00    +0.000 C 
ATOM     22  CD2 LEU A   2      -9.065   0.246 131.657  0.00  0.00    +0.000 C 
ENDBRANCH  19  21
ENDBRANCH   1  19
BRANCH   8  23
ATOM     23  C   UNK A   0      -6.961   4.190 132.738  0.00  0.00    +0.000 C 
BRANCH  23  24
ATOM     24  C   UNK A   0      -5.715   4.921 132.149  0.00  0.00    +0.000 A 
ATOM     25  C   UNK A   0      -4.999   5.891 132.907  0.00  0.00    +0.000 A 
ATOM     26  C   UNK A   0      -4.023   6.707 132.310  0.00  0.00    +0.000 A 
ATOM     27  C   UNK A   0      -3.637   6.415 131.022  0.00  0.00    +0.000 A 
ATOM     28  C   UNK A   0      -4.237   5.406 130.317  0.00  0.00    +0.000 A 
ATOM     29  C   UNK A   0      -5.278   4.698 130.842  0.00  0.00    +0.000 A 
ATOM     30  C   UNK A   0      -3.670   5.264 128.968  0.00  0.00    +0.000 C 
ATOM     31  C   UNK A   0      -2.423   6.102 129.207  0.00  0.00    +0.000 C 
ATOM     32  O   UNK A   0      -2.662   7.038 130.295  0.00  0.00    +0.000 OA
ENDBRANCH  23  24
BRANCH  23  33
ATOM     33  C   UNK A   0      -6.549   2.745 133.398  0.00  0.00    +0.000 C 
ATOM     34  O   UNK A   0      -7.330   2.021 134.008  0.00  0.00    +0.000 OA
ATOM     35  N   UNK A   0      -5.281   2.226 133.288  0.00  0.00    +0.000 N 
ATOM     36  H   UNK A   0      -4.709   2.450 132.503  0.00  0.00    +0.000 HD
BRANCH  35  37
ATOM     37  C   UNK A   0      -4.757   1.112 134.056  0.00  0.00    +0.000 C 
ATOM     38  C   UNK A   0      -5.667  -0.115 133.893  0.00  0.00    +0.000 C 
ATOM     39  C   UNK A   0      -3.330   0.958 133.555  0.00  0.00    +0.000 C 
ATOM     40  C   UNK A   0      -4.751   1.459 135.565  0.00  0.00    +0.000 C 
ENDBRANCH  35  37
ENDBRANCH  23  33
ENDBRANCH   8  23
TORSDOF 7
ENDMDL
MODEL 5
REMARK VINA RESULT:      -9.1      3.385      6.485
REMARK  Name = CHEMBL378939
REMARK  12 active torsions:
REMARK  status: ('A' for Active; 'I' for Inactive)
REMARK    1  A    between atoms: CD1_1  and  CG_2
REMARK    2  A    between atoms: CG_2  and  CD2_3
REMARK    3  A    between atoms: CG_2  and  CB_4
REMARK    4  A    between atoms: CB_4  and  CA_5
REMARK    5  A    between atoms: C_9  and  C_10
REMARK    6  A    between atoms: N_21  and  C_22
REMARK    7  A    between atoms: C_22  and  C_23
REMARK    8  A    between atoms: C_22  and  C_30
REMARK    9  A    between atoms: N_25  and  C_26
REMARK   10  A    between atoms: C_26  and  C_27
REMARK   11  A    between atoms: C_26  and  C_28
REMARK   12  A    between atoms: C_26  and  C_29
REMARK                            x       y       z     vdW  Elec       q    Type
REMARK                         _______ _______ _______ _____ _____    ______ ____
ROOT
ATOM      1  CA  LEU A   2      -7.964   2.866 128.745  0.00  0.00    +0.000 C 
ATOM      2  C   LEU A   2      -8.244   4.234 128.078  0.00  0.00    +0.000 C 
ATOM      3  O   LEU A   2      -8.027   4.554 126.934  0.00  0.00    +0.000 OA
ATOM      4  N   UNK A   1      -8.872   5.094 128.916  0.00  0.00    +0.000 N 
ATOM      5  C   UNK A   1      -9.261   4.724 130.256  0.00  0.00    +0.000 C 
ATOM      6  C   UNK A   1      -8.105   4.000 130.945  0.00  0.00    +0.000 C 
ATOM      7  O   UNK A   1      -7.970   4.174 132.143  0.00  0.00    +0.000 OA
ATOM      8  N   LEU A   2      -7.345   3.150 130.129  0.00  0.00    +0.000 N 
ATOM      9  H   UNK A   1      -9.113   5.977 128.485  0.00  0.00    +0.000 HD
ENDROOT
BRANCH   5  10
ATOM     10  C   UNK A   1      -9.563   5.952 131.143  0.00  0.00    +0.000 C 
ATOM     11  C   UNK A   1     -11.057   6.054 131.453  0.00  0.00    +0.000 C 
ATOM     12  C   UNK A   1     -11.522   6.914 130.319  0.00  0.00    +0.000 A 
ATOM     13  C   UNK A   1     -12.792   6.975 129.780  0.00  0.00    +0.000 A 
ATOM     14  C   UNK A   1     -12.982   7.744 128.632  0.00  0.00    +0.000 A 
ATOM     15  C   UNK A   1     -11.909   8.426 128.034  0.00  0.00    +0.000 A 
ATOM     16  C   UNK A   1     -10.625   8.351 128.575  0.00  0.00    +0.000 A 
ATOM     17  C   UNK A   1     -10.451   7.599 129.724  0.00  0.00    +0.000 A 
ATOM     18  C   UNK A   1      -9.168   7.275 130.421  0.00  0.00    +0.000 C 
ENDBRANCH   5  10
BRANCH   1  19
ATOM     19  CB  LEU A   2      -7.079   2.162 127.759  0.00  0.00    +0.000 C 
BRANCH  19  21
ATOM     20  CD1 LEU A   2      -9.031   1.033 126.540  0.00  0.00    +0.000 C 
ATOM     21  CG  LEU A   2      -7.569   0.928 127.009  0.00  0.00    +0.000 C 
ATOM     22  CD2 LEU A   2      -6.739   0.539 125.801  0.00  0.00    +0.000 C 
ENDBRANCH  19  21
ENDBRANCH   1  19
BRANCH   8  23
ATOM     23  C   UNK A   0      -5.964   2.641 130.626  0.00  0.00    +0.000 C 
BRANCH  23  24
ATOM     24  C   UNK A   0      -4.769   3.608 130.365  0.00  0.00    +0.000 A 
ATOM     25  C   UNK A   0      -3.684   3.707 131.280  0.00  0.00    +0.000 A 
ATOM     26  C   UNK A   0      -2.725   4.728 131.165  0.00  0.00    +0.000 A 
ATOM     27  C   UNK A   0      -2.748   5.513 130.036  0.00  0.00    +0.000 A 
ATOM     28  C   UNK A   0      -3.721   5.352 129.086  0.00  0.00    +0.000 A 
ATOM     29  C   UNK A   0      -4.734   4.455 129.255  0.00  0.00    +0.000 A 
ATOM     30  C   UNK A   0      -3.555   6.288 127.964  0.00  0.00    +0.000 C 
ATOM     31  C   UNK A   0      -2.129   6.707 128.288  0.00  0.00    +0.000 C 
ATOM     32  O   UNK A   0      -1.867   6.503 129.705  0.00  0.00    +0.000 OA
ENDBRANCH  23  24
BRANCH  23  33
ATOM     33  C   UNK A   0      -5.549   1.083 130.318  0.00  0.00    +0.000 C 
ATOM     34  O   UNK A   0      -4.447   0.734 129.905  0.00  0.00    +0.000 OA
ATOM     35  N   UNK A   0      -6.419   0.039 130.529  0.00  0.00    +0.000 N 
ATOM     36  H   UNK A   0      -7.122   0.101 131.233  0.00  0.00    +0.000 HD
BRANCH  35  37
ATOM     37  C   UNK A   0      -6.245  -1.314 130.038  0.00  0.00    +0.000 C 
ATOM     38  C   UNK A   0      -5.362  -1.311 128.781  0.00  0.00    +0.000 C 
ATOM     39  C   UNK A   0      -5.700  -2.075 131.236  0.00  0.00    +0.000 C 
ATOM     40  C   UNK A   0      -7.611  -1.908 129.615  0.00  0.00    +0.000 C 
ENDBRANCH  35  37
ENDBRANCH  23  33
ENDBRANCH   8  23
TORSDOF 7
ENDMDL
MODEL 6
REMARK VINA RESULT:      -9.0      2.443      8.067
REMARK  Name = CHEMBL378939
REMARK  12 active torsions:
REMARK  status: ('A' for Active; 'I' for Inactive)
REMARK    1  A    between atoms: CD1_1  and  CG_2
REMARK    2  A    between atoms: CG_2  and  CD2_3
REMARK    3  A    between atoms: CG_2  and  CB_4
REMARK    4  A    between atoms: CB_4  and  CA_5
REMARK    5  A    between atoms: C_9  and  C_10
REMARK    6  A    between atoms: N_21  and  C_22
REMARK    7  A    between atoms: C_22  and  C_23
REMARK    8  A    between atoms: C_22  and  C_30
REMARK    9  A    between atoms: N_25  and  C_26
REMARK   10  A    between atoms: C_26  and  C_27
REMARK   11  A    between atoms: C_26  and  C_28
REMARK   12  A    between atoms: C_26  and  C_29
REMARK                            x       y       z     vdW  Elec       q    Type
REMARK                         _______ _______ _______ _____ _____    ______ ____
ROOT
ATOM      1  CA  LEU A   2      -5.320   2.897 126.556  0.00  0.00    +0.000 C 
ATOM      2  C   LEU A   2      -6.137   2.762 125.249  0.00  0.00    +0.000 C 
ATOM      3  O   LEU A   2      -5.949   3.331 124.200  0.00  0.00    +0.000 OA
ATOM      4  N   UNK A   1      -7.112   1.827 125.348  0.00  0.00    +0.000 N 
ATOM      5  C   UNK A   1      -7.307   1.034 126.539  0.00  0.00    +0.000 C 
ATOM      6  C   UNK A   1      -7.256   1.936 127.771  0.00  0.00    +0.000 C 
ATOM      7  O   UNK A   1      -7.976   1.643 128.709  0.00  0.00    +0.000 OA
ATOM      8  N   LEU A   2      -6.329   2.988 127.719  0.00  0.00    +0.000 N 
ATOM      9  H   UNK A   1      -7.627   1.684 124.488  0.00  0.00    +0.000 HD
ENDROOT
BRANCH   5  10
ATOM     10  C   UNK A   1      -8.697   0.361 126.580  0.00  0.00    +0.000 C 
ATOM     11  C   UNK A   1      -8.575  -1.140 126.844  0.00  0.00    +0.000 C 
ATOM     12  C   UNK A   1      -8.498  -1.667 125.444  0.00  0.00    +0.000 A 
ATOM     13  C   UNK A   1      -7.923  -2.851 125.026  0.00  0.00    +0.000 A 
ATOM     14  C   UNK A   1      -7.837  -3.089 123.654  0.00  0.00    +0.000 A 
ATOM     15  C   UNK A   1      -8.309  -2.146 122.725  0.00  0.00    +0.000 A 
ATOM     16  C   UNK A   1      -8.876  -0.946 123.153  0.00  0.00    +0.000 A 
ATOM     17  C   UNK A   1      -8.973  -0.727 124.516  0.00  0.00    +0.000 A 
ATOM     18  C   UNK A   1      -9.433   0.513 125.215  0.00  0.00    +0.000 C 
ENDBRANCH   5  10
BRANCH   1  19
ATOM     19  CB  LEU A   2      -4.471   4.112 126.324  0.00  0.00    +0.000 C 
BRANCH  19  21
ATOM     20  CD1 LEU A   2      -2.779   5.422 127.733  0.00  0.00    +0.000 C 
ATOM     21  CG  LEU A   2      -3.045   4.184 126.858  0.00  0.00    +0.000 C 
ATOM     22  CD2 LEU A   2      -2.593   2.972 127.650  0.00  0.00    +0.000 C 
ENDBRANCH  19  21
ENDBRANCH   1  19
BRANCH   8  23
ATOM     23  C   UNK A   0      -6.429   4.150 128.744  0.00  0.00    +0.000 C 
BRANCH  23  24
ATOM     24  C   UNK A   0      -5.458   4.044 129.961  0.00  0.00    +0.000 A 
ATOM     25  C   UNK A   0      -4.861   5.202 130.533  0.00  0.00    +0.000 A 
ATOM     26  C   UNK A   0      -3.823   5.095 131.475  0.00  0.00    +0.000 A 
ATOM     27  C   UNK A   0      -3.529   3.848 131.976  0.00  0.00    +0.000 A 
ATOM     28  C   UNK A   0      -4.179   2.733 131.517  0.00  0.00    +0.000 A 
ATOM     29  C   UNK A   0      -5.092   2.812 130.507  0.00  0.00    +0.000 A 
ATOM     30  C   UNK A   0      -3.716   1.510 132.189  0.00  0.00    +0.000 C 
ATOM     31  C   UNK A   0      -2.994   2.198 133.338  0.00  0.00    +0.000 C 
ATOM     32  O   UNK A   0      -2.612   3.545 132.942  0.00  0.00    +0.000 OA
ENDBRANCH  23  24
BRANCH  23  33
ATOM     33  C   UNK A   0      -7.920   4.654 129.212  0.00  0.00    +0.000 C 
ATOM     34  O   UNK A   0      -8.722   5.208 128.467  0.00  0.00    +0.000 OA
ATOM     35  N   UNK A   0      -8.388   4.463 130.490  0.00  0.00    +0.000 N 
ATOM     36  H   UNK A   0      -8.072   3.691 131.035  0.00  0.00    +0.000 HD
BRANCH  35  37
ATOM     37  C   UNK A   0      -9.556   5.104 131.063  0.00  0.00    +0.000 C 
ATOM     38  C   UNK A   0      -9.533   6.610 130.763  0.00  0.00    +0.000 C 
ATOM     39  C   UNK A   0     -10.725   4.324 130.484  0.00  0.00    +0.000 C 
ATOM     40  C   UNK A   0      -9.541   4.961 132.605  0.00  0.00    +0.000 C 
ENDBRANCH  35  37
ENDBRANCH  23  33
ENDBRANCH   8  23
TORSDOF 7
ENDMDL
MODEL 7
REMARK VINA RESULT:      -9.0      2.642      4.448
REMARK  Name = CHEMBL378939
REMARK  12 active torsions:
REMARK  status: ('A' for Active; 'I' for Inactive)
REMARK    1  A    between atoms: CD1_1  and  CG_2
REMARK    2  A    between atoms: CG_2  and  CD2_3
REMARK    3  A    between atoms: CG_2  and  CB_4
REMARK    4  A    between atoms: CB_4  and  CA_5
REMARK    5  A    between atoms: C_9  and  C_10
REMARK    6  A    between atoms: N_21  and  C_22
REMARK    7  A    between atoms: C_22  and  C_23
REMARK    8  A    between atoms: C_22  and  C_30
REMARK    9  A    between atoms: N_25  and  C_26
REMARK   10  A    between atoms: C_26  and  C_27
REMARK   11  A    between atoms: C_26  and  C_28
REMARK   12  A    between atoms: C_26  and  C_29
REMARK                            x       y       z     vdW  Elec       q    Type
REMARK                         _______ _______ _______ _____ _____    ______ ____
ROOT
ATOM      1  CA  LEU A   2      -6.143   1.854 128.238  0.00  0.00    +0.000 C 
ATOM      2  C   LEU A   2      -5.832   2.502 129.607  0.00  0.00    +0.000 C 
ATOM      3  O   LEU A   2      -4.959   3.296 129.865  0.00  0.00    +0.000 OA
ATOM      4  N   UNK A   1      -6.728   2.146 130.559  0.00  0.00    +0.000 N 
ATOM      5  C   UNK A   1      -7.859   1.294 130.278  0.00  0.00    +0.000 C 
ATOM      6  C   UNK A   1      -7.404   0.095 129.447  0.00  0.00    +0.000 C 
ATOM      7  O   UNK A   1      -7.969  -0.967 129.641  0.00  0.00    +0.000 OA
ATOM      8  N   LEU A   2      -6.412   0.357 128.491  0.00  0.00    +0.000 N 
ATOM      9  H   UNK A   1      -6.575   2.599 131.451  0.00  0.00    +0.000 HD
ENDROOT
BRANCH   5  10
ATOM     10  C   UNK A   1      -8.480   0.694 131.559  0.00  0.00    +0.000 C 
ATOM     11  C   UNK A   1      -9.643   1.550 132.060  0.00  0.00    +0.000 C 
ATOM     12  C   UNK A   1      -8.929   2.480 132.991  0.00  0.00    +0.000 A 
ATOM     13  C   UNK A   1      -9.324   3.746 133.377  0.00  0.00    +0.000 A 
ATOM     14  C   UNK A   1      -8.441   4.503 134.147  0.00  0.00    +0.000 A 
ATOM     15  C   UNK A   1      -7.180   3.997 134.507  0.00  0.00    +0.000 A 
ATOM     16  C   UNK A   1      -6.780   2.723 134.104  0.00  0.00    +0.000 A 
ATOM     17  C   UNK A   1      -7.671   1.973 133.355  0.00  0.00    +0.000 A 
ATOM     18  C   UNK A   1      -7.436   0.642 132.715  0.00  0.00    +0.000 C 
ENDBRANCH   5  10
BRANCH   1  19
ATOM     19  CB  LEU A   2      -4.937   2.176 127.407  0.00  0.00    +0.000 C 
BRANCH  19  21
ATOM     20  CD1 LEU A   2      -6.502   2.339 125.385  0.00  0.00    +0.000 C 
ATOM     21  CG  LEU A   2      -5.073   2.512 125.926  0.00  0.00    +0.000 C 
ATOM     22  CD2 LEU A   2      -4.614   3.905 125.538  0.00  0.00    +0.000 C 
ENDBRANCH  19  21
ENDBRANCH   1  19
BRANCH   8  23
ATOM     23  C   UNK A   0      -5.640  -0.825 127.842  0.00  0.00    +0.000 C 
BRANCH  23  24
ATOM     24  C   UNK A   0      -6.248  -1.358 126.507  0.00  0.00    +0.000 A 
ATOM     25  C   UNK A   0      -5.556  -1.218 125.272  0.00  0.00    +0.000 A 
ATOM     26  C   UNK A   0      -6.190  -1.491 124.047  0.00  0.00    +0.000 A 
ATOM     27  C   UNK A   0      -7.431  -2.082 124.079  0.00  0.00    +0.000 A 
ATOM     28  C   UNK A   0      -8.063  -2.331 125.269  0.00  0.00    +0.000 A 
ATOM     29  C   UNK A   0      -7.514  -1.946 126.456  0.00  0.00    +0.000 A 
ATOM     30  C   UNK A   0      -9.373  -2.970 125.073  0.00  0.00    +0.000 C 
ATOM     31  C   UNK A   0      -9.167  -3.364 123.619  0.00  0.00    +0.000 C 
ATOM     32  O   UNK A   0      -8.176  -2.489 123.008  0.00  0.00    +0.000 OA
ENDBRANCH  23  24
BRANCH  23  33
ATOM     33  C   UNK A   0      -5.144  -2.058 128.806  0.00  0.00    +0.000 C 
ATOM     34  O   UNK A   0      -4.494  -3.021 128.409  0.00  0.00    +0.000 OA
ATOM     35  N   UNK A   0      -5.408  -2.083 130.154  0.00  0.00    +0.000 N 
ATOM     36  H   UNK A   0      -5.511  -1.234 130.665  0.00  0.00    +0.000 HD
BRANCH  35  37
ATOM     37  C   UNK A   0      -5.255  -3.236 131.021  0.00  0.00    +0.000 C 
ATOM     38  C   UNK A   0      -3.769  -3.599 131.161  0.00  0.00    +0.000 C 
ATOM     39  C   UNK A   0      -5.968  -2.832 132.301  0.00  0.00    +0.000 C 
ATOM     40  C   UNK A   0      -5.953  -4.469 130.397  0.00  0.00    +0.000 C 
ENDBRANCH  35  37
ENDBRANCH  23  33
ENDBRANCH   8  23
TORSDOF 7
ENDMDL
MODEL 8
REMARK VINA RESULT:      -9.0      2.598      8.064
REMARK  Name = CHEMBL378939
REMARK  12 active torsions:
REMARK  status: ('A' for Active; 'I' for Inactive)
REMARK    1  A    between atoms: CD1_1  and  CG_2
REMARK    2  A    between atoms: CG_2  and  CD2_3
REMARK    3  A    between atoms: CG_2  and  CB_4
REMARK    4  A    between atoms: CB_4  and  CA_5
REMARK    5  A    between atoms: C_9  and  C_10
REMARK    6  A    between atoms: N_21  and  C_22
REMARK    7  A    between atoms: C_22  and  C_23
REMARK    8  A    between atoms: C_22  and  C_30
REMARK    9  A    between atoms: N_25  and  C_26
REMARK   10  A    between atoms: C_26  and  C_27
REMARK   11  A    between atoms: C_26  and  C_28
REMARK   12  A    between atoms: C_26  and  C_29
REMARK                            x       y       z     vdW  Elec       q    Type
REMARK                         _______ _______ _______ _____ _____    ______ ____
ROOT
ATOM      1  CA  LEU A   2      -5.196   2.866 126.696  0.00  0.00    +0.000 C 
ATOM      2  C   LEU A   2      -6.008   2.575 125.411  0.00  0.00    +0.000 C 
ATOM      3  O   LEU A   2      -5.856   3.063 124.317  0.00  0.00    +0.000 OA
ATOM      4  N   UNK A   1      -6.927   1.597 125.596  0.00  0.00    +0.000 N 
ATOM      5  C   UNK A   1      -7.072   0.898 126.851  0.00  0.00    +0.000 C 
ATOM      6  C   UNK A   1      -7.070   1.902 128.002  0.00  0.00    +0.000 C 
ATOM      7  O   UNK A   1      -7.768   1.649 128.968  0.00  0.00    +0.000 OA
ATOM      8  N   LEU A   2      -6.205   2.997 127.855  0.00  0.00    +0.000 N 
ATOM      9  H   UNK A   1      -7.435   1.353 124.756  0.00  0.00    +0.000 HD
ENDROOT
BRANCH   5  10
ATOM     10  C   UNK A   1      -8.421   0.152 126.959  0.00  0.00    +0.000 C 
ATOM     11  C   UNK A   1      -8.206  -1.344 127.188  0.00  0.00    +0.000 C 
ATOM     12  C   UNK A   1      -8.185  -1.845 125.777  0.00  0.00    +0.000 A 
ATOM     13  C   UNK A   1      -7.575  -2.990 125.304  0.00  0.00    +0.000 A 
ATOM     14  C   UNK A   1      -7.557  -3.202 123.925  0.00  0.00    +0.000 A 
ATOM     15  C   UNK A   1      -8.130  -2.271 123.043  0.00  0.00    +0.000 A 
ATOM     16  C   UNK A   1      -8.733  -1.109 123.525  0.00  0.00    +0.000 A 
ATOM     17  C   UNK A   1      -8.761  -0.917 124.896  0.00  0.00    +0.000 A 
ATOM     18  C   UNK A   1      -9.242   0.287 125.642  0.00  0.00    +0.000 C 
ENDBRANCH   5  10
BRANCH   1  19
ATOM     19  CB  LEU A   2      -4.420   4.103 126.355  0.00  0.00    +0.000 C 
BRANCH  19  21
ATOM     20  CD1 LEU A   2      -2.676   5.297 127.805  0.00  0.00    +0.000 C 
ATOM     21  CG  LEU A   2      -2.947   4.231 126.729  0.00  0.00    +0.000 C 
ATOM     22  CD2 LEU A   2      -2.289   2.947 127.196  0.00  0.00    +0.000 C 
ENDBRANCH  19  21
ENDBRANCH   1  19
BRANCH   8  23
ATOM     23  C   UNK A   0      -6.368   4.234 128.779  0.00  0.00    +0.000 C 
BRANCH  23  24
ATOM     24  C   UNK A   0      -5.313   4.349 129.922  0.00  0.00    +0.000 A 
ATOM     25  C   UNK A   0      -4.581   3.214 130.370  0.00  0.00    +0.000 A 
ATOM     26  C   UNK A   0      -3.800   3.265 131.538  0.00  0.00    +0.000 A 
ATOM     27  C   UNK A   0      -3.604   4.490 132.131  0.00  0.00    +0.000 A 
ATOM     28  C   UNK A   0      -4.211   5.616 131.641  0.00  0.00    +0.000 A 
ATOM     29  C   UNK A   0      -5.077   5.553 130.590  0.00  0.00    +0.000 A 
ATOM     30  C   UNK A   0      -3.862   6.813 132.421  0.00  0.00    +0.000 C 
ATOM     31  C   UNK A   0      -2.680   6.207 133.163  0.00  0.00    +0.000 C 
ATOM     32  O   UNK A   0      -2.827   4.760 133.222  0.00  0.00    +0.000 OA
ENDBRANCH  23  24
BRANCH  23  33
ATOM     33  C   UNK A   0      -7.873   4.616 129.315  0.00  0.00    +0.000 C 
ATOM     34  O   UNK A   0      -8.726   5.168 128.627  0.00  0.00    +0.000 OA
ATOM     35  N   UNK A   0      -8.293   4.316 130.588  0.00  0.00    +0.000 N 
ATOM     36  H   UNK A   0      -7.918   3.530 131.073  0.00  0.00    +0.000 HD
BRANCH  35  37
ATOM     37  C   UNK A   0      -9.481   4.847 131.230  0.00  0.00    +0.000 C 
ATOM     38  C   UNK A   0     -10.740   4.359 130.498  0.00  0.00    +0.000 C 
ATOM     39  C   UNK A   0      -9.340   4.415 132.680  0.00  0.00    +0.000 C 
ATOM     40  C   UNK A   0      -9.490   6.393 131.140  0.00  0.00    +0.000 C 
ENDBRANCH  35  37
ENDBRANCH  23  33
ENDBRANCH   8  23
TORSDOF 7
ENDMDL
MODEL 9
REMARK VINA RESULT:      -9.0      3.793      8.308
REMARK  Name = CHEMBL378939
REMARK  12 active torsions:
REMARK  status: ('A' for Active; 'I' for Inactive)
REMARK    1  A    between atoms: CD1_1  and  CG_2
REMARK    2  A    between atoms: CG_2  and  CD2_3
REMARK    3  A    between atoms: CG_2  and  CB_4
REMARK    4  A    between atoms: CB_4  and  CA_5
REMARK    5  A    between atoms: C_9  and  C_10
REMARK    6  A    between atoms: N_21  and  C_22
REMARK    7  A    between atoms: C_22  and  C_23
REMARK    8  A    between atoms: C_22  and  C_30
REMARK    9  A    between atoms: N_25  and  C_26
REMARK   10  A    between atoms: C_26  and  C_27
REMARK   11  A    between atoms: C_26  and  C_28
REMARK   12  A    between atoms: C_26  and  C_29
REMARK                            x       y       z     vdW  Elec       q    Type
REMARK                         _______ _______ _______ _____ _____    ______ ____
ROOT
ATOM      1  CA  LEU A   2      -7.408   2.697 129.082  0.00  0.00    +0.000 C 
ATOM      2  C   LEU A   2      -8.123   3.890 128.404  0.00  0.00    +0.000 C 
ATOM      3  O   LEU A   2      -8.410   4.010 127.236  0.00  0.00    +0.000 OA
ATOM      4  N   UNK A   1      -8.505   4.835 129.297  0.00  0.00    +0.000 N 
ATOM      5  C   UNK A   1      -8.292   4.688 130.717  0.00  0.00    +0.000 C 
ATOM      6  C   UNK A   1      -6.866   4.203 130.976  0.00  0.00    +0.000 C 
ATOM      7  O   UNK A   1      -6.312   4.606 131.982  0.00  0.00    +0.000 OA
ATOM      8  N   LEU A   2      -6.358   3.283 130.047  0.00  0.00    +0.000 N 
ATOM      9  H   UNK A   1      -9.021   5.600 128.883  0.00  0.00    +0.000 HD
ENDROOT
BRANCH   5  10
ATOM     10  C   UNK A   1      -8.413   6.030 131.474  0.00  0.00    +0.000 C 
ATOM     11  C   UNK A   1      -9.670   6.061 132.343  0.00  0.00    +0.000 C 
ATOM     12  C   UNK A   1     -10.659   6.654 131.386  0.00  0.00    +0.000 A 
ATOM     13  C   UNK A   1     -12.031   6.507 131.403  0.00  0.00    +0.000 A 
ATOM     14  C   UNK A   1     -12.761   7.031 130.336  0.00  0.00    +0.000 A 
ATOM     15  C   UNK A   1     -12.115   7.679 129.268  0.00  0.00    +0.000 A 
ATOM     16  C   UNK A   1     -10.727   7.813 129.250  0.00  0.00    +0.000 A 
ATOM     17  C   UNK A   1     -10.014   7.304 130.322  0.00  0.00    +0.000 A 
ATOM     18  C   UNK A   1      -8.529   7.224 130.480  0.00  0.00    +0.000 C 
ENDBRANCH   5  10
BRANCH   1  19
ATOM     19  CB  LEU A   2      -6.873   1.899 127.930  0.00  0.00    +0.000 C 
BRANCH  19  21
ATOM     20  CD1 LEU A   2      -7.483  -0.243 129.197  0.00  0.00    +0.000 C 
ATOM     21  CG  LEU A   2      -7.095   0.393 127.851  0.00  0.00    +0.000 C 
ATOM     22  CD2 LEU A   2      -8.128  -0.052 126.832  0.00  0.00    +0.000 C 
ENDBRANCH  19  21
ENDBRANCH   1  19
BRANCH   8  23
ATOM     23  C   UNK A   0      -4.832   2.991 130.012  0.00  0.00    +0.000 C 
BRANCH  23  24
ATOM     24  C   UNK A   0      -4.294   2.146 131.208  0.00  0.00    +0.000 A 
ATOM     25  C   UNK A   0      -3.551   2.747 132.263  0.00  0.00    +0.000 A 
ATOM     26  C   UNK A   0      -2.878   1.965 133.217  0.00  0.00    +0.000 A 
ATOM     27  C   UNK A   0      -3.112   0.610 133.224  0.00  0.00    +0.000 A 
ATOM     28  C   UNK A   0      -3.920   0.030 132.283  0.00  0.00    +0.000 A 
ATOM     29  C   UNK A   0      -4.469   0.762 131.272  0.00  0.00    +0.000 A 
ATOM     30  C   UNK A   0      -4.037  -1.423 132.477  0.00  0.00    +0.000 C 
ATOM     31  C   UNK A   0      -3.472  -1.462 133.889  0.00  0.00    +0.000 C 
ATOM     32  O   UNK A   0      -2.615  -0.306 134.108  0.00  0.00    +0.000 OA
ENDBRANCH  23  24
BRANCH  23  33
ATOM     33  C   UNK A   0      -3.810   4.220 129.641  0.00  0.00    +0.000 C 
ATOM     34  O   UNK A   0      -2.779   4.083 128.988  0.00  0.00    +0.000 OA
ATOM     35  N   UNK A   0      -4.056   5.517 130.024  0.00  0.00    +0.000 N 
ATOM     36  H   UNK A   0      -4.991   5.839 130.145  0.00  0.00    +0.000 HD
BRANCH  35  37
ATOM     37  C   UNK A   0      -3.097   6.604 129.983  0.00  0.00    +0.000 C 
ATOM     38  C   UNK A   0      -2.516   6.744 128.568  0.00  0.00    +0.000 C 
ATOM     39  C   UNK A   0      -3.872   7.800 130.510  0.00  0.00    +0.000 C 
ATOM     40  C   UNK A   0      -1.903   6.297 130.921  0.00  0.00    +0.000 C 
ENDBRANCH  35  37
ENDBRANCH  23  33
ENDBRANCH   8  23
TORSDOF 7
ENDMDL
