MODEL 1
REMARK VINA RESULT:      -8.2      0.000      0.000
REMARK  Name = CHEMBL1093776
REMARK  8 active torsions:
REMARK  status: ('A' for Active; 'I' for Inactive)
REMARK    1  A    between atoms: C_1  and  C_2
REMARK    2  A    between atoms: C_2  and  N_3
REMARK    3  A    between atoms: N_3  and  C_18
REMARK    4  A    between atoms: C_4  and  C_6
REMARK    5  A    between atoms: C_8  and  C_9
REMARK    6  A    between atoms: C_12  and  C_13
REMARK    7  A    between atoms: C_21  and  O_22
REMARK    8  A    between atoms: O_22  and  C_23
REMARK                            x       y       z     vdW  Elec       q    Type
REMARK                         _______ _______ _______ _____ _____    ______ ____
ROOT
ATOM      1  N   UNL     1     -10.182   5.781 131.059  0.00  0.00    +0.000 N 
ATOM      2  C   UNL     1     -10.523   4.421 130.720  0.00  0.00    +0.000 C 
ATOM      3  O   UNL     1     -11.408   4.184 129.908  0.00  0.00    +0.000 OA
ENDROOT
BRANCH   2   4
ATOM      4  C   UNL     1      -9.762   3.285 131.247  0.00  0.00    +0.000 A 
ATOM      5  C   UNL     1      -8.890   2.378 130.673  0.00  0.00    +0.000 A 
ATOM      6  C   UNL     1      -8.752   1.300 131.603  0.00  0.00    +0.000 A 
ATOM      7  N   UNL     1      -9.261   1.664 132.788  0.00  0.00    +0.000 NA
ATOM      8  N   UNL     1      -9.724   2.924 132.576  0.00  0.00    +0.000 N 
ATOM      9  H   UNL     1     -10.095   3.441 133.367  0.00  0.00    +0.000 HD
BRANCH   6  10
ATOM     10  C   UNL     1      -8.172  -0.013 131.289  0.00  0.00    +0.000 A 
ATOM     11  C   UNL     1      -7.938  -0.315 129.941  0.00  0.00    +0.000 A 
ATOM     12  C   UNL     1      -7.442  -1.557 129.545  0.00  0.00    +0.000 A 
ATOM     13  C   UNL     1      -7.173  -2.545 130.493  0.00  0.00    +0.000 A 
ATOM     14  C   UNL     1      -6.620  -3.870 130.056  0.00  0.00    +0.000 C 
ATOM     15  C   UNL     1      -7.428  -2.271 131.846  0.00  0.00    +0.000 A 
ATOM     16  C   UNL     1      -7.926  -1.013 132.244  0.00  0.00    +0.000 A 
ENDBRANCH   6  10
ENDBRANCH   2   4
BRANCH   1  17
ATOM     17  C   UNL     1     -11.046   6.859 130.581  0.00  0.00    +0.000 A 
ATOM     18  C   UNL     1     -12.235   7.201 131.237  0.00  0.00    +0.000 A 
ATOM     19  C   UNL     1     -13.044   8.247 130.774  0.00  0.00    +0.000 A 
ATOM     20  C   UNL     1     -12.679   8.930 129.627  0.00  0.00    +0.000 A 
ATOM     21  N   UNL     1     -11.569   8.599 128.936  0.00  0.00    +0.000 NA
ATOM     22  C   UNL     1     -10.779   7.597 129.428  0.00  0.00    +0.000 A 
BRANCH  20  23
ATOM     23  O   UNL     1     -13.377   9.981 129.094  0.00  0.00    +0.000 OA
ATOM     24  C   UNL     1     -13.540  11.126 129.924  0.00  0.00    +0.000 C 
ENDBRANCH  20  23
ENDBRANCH   1  17
BRANCH   1  26
ATOM     25  C   UNL     1      -7.732   6.518 131.117  0.00  0.00    +0.000 C 
ATOM     26  C   UNL     1      -9.015   6.279 131.854  0.00  0.00    +0.000 C 
ENDBRANCH   1  26
TORSDOF 5
ENDMDL
MODEL 2
REMARK VINA RESULT:      -7.8      7.115      8.330
REMARK  Name = CHEMBL1093776
REMARK  8 active torsions:
REMARK  status: ('A' for Active; 'I' for Inactive)
REMARK    1  A    between atoms: C_1  and  C_2
REMARK    2  A    between atoms: C_2  and  N_3
REMARK    3  A    between atoms: N_3  and  C_18
REMARK    4  A    between atoms: C_4  and  C_6
REMARK    5  A    between atoms: C_8  and  C_9
REMARK    6  A    between atoms: C_12  and  C_13
REMARK    7  A    between atoms: C_21  and  O_22
REMARK    8  A    between atoms: O_22  and  C_23
REMARK                            x       y       z     vdW  Elec       q    Type
REMARK                         _______ _______ _______ _____ _____    ______ ____
ROOT
ATOM      1  N   UNL     1      -7.785   2.150 123.775  0.00  0.00    +0.000 N 
ATOM      2  C   UNL     1      -7.554   0.727 123.829  0.00  0.00    +0.000 C 
ATOM      3  O   UNL     1      -7.030   0.145 122.889  0.00  0.00    +0.000 OA
ENDROOT
BRANCH   2   4
ATOM      4  C   UNL     1      -7.837  -0.051 125.038  0.00  0.00    +0.000 A 
ATOM      5  C   UNL     1      -7.149  -0.253 126.220  0.00  0.00    +0.000 A 
ATOM      6  C   UNL     1      -7.755  -1.382 126.857  0.00  0.00    +0.000 A 
ATOM      7  N   UNL     1      -8.921  -1.662 126.258  0.00  0.00    +0.000 NA
ATOM      8  N   UNL     1      -9.008  -0.742 125.261  0.00  0.00    +0.000 N 
ATOM      9  H   UNL     1      -9.859  -0.711 124.707  0.00  0.00    +0.000 HD
BRANCH   6  10
ATOM     10  C   UNL     1      -7.165  -2.135 127.973  0.00  0.00    +0.000 A 
ATOM     11  C   UNL     1      -5.768  -2.232 128.026  0.00  0.00    +0.000 A 
ATOM     12  C   UNL     1      -5.124  -2.972 129.017  0.00  0.00    +0.000 A 
ATOM     13  C   UNL     1      -5.863  -3.652 129.985  0.00  0.00    +0.000 A 
ATOM     14  C   UNL     1      -5.157  -4.427 131.058  0.00  0.00    +0.000 C 
ATOM     15  C   UNL     1      -7.264  -3.589 129.932  0.00  0.00    +0.000 A 
ATOM     16  C   UNL     1      -7.915  -2.837 128.931  0.00  0.00    +0.000 A 
ENDBRANCH   6  10
ENDBRANCH   2   4
BRANCH   1  17
ATOM     17  C   UNL     1      -7.577   2.845 122.506  0.00  0.00    +0.000 A 
ATOM     18  C   UNL     1      -6.303   3.234 122.075  0.00  0.00    +0.000 A 
ATOM     19  C   UNL     1      -6.120   3.885 120.849  0.00  0.00    +0.000 A 
ATOM     20  C   UNL     1      -7.222   4.182 120.066  0.00  0.00    +0.000 A 
ATOM     21  N   UNL     1      -8.472   3.871 120.468  0.00  0.00    +0.000 NA
ATOM     22  C   UNL     1      -8.620   3.206 121.654  0.00  0.00    +0.000 A 
BRANCH  20  23
ATOM     23  O   UNL     1      -7.164   4.794 118.843  0.00  0.00    +0.000 OA
ATOM     24  C   UNL     1      -5.986   5.542 118.558  0.00  0.00    +0.000 C 
ENDBRANCH  20  23
ENDBRANCH   1  17
BRANCH   1  26
ATOM     25  C   UNL     1      -7.145   3.599 125.785  0.00  0.00    +0.000 C 
ATOM     26  C   UNL     1      -8.213   3.067 124.878  0.00  0.00    +0.000 C 
ENDBRANCH   1  26
TORSDOF 5
ENDMDL
MODEL 3
REMARK VINA RESULT:      -7.7      7.900      9.942
REMARK  Name = CHEMBL1093776
REMARK  8 active torsions:
REMARK  status: ('A' for Active; 'I' for Inactive)
REMARK    1  A    between atoms: C_1  and  C_2
REMARK    2  A    between atoms: C_2  and  N_3
REMARK    3  A    between atoms: N_3  and  C_18
REMARK    4  A    between atoms: C_4  and  C_6
REMARK    5  A    between atoms: C_8  and  C_9
REMARK    6  A    between atoms: C_12  and  C_13
REMARK    7  A    between atoms: C_21  and  O_22
REMARK    8  A    between atoms: O_22  and  C_23
REMARK                            x       y       z     vdW  Elec       q    Type
REMARK                         _______ _______ _______ _____ _____    ______ ____
ROOT
ATOM      1  N   UNL     1      -3.606   3.834 127.643  0.00  0.00    +0.000 N 
ATOM      2  C   UNL     1      -4.765   4.344 126.951  0.00  0.00    +0.000 C 
ATOM      3  O   UNL     1      -5.313   5.372 127.327  0.00  0.00    +0.000 OA
ENDROOT
BRANCH   2   4
ATOM      4  C   UNL     1      -5.264   3.717 125.724  0.00  0.00    +0.000 A 
ATOM      5  C   UNL     1      -5.241   4.088 124.392  0.00  0.00    +0.000 A 
ATOM      6  C   UNL     1      -6.188   3.254 123.720  0.00  0.00    +0.000 A 
ATOM      7  N   UNL     1      -6.542   2.241 124.524  0.00  0.00    +0.000 NA
ATOM      8  N   UNL     1      -5.847   2.471 125.669  0.00  0.00    +0.000 N 
ATOM      9  H   UNL     1      -5.900   1.780 126.412  0.00  0.00    +0.000 HD
BRANCH   6  10
ATOM     10  C   UNL     1      -6.715   3.496 122.370  0.00  0.00    +0.000 A 
ATOM     11  C   UNL     1      -5.814   3.932 121.389  0.00  0.00    +0.000 A 
ATOM     12  C   UNL     1      -6.233   4.240 120.095  0.00  0.00    +0.000 A 
ATOM     13  C   UNL     1      -7.579   4.129 119.744  0.00  0.00    +0.000 A 
ATOM     14  C   UNL     1      -8.015   4.443 118.343  0.00  0.00    +0.000 C 
ATOM     15  C   UNL     1      -8.501   3.720 120.720  0.00  0.00    +0.000 A 
ATOM     16  C   UNL     1      -8.074   3.406 122.027  0.00  0.00    +0.000 A 
ENDBRANCH   6  10
ENDBRANCH   2   4
BRANCH   1  17
ATOM     17  C   UNL     1      -3.226   4.444 128.916  0.00  0.00    +0.000 A 
ATOM     18  C   UNL     1      -2.439   5.601 128.976  0.00  0.00    +0.000 A 
ATOM     19  C   UNL     1      -2.096   6.182 130.204  0.00  0.00    +0.000 A 
ATOM     20  C   UNL     1      -2.514   5.581 131.378  0.00  0.00    +0.000 A 
ATOM     21  N   UNL     1      -3.231   4.439 131.367  0.00  0.00    +0.000 NA
ATOM     22  C   UNL     1      -3.579   3.910 130.154  0.00  0.00    +0.000 A 
BRANCH  20  23
ATOM     23  O   UNL     1      -2.260   6.069 132.633  0.00  0.00    +0.000 OA
ATOM     24  C   UNL     1      -2.845   5.364 133.724  0.00  0.00    +0.000 C 
ENDBRANCH  20  23
ENDBRANCH   1  17
BRANCH   1  26
ATOM     25  C   UNL     1      -1.506   3.101 126.377  0.00  0.00    +0.000 C 
ATOM     26  C   UNL     1      -2.683   2.731 127.228  0.00  0.00    +0.000 C 
ENDBRANCH   1  26
TORSDOF 5
ENDMDL
MODEL 4
REMARK VINA RESULT:      -7.2      6.809      8.175
REMARK  Name = CHEMBL1093776
REMARK  8 active torsions:
REMARK  status: ('A' for Active; 'I' for Inactive)
REMARK    1  A    between atoms: C_1  and  C_2
REMARK    2  A    between atoms: C_2  and  N_3
REMARK    3  A    between atoms: N_3  and  C_18
REMARK    4  A    between atoms: C_4  and  C_6
REMARK    5  A    between atoms: C_8  and  C_9
REMARK    6  A    between atoms: C_12  and  C_13
REMARK    7  A    between atoms: C_21  and  O_22
REMARK    8  A    between atoms: O_22  and  C_23
REMARK                            x       y       z     vdW  Elec       q    Type
REMARK                         _______ _______ _______ _____ _____    ______ ____
ROOT
ATOM      1  N   UNL     1      -7.582   1.750 123.746  0.00  0.00    +0.000 N 
ATOM      2  C   UNL     1      -7.280   2.383 125.007  0.00  0.00    +0.000 C 
ATOM      3  O   UNL     1      -7.121   3.595 125.073  0.00  0.00    +0.000 OA
ENDROOT
BRANCH   2   4
ATOM      4  C   UNL     1      -7.257   1.625 126.260  0.00  0.00    +0.000 A 
ATOM      5  C   UNL     1      -6.390   0.684 126.785  0.00  0.00    +0.000 A 
ATOM      6  C   UNL     1      -7.080   0.051 127.866  0.00  0.00    +0.000 A 
ATOM      7  N   UNL     1      -8.174   0.761 128.176  0.00  0.00    +0.000 NA
ATOM      8  N   UNL     1      -8.164   1.787 127.284  0.00  0.00    +0.000 N 
ATOM      9  H   UNL     1      -8.872   2.509 127.374  0.00  0.00    +0.000 HD
BRANCH   6  10
ATOM     10  C   UNL     1      -6.665  -1.204 128.509  0.00  0.00    +0.000 A 
ATOM     11  C   UNL     1      -7.670  -2.026 129.037  0.00  0.00    +0.000 A 
ATOM     12  C   UNL     1      -7.368  -3.208 129.713  0.00  0.00    +0.000 A 
ATOM     13  C   UNL     1      -6.041  -3.600 129.892  0.00  0.00    +0.000 A 
ATOM     14  C   UNL     1      -5.729  -4.884 130.602  0.00  0.00    +0.000 C 
ATOM     15  C   UNL     1      -5.020  -2.776 129.393  0.00  0.00    +0.000 A 
ATOM     16  C   UNL     1      -5.328  -1.582 128.707  0.00  0.00    +0.000 A 
ENDBRANCH   6  10
ENDBRANCH   2   4
BRANCH   1  17
ATOM     17  C   UNL     1      -7.487   2.546 122.523  0.00  0.00    +0.000 A 
ATOM     18  C   UNL     1      -8.623   3.047 121.875  0.00  0.00    +0.000 A 
ATOM     19  C   UNL     1      -8.513   3.820 120.713  0.00  0.00    +0.000 A 
ATOM     20  C   UNL     1      -7.261   4.064 120.176  0.00  0.00    +0.000 A 
ATOM     21  N   UNL     1      -6.145   3.558 120.739  0.00  0.00    +0.000 NA
ATOM     22  C   UNL     1      -6.277   2.834 121.892  0.00  0.00    +0.000 A 
BRANCH  20  23
ATOM     23  O   UNL     1      -7.029   4.823 119.059  0.00  0.00    +0.000 OA
ATOM     24  C   UNL     1      -5.778   5.500 118.995  0.00  0.00    +0.000 C 
ENDBRANCH  20  23
ENDBRANCH   1  17
BRANCH   1  26
ATOM     25  C   UNL     1      -6.933  -0.679 123.271  0.00  0.00    +0.000 C 
ATOM     26  C   UNL     1      -8.011   0.339 123.490  0.00  0.00    +0.000 C 
ENDBRANCH   1  26
TORSDOF 5
ENDMDL
MODEL 5
REMARK VINA RESULT:      -7.0      7.443      8.575
REMARK  Name = CHEMBL1093776
REMARK  8 active torsions:
REMARK  status: ('A' for Active; 'I' for Inactive)
REMARK    1  A    between atoms: C_1  and  C_2
REMARK    2  A    between atoms: C_2  and  N_3
REMARK    3  A    between atoms: N_3  and  C_18
REMARK    4  A    between atoms: C_4  and  C_6
REMARK    5  A    between atoms: C_8  and  C_9
REMARK    6  A    between atoms: C_12  and  C_13
REMARK    7  A    between atoms: C_21  and  O_22
REMARK    8  A    between atoms: O_22  and  C_23
REMARK                            x       y       z     vdW  Elec       q    Type
REMARK                         _______ _______ _______ _____ _____    ______ ____
ROOT
ATOM      1  N   UNL     1      -3.789   3.857 127.372  0.00  0.00    +0.000 N 
ATOM      2  C   UNL     1      -5.063   4.291 126.850  0.00  0.00    +0.000 C 
ATOM      3  O   UNL     1      -5.544   5.363 127.195  0.00  0.00    +0.000 OA
ENDROOT
BRANCH   2   4
ATOM      4  C   UNL     1      -5.771   3.527 125.821  0.00  0.00    +0.000 A 
ATOM      5  C   UNL     1      -6.640   2.452 125.866  0.00  0.00    +0.000 A 
ATOM      6  C   UNL     1      -6.713   1.930 124.537  0.00  0.00    +0.000 A 
ATOM      7  N   UNL     1      -6.168   2.807 123.681  0.00  0.00    +0.000 NA
ATOM      8  N   UNL     1      -5.748   3.826 124.477  0.00  0.00    +0.000 N 
ATOM      9  H   UNL     1      -5.361   4.654 124.035  0.00  0.00    +0.000 HD
BRANCH   6  10
ATOM     10  C   UNL     1      -7.269   0.618 124.176  0.00  0.00    +0.000 A 
ATOM     11  C   UNL     1      -8.525   0.593 123.556  0.00  0.00    +0.000 A 
ATOM     12  C   UNL     1      -9.154  -0.608 123.228  0.00  0.00    +0.000 A 
ATOM     13  C   UNL     1      -8.545  -1.828 123.523  0.00  0.00    +0.000 A 
ATOM     14  C   UNL     1      -9.223  -3.113 123.147  0.00  0.00    +0.000 C 
ATOM     15  C   UNL     1      -7.299  -1.823 124.168  0.00  0.00    +0.000 A 
ATOM     16  C   UNL     1      -6.662  -0.607 124.496  0.00  0.00    +0.000 A 
ENDBRANCH   6  10
ENDBRANCH   2   4
BRANCH   1  17
ATOM     17  C   UNL     1      -3.188   4.612 128.470  0.00  0.00    +0.000 A 
ATOM     18  C   UNL     1      -3.328   4.215 129.806  0.00  0.00    +0.000 A 
ATOM     19  C   UNL     1      -2.733   4.942 130.845  0.00  0.00    +0.000 A 
ATOM     20  C   UNL     1      -2.025   6.093 130.548  0.00  0.00    +0.000 A 
ATOM     21  N   UNL     1      -1.909   6.539 129.280  0.00  0.00    +0.000 NA
ATOM     22  C   UNL     1      -2.471   5.793 128.282  0.00  0.00    +0.000 A 
BRANCH  20  23
ATOM     23  O   UNL     1      -1.383   6.871 131.475  0.00  0.00    +0.000 OA
ATOM     24  C   UNL     1      -2.203   7.714 132.278  0.00  0.00    +0.000 C 
ENDBRANCH  20  23
ENDBRANCH   1  17
BRANCH   1  26
ATOM     25  C   UNL     1      -1.586   3.013 126.382  0.00  0.00    +0.000 C 
ATOM     26  C   UNL     1      -2.946   2.702 126.929  0.00  0.00    +0.000 C 
ENDBRANCH   1  26
TORSDOF 5
ENDMDL
MODEL 6
REMARK VINA RESULT:      -7.0      7.544      8.193
REMARK  Name = CHEMBL1093776
REMARK  8 active torsions:
REMARK  status: ('A' for Active; 'I' for Inactive)
REMARK    1  A    between atoms: C_1  and  C_2
REMARK    2  A    between atoms: C_2  and  N_3
REMARK    3  A    between atoms: N_3  and  C_18
REMARK    4  A    between atoms: C_4  and  C_6
REMARK    5  A    between atoms: C_8  and  C_9
REMARK    6  A    between atoms: C_12  and  C_13
REMARK    7  A    between atoms: C_21  and  O_22
REMARK    8  A    between atoms: O_22  and  C_23
REMARK                            x       y       z     vdW  Elec       q    Type
REMARK                         _______ _______ _______ _____ _____    ______ ____
ROOT
ATOM      1  N   UNL     1      -7.343  -0.909 125.263  0.00  0.00    +0.000 N 
ATOM      2  C   UNL     1      -7.151  -0.665 126.672  0.00  0.00    +0.000 C 
ATOM      3  O   UNL     1      -7.537   0.379 127.182  0.00  0.00    +0.000 OA
ENDROOT
BRANCH   2   4
ATOM      4  C   UNL     1      -6.589  -1.687 127.559  0.00  0.00    +0.000 A 
ATOM      5  C   UNL     1      -7.115  -2.443 128.590  0.00  0.00    +0.000 A 
ATOM      6  C   UNL     1      -6.003  -2.997 129.298  0.00  0.00    +0.000 A 
ATOM      7  N   UNL     1      -4.887  -2.841 128.572  0.00  0.00    +0.000 NA
ATOM      8  N   UNL     1      -5.307  -2.181 127.460  0.00  0.00    +0.000 N 
ATOM      9  H   UNL     1      -4.636  -2.014 126.717  0.00  0.00    +0.000 HD
BRANCH   6  10
ATOM     10  C   UNL     1      -6.075  -3.609 130.633  0.00  0.00    +0.000 A 
ATOM     11  C   UNL     1      -6.898  -2.994 131.586  0.00  0.00    +0.000 A 
ATOM     12  C   UNL     1      -6.986  -3.473 132.893  0.00  0.00    +0.000 A 
ATOM     13  C   UNL     1      -6.239  -4.582 133.291  0.00  0.00    +0.000 A 
ATOM     14  C   UNL     1      -6.359  -5.100 134.695  0.00  0.00    +0.000 C 
ATOM     15  C   UNL     1      -5.389  -5.195 132.358  0.00  0.00    +0.000 A 
ATOM     16  C   UNL     1      -5.304  -4.711 131.035  0.00  0.00    +0.000 A 
ENDBRANCH   6  10
ENDBRANCH   2   4
BRANCH   1  17
ATOM     17  C   UNL     1      -7.812   0.189 124.420  0.00  0.00    +0.000 A 
ATOM     18  C   UNL     1      -9.149   0.294 124.016  0.00  0.00    +0.000 A 
ATOM     19  C   UNL     1      -9.585   1.361 123.221  0.00  0.00    +0.000 A 
ATOM     20  C   UNL     1      -8.671   2.310 122.798  0.00  0.00    +0.000 A 
ATOM     21  N   UNL     1      -7.364   2.219 123.121  0.00  0.00    +0.000 NA
ATOM     22  C   UNL     1      -6.971   1.185 123.925  0.00  0.00    +0.000 A 
BRANCH  20  23
ATOM     23  O   UNL     1      -8.984   3.405 122.038  0.00  0.00    +0.000 OA
ATOM     24  C   UNL     1      -8.182   3.633 120.883  0.00  0.00    +0.000 C 
ENDBRANCH  20  23
ENDBRANCH   1  17
BRANCH   1  26
ATOM     25  C   UNL     1      -5.802  -2.385 123.851  0.00  0.00    +0.000 C 
ATOM     26  C   UNL     1      -7.137  -2.181 124.501  0.00  0.00    +0.000 C 
ENDBRANCH   1  26
TORSDOF 5
ENDMDL
MODEL 7
REMARK VINA RESULT:      -6.8      9.000     11.556
REMARK  Name = CHEMBL1093776
REMARK  8 active torsions:
REMARK  status: ('A' for Active; 'I' for Inactive)
REMARK    1  A    between atoms: C_1  and  C_2
REMARK    2  A    between atoms: C_2  and  N_3
REMARK    3  A    between atoms: N_3  and  C_18
REMARK    4  A    between atoms: C_4  and  C_6
REMARK    5  A    between atoms: C_8  and  C_9
REMARK    6  A    between atoms: C_12  and  C_13
REMARK    7  A    between atoms: C_21  and  O_22
REMARK    8  A    between atoms: O_22  and  C_23
REMARK                            x       y       z     vdW  Elec       q    Type
REMARK                         _______ _______ _______ _____ _____    ______ ____
ROOT
ATOM      1  N   UNL     1      -4.331  -2.840 131.916  0.00  0.00    +0.000 N 
ATOM      2  C   UNL     1      -3.962  -2.910 130.522  0.00  0.00    +0.000 C 
ATOM      3  O   UNL     1      -2.936  -3.482 130.178  0.00  0.00    +0.000 OA
ENDROOT
BRANCH   2   4
ATOM      4  C   UNL     1      -4.843  -2.399 129.469  0.00  0.00    +0.000 A 
ATOM      5  C   UNL     1      -6.028  -2.851 128.920  0.00  0.00    +0.000 A 
ATOM      6  C   UNL     1      -6.215  -2.127 127.700  0.00  0.00    +0.000 A 
ATOM      7  N   UNL     1      -5.365  -1.092 127.660  0.00  0.00    +0.000 NA
ATOM      8  N   UNL     1      -4.658  -1.201 128.815  0.00  0.00    +0.000 N 
ATOM      9  H   UNL     1      -3.991  -0.469 129.042  0.00  0.00    +0.000 HD
BRANCH   6  10
ATOM     10  C   UNL     1      -7.169  -2.490 126.643  0.00  0.00    +0.000 A 
ATOM     11  C   UNL     1      -6.671  -2.644 125.342  0.00  0.00    +0.000 A 
ATOM     12  C   UNL     1      -7.511  -2.933 124.267  0.00  0.00    +0.000 A 
ATOM     13  C   UNL     1      -8.886  -3.069 124.462  0.00  0.00    +0.000 A 
ATOM     14  C   UNL     1      -9.777  -3.401 123.300  0.00  0.00    +0.000 C 
ATOM     15  C   UNL     1      -9.407  -2.892 125.753  0.00  0.00    +0.000 A 
ATOM     16  C   UNL     1      -8.555  -2.603 126.840  0.00  0.00    +0.000 A 
ENDBRANCH   6  10
ENDBRANCH   2   4
BRANCH   1  17
ATOM     17  C   UNL     1      -3.361  -3.276 132.919  0.00  0.00    +0.000 A 
ATOM     18  C   UNL     1      -3.281  -4.609 133.342  0.00  0.00    +0.000 A 
ATOM     19  C   UNL     1      -2.336  -5.012 134.293  0.00  0.00    +0.000 A 
ATOM     20  C   UNL     1      -1.489  -4.070 134.851  0.00  0.00    +0.000 A 
ATOM     21  N   UNL     1      -1.567  -2.767 134.510  0.00  0.00    +0.000 NA
ATOM     22  C   UNL     1      -2.476  -2.405 133.554  0.00  0.00    +0.000 A 
BRANCH  20  23
ATOM     23  O   UNL     1      -0.514  -4.350 135.770  0.00  0.00    +0.000 OA
ATOM     24  C   UNL     1       0.505  -3.369 135.941  0.00  0.00    +0.000 C 
ENDBRANCH  20  23
ENDBRANCH   1  17
BRANCH   1  26
ATOM     25  C   UNL     1      -6.747  -3.369 132.572  0.00  0.00    +0.000 C 
ATOM     26  C   UNL     1      -5.623  -2.380 132.516  0.00  0.00    +0.000 C 
ENDBRANCH   1  26
TORSDOF 5
ENDMDL
MODEL 8
REMARK VINA RESULT:      -6.7      3.595      9.120
REMARK  Name = CHEMBL1093776
REMARK  8 active torsions:
REMARK  status: ('A' for Active; 'I' for Inactive)
REMARK    1  A    between atoms: C_1  and  C_2
REMARK    2  A    between atoms: C_2  and  N_3
REMARK    3  A    between atoms: N_3  and  C_18
REMARK    4  A    between atoms: C_4  and  C_6
REMARK    5  A    between atoms: C_8  and  C_9
REMARK    6  A    between atoms: C_12  and  C_13
REMARK    7  A    between atoms: C_21  and  O_22
REMARK    8  A    between atoms: O_22  and  C_23
REMARK                            x       y       z     vdW  Elec       q    Type
REMARK                         _______ _______ _______ _____ _____    ______ ____
ROOT
ATOM      1  N   UNL     1      -7.393   3.488 132.226  0.00  0.00    +0.000 N 
ATOM      2  C   UNL     1      -8.058   3.108 131.002  0.00  0.00    +0.000 C 
ATOM      3  O   UNL     1      -7.694   2.121 130.377  0.00  0.00    +0.000 OA
ENDROOT
BRANCH   2   4
ATOM      4  C   UNL     1      -9.245   3.819 130.521  0.00  0.00    +0.000 A 
ATOM      5  C   UNL     1      -9.475   5.124 130.126  0.00  0.00    +0.000 A 
ATOM      6  C   UNL     1     -10.894   5.300 130.108  0.00  0.00    +0.000 A 
ATOM      7  N   UNL     1     -11.495   4.105 130.190  0.00  0.00    +0.000 NA
ATOM      8  N   UNL     1     -10.464   3.224 130.285  0.00  0.00    +0.000 N 
ATOM      9  H   UNL     1     -10.678   2.231 130.285  0.00  0.00    +0.000 HD
BRANCH   6  10
ATOM     10  C   UNL     1     -11.580   6.598 130.045  0.00  0.00    +0.000 A 
ATOM     11  C   UNL     1     -11.380   7.385 128.902  0.00  0.00    +0.000 A 
ATOM     12  C   UNL     1     -11.946   8.653 128.779  0.00  0.00    +0.000 A 
ATOM     13  C   UNL     1     -12.727   9.181 129.808  0.00  0.00    +0.000 A 
ATOM     14  C   UNL     1     -13.348  10.539 129.654  0.00  0.00    +0.000 C 
ATOM     15  C   UNL     1     -12.917   8.420 130.971  0.00  0.00    +0.000 A 
ATOM     16  C   UNL     1     -12.346   7.135 131.092  0.00  0.00    +0.000 A 
ENDBRANCH   6  10
ENDBRANCH   2   4
BRANCH   1  17
ATOM     17  C   UNL     1      -6.156   2.802 132.592  0.00  0.00    +0.000 A 
ATOM     18  C   UNL     1      -6.144   1.720 133.482  0.00  0.00    +0.000 A 
ATOM     19  C   UNL     1      -4.951   1.064 133.810  0.00  0.00    +0.000 A 
ATOM     20  C   UNL     1      -3.758   1.517 133.274  0.00  0.00    +0.000 A 
ATOM     21  N   UNL     1      -3.718   2.587 132.454  0.00  0.00    +0.000 NA
ATOM     22  C   UNL     1      -4.901   3.189 132.124  0.00  0.00    +0.000 A 
BRANCH  20  23
ATOM     23  O   UNL     1      -2.536   0.943 133.505  0.00  0.00    +0.000 OA
ATOM     24  C   UNL     1      -2.510  -0.475 133.637  0.00  0.00    +0.000 C 
ENDBRANCH  20  23
ENDBRANCH   1  17
BRANCH   1  26
ATOM     25  C   UNL     1      -8.728   4.078 134.328  0.00  0.00    +0.000 C 
ATOM     26  C   UNL     1      -7.808   4.518 133.230  0.00  0.00    +0.000 C 
ENDBRANCH   1  26
TORSDOF 5
ENDMDL
MODEL 9
REMARK VINA RESULT:      -6.7      7.482      8.890
REMARK  Name = CHEMBL1093776
REMARK  8 active torsions:
REMARK  status: ('A' for Active; 'I' for Inactive)
REMARK    1  A    between atoms: C_1  and  C_2
REMARK    2  A    between atoms: C_2  and  N_3
REMARK    3  A    between atoms: N_3  and  C_18
REMARK    4  A    between atoms: C_4  and  C_6
REMARK    5  A    between atoms: C_8  and  C_9
REMARK    6  A    between atoms: C_12  and  C_13
REMARK    7  A    between atoms: C_21  and  O_22
REMARK    8  A    between atoms: O_22  and  C_23
REMARK                            x       y       z     vdW  Elec       q    Type
REMARK                         _______ _______ _______ _____ _____    ______ ____
ROOT
ATOM      1  N   UNL     1      -2.512   5.535 130.158  0.00  0.00    +0.000 N 
ATOM      2  C   UNL     1      -2.337   5.817 128.754  0.00  0.00    +0.000 C 
ATOM      3  O   UNL     1      -1.754   6.829 128.389  0.00  0.00    +0.000 OA
ENDROOT
BRANCH   2   4
ATOM      4  C   UNL     1      -2.752   4.862 127.723  0.00  0.00    +0.000 A 
ATOM      5  C   UNL     1      -3.945   4.639 127.060  0.00  0.00    +0.000 A 
ATOM      6  C   UNL     1      -3.833   3.356 126.438  0.00  0.00    +0.000 A 
ATOM      7  N   UNL     1      -2.553   2.957 126.464  0.00  0.00    +0.000 NA
ATOM      8  N   UNL     1      -1.907   3.962 127.112  0.00  0.00    +0.000 N 
ATOM      9  H   UNL     1      -0.896   3.914 127.188  0.00  0.00    +0.000 HD
BRANCH   6  10
ATOM     10  C   UNL     1      -4.957   2.585 125.890  0.00  0.00    +0.000 A 
ATOM     11  C   UNL     1      -5.061   1.236 126.258  0.00  0.00    +0.000 A 
ATOM     12  C   UNL     1      -6.063   0.413 125.745  0.00  0.00    +0.000 A 
ATOM     13  C   UNL     1      -6.992   0.916 124.832  0.00  0.00    +0.000 A 
ATOM     14  C   UNL     1      -8.078   0.026 124.303  0.00  0.00    +0.000 C 
ATOM     15  C   UNL     1      -6.887   2.257 124.432  0.00  0.00    +0.000 A 
ATOM     16  C   UNL     1      -5.875   3.089 124.955  0.00  0.00    +0.000 A 
ENDBRANCH   6  10
ENDBRANCH   2   4
BRANCH   1  17
ATOM     17  C   UNL     1      -2.171   6.575 131.128  0.00  0.00    +0.000 A 
ATOM     18  C   UNL     1      -3.053   7.617 131.438  0.00  0.00    +0.000 A 
ATOM     19  C   UNL     1      -2.716   8.597 132.380  0.00  0.00    +0.000 A 
ATOM     20  C   UNL     1      -1.475   8.553 132.990  0.00  0.00    +0.000 A 
ATOM     21  N   UNL     1      -0.575   7.597 132.683  0.00  0.00    +0.000 NA
ATOM     22  C   UNL     1      -0.942   6.633 131.784  0.00  0.00    +0.000 A 
BRANCH  20  23
ATOM     23  O   UNL     1      -1.045   9.441 133.939  0.00  0.00    +0.000 OA
ATOM     24  C   UNL     1      -0.509  10.674 133.467  0.00  0.00    +0.000 C 
ENDBRANCH  20  23
ENDBRANCH   1  17
BRANCH   1  26
ATOM     25  C   UNL     1      -4.481   4.135 131.002  0.00  0.00    +0.000 C 
ATOM     26  C   UNL     1      -3.002   4.276 130.802  0.00  0.00    +0.000 C 
ENDBRANCH   1  26
TORSDOF 5
ENDMDL
