MODEL 1
REMARK VINA RESULT:      -8.8      0.000      0.000
REMARK  Name = CHEMBL1790721
REMARK  24 active torsions:
REMARK  status: ('A' for Active; 'I' for Inactive)
REMARK    1  A    between atoms: C_1  and  C_2
REMARK    2  A    between atoms: C_2  and  C_3
REMARK    3  A    between atoms: C_3  and  C_4
REMARK    4  A    between atoms: C_3  and  C_5
REMARK    5  A    between atoms: C_9  and  C_10
REMARK    6  A    between atoms: C_13  and  O_14
REMARK    7  A    between atoms: C_25  and  C_26
REMARK    8  A    between atoms: C_32  and  C_33
REMARK    9  A    between atoms: N_35  and  C_36
REMARK   10  A    between atoms: C_36  and  C_37
REMARK   11  A    between atoms: C_36  and  C_68
REMARK   12  A    between atoms: C_37  and  C_38
REMARK   13  A    between atoms: C_38  and  C_39
REMARK   14  A    between atoms: C_39  and  N_40
REMARK   15  A    between atoms: C_41  and  C_43
REMARK   16  A    between atoms: C_56  and  O_57
REMARK   17  A    between atoms: C_63  and  O_64
REMARK   18  A    between atoms: N_70  and  C_71
REMARK   19  A    between atoms: C_71  and  N_72
REMARK   20  A    between atoms: C_76  and  C_77
REMARK   21  A    between atoms: C_77  and  C_78
REMARK   22  A    between atoms: C_84  and  C_85
REMARK   23  A    between atoms: C_85  and  C_86
REMARK   24  A    between atoms: C_86  and  C_87
REMARK                            x       y       z     vdW  Elec       q    Type
REMARK                         _______ _______ _______ _____ _____    ______ ____
ROOT
ATOM      1  C   UNL     1      -4.623   4.081 127.724  0.00  0.00    +0.000 C 
ATOM      2  N   UNL     1      -6.420   4.244 128.518  0.00  0.00    +0.000 N 
ATOM      3  C   UNL     1      -7.561   4.394 129.630  0.00  0.00    +0.000 C 
ATOM      4  O   UNL     1      -8.721   3.982 129.310  0.00  0.00    +0.000 OA
ATOM      5  C   UNL     1      -7.522   5.327 131.070  0.00  0.00    +0.000 C 
ATOM      6  N   UNL     1      -8.772   6.176 131.528  0.00  0.00    +0.000 N 
ATOM      7  C   UNL     1      -9.905   5.913 132.306  0.00  0.00    +0.000 C 
ATOM      8  O   UNL     1     -10.593   6.847 132.743  0.00  0.00    +0.000 OA
ATOM      9  C   UNL     1     -10.341   4.524 132.709  0.00  0.00    +0.000 C 
ATOM     10  C   UNL     1      -9.401   3.489 132.308  0.00  0.00    +0.000 C 
ATOM     11  S   UNL     1     -10.127   1.958 132.405  0.00  0.00    +0.000 S 
ATOM     12  S   UNL     1      -8.641   1.079 130.771  0.00  0.00    +0.000 S 
ATOM     13  C   UNL     1      -8.164  -1.316 131.319  0.00  0.00    +0.000 C 
ATOM     14  C   UNL     1      -6.987  -2.181 131.213  0.00  0.00    +0.000 C 
ATOM     15  N   UNL     1      -6.637  -1.956 129.916  0.00  0.00    +0.000 N 
ATOM     16  C   UNL     1      -5.945  -0.821 129.639  0.00  0.00    +0.000 C 
ATOM     17  O   UNL     1      -5.286  -0.865 128.591  0.00  0.00    +0.000 OA
ATOM     18  C   UNL     1      -6.257   0.580 130.427  0.00  0.00    +0.000 C 
ATOM     19  N   UNL     1      -5.146   1.361 130.108  0.00  0.00    +0.000 N 
ATOM     20  C   UNL     1      -4.885   1.776 128.841  0.00  0.00    +0.000 C 
ATOM     21  O   UNL     1      -3.689   2.111 128.798  0.00  0.00    +0.000 OA
ATOM     22  C   UNL     1      -6.031   1.836 127.425  0.00  0.00    +0.000 C 
ATOM     23  N   UNL     1      -6.278   3.043 126.494  0.00  0.00    +0.000 N 
ATOM     24  C   UNL     1      -5.554   4.219 126.582  0.00  0.00    +0.000 C 
ATOM     25  O   UNL     1      -5.903   5.300 126.123  0.00  0.00    +0.000 OA
ATOM     26  H   UNL     1      -7.293   4.242 127.927  0.00  0.00    +0.000 HD
ATOM     27  H   UNL     1      -8.593   7.178 131.524  0.00  0.00    +0.000 HD
ATOM     28  H   UNL     1      -7.161  -2.479 129.210  0.00  0.00    +0.000 HD
ATOM     29  H   UNL     1      -4.391   1.398 130.766  0.00  0.00    +0.000 HD
ATOM     30  H   UNL     1      -7.157   3.422 126.757  0.00  0.00    +0.000 HD
ENDROOT
BRANCH  14  31
ATOM     31  C   UNL     1      -5.751  -2.052 132.113  0.00  0.00    +0.000 C 
ATOM     32  O   UNL     1      -5.556  -1.178 132.965  0.00  0.00    +0.000 OA
ATOM     33  N   UNL     1      -4.823  -3.017 131.884  0.00  0.00    +0.000 N 
ATOM     34  C   UNL     1      -4.534  -3.910 130.762  0.00  0.00    +0.000 C 
ATOM     35  C   UNL     1      -4.336  -5.191 131.474  0.00  0.00    +0.000 C 
ATOM     36  C   UNL     1      -3.521  -4.739 132.670  0.00  0.00    +0.000 C 
ATOM     37  C   UNL     1      -4.015  -3.340 132.991  0.00  0.00    +0.000 C 
BRANCH  37  38
ATOM     38  C   UNL     1      -4.733  -3.394 134.335  0.00  0.00    +0.000 C 
ATOM     39  O   UNL     1      -5.579  -4.292 134.395  0.00  0.00    +0.000 OA
ATOM     40  N   UNL     1      -4.527  -2.458 135.350  0.00  0.00    +0.000 N 
ATOM     41  H   UNL     1      -3.971  -1.618 135.215  0.00  0.00    +0.000 HD
BRANCH  40  42
ATOM     42  C   UNL     1      -5.131  -2.604 136.715  0.00  0.00    +0.000 C 
BRANCH  42  43
ATOM     43  C   UNL     1      -6.693  -2.846 136.651  0.00  0.00    +0.000 C 
ATOM     44  O   UNL     1      -7.434  -1.957 136.220  0.00  0.00    +0.000 OA
ATOM     45  N   UNL     1      -7.199  -4.079 137.071  0.00  0.00    +0.000 N 
ATOM     46  H   UNL     1      -6.607  -4.796 137.468  0.00  0.00    +0.000 HD
BRANCH  45  47
ATOM     47  C   UNL     1      -8.618  -4.336 137.061  0.00  0.00    +0.000 C 
BRANCH  47  48
ATOM     48  N   UNL     1      -9.083  -4.368 135.690  0.00  0.00    +0.000 NA
ATOM     49  H   UNL     1      -8.416  -4.850 135.094  0.00  0.00    +0.000 HD
ATOM     50  H   UNL     1      -9.086  -3.406 135.334  0.00  0.00    +0.000 HD
ENDBRANCH  47  48
ENDBRANCH  45  47
ENDBRANCH  42  43
BRANCH  42  51
ATOM     51  C   UNL     1      -4.842  -1.363 137.592  0.00  0.00    +0.000 C 
BRANCH  51  52
ATOM     52  C   UNL     1      -4.791  -1.688 139.093  0.00  0.00    +0.000 C 
BRANCH  52  53
ATOM     53  C   UNL     1      -4.351  -0.596 140.051  0.00  0.00    +0.000 C 
BRANCH  53  54
ATOM     54  N   UNL     1      -4.989   0.817 139.723  0.00  0.00    +0.000 N 
ATOM     55  C   UNL     1      -4.683   2.026 140.498  0.00  0.00    +0.000 C 
ATOM     56  O   UNL     1      -3.772   1.756 141.318  0.00  0.00    +0.000 OA
ATOM     57  H   UNL     1      -5.622   0.776 138.941  0.00  0.00    +0.000 HD
BRANCH  55  58
ATOM     58  C   UNL     1      -5.305   3.742 140.637  0.00  0.00    +0.000 A 
ATOM     59  C   UNL     1      -5.445   4.130 139.383  0.00  0.00    +0.000 A 
ATOM     60  C   UNL     1      -6.432   5.121 139.104  0.00  0.00    +0.000 A 
ATOM     61  C   UNL     1      -5.773   6.258 139.279  0.00  0.00    +0.000 A 
ATOM     62  C   UNL     1      -6.174   6.893 140.376  0.00  0.00    +0.000 A 
ATOM     63  C   UNL     1      -5.904   5.121 141.217  0.00  0.00    +0.000 A 
ATOM     64  C   UNL     1      -6.234   8.330 139.148  0.00  0.00    +0.000 C 
ATOM     65  O   UNL     1      -6.154   7.741 137.811  0.00  0.00    +0.000 OA
ATOM     66  C   UNL     1      -5.242   6.797 138.070  0.00  0.00    +0.000 C 
ATOM     67  O   UNL     1      -4.406   6.182 137.429  0.00  0.00    +0.000 OA
ATOM     68  C   UNL     1      -7.553   9.542 139.362  0.00  0.00    +0.000 A 
ATOM     69  C   UNL     1      -8.906   9.552 138.912  0.00  0.00    +0.000 A 
ATOM     70  C   UNL     1      -9.854  10.629 139.244  0.00  0.00    +0.000 A 
ATOM     71  C   UNL     1      -9.454  11.771 139.936  0.00  0.00    +0.000 A 
ATOM     72  C   UNL     1      -8.109  11.902 140.221  0.00  0.00    +0.000 A 
ATOM     73  C   UNL     1      -7.197  10.823 139.933  0.00  0.00    +0.000 A 
ATOM     74  O   UNL     1      -5.889  11.111 140.293  0.00  0.00    +0.000 OA
ATOM     75  C   UNL     1      -4.936  10.735 139.392  0.00  0.00    +0.000 A 
ATOM     76  C   UNL     1      -3.659  11.367 139.475  0.00  0.00    +0.000 A 
ATOM     77  C   UNL     1      -2.718  11.431 138.448  0.00  0.00    +0.000 A 
ATOM     78  C   UNL     1      -3.194  11.158 137.194  0.00  0.00    +0.000 A 
ATOM     79  C   UNL     1      -4.473  10.404 137.131  0.00  0.00    +0.000 A 
ATOM     80  C   UNL     1      -5.139   9.788 138.440  0.00  0.00    +0.000 A 
BRANCH  71  81
ATOM     81  O   UNL     1     -10.289  12.763 140.379  0.00  0.00    +0.000 OA
ATOM     82  H   UNL     1     -10.283  12.853 141.347  0.00  0.00    +0.000 HD
ENDBRANCH  71  81
BRANCH  77  83
ATOM     83  O   UNL     1      -1.398  11.720 138.656  0.00  0.00    +0.000 OA
ATOM     84  H   UNL     1      -0.855  10.910 138.702  0.00  0.00    +0.000 HD
ENDBRANCH  77  83
ENDBRANCH  55  58
ENDBRANCH  53  54
ENDBRANCH  52  53
ENDBRANCH  51  52
ENDBRANCH  42  51
ENDBRANCH  40  42
ENDBRANCH  37  38
ENDBRANCH  14  31
BRANCH   5  85
ATOM     85  C   UNL     1      -6.926   4.692 132.346  0.00  0.00    +0.000 A 
ATOM     86  C   UNL     1      -7.461   5.064 133.561  0.00  0.00    +0.000 A 
ATOM     87  C   UNL     1      -6.875   4.648 134.771  0.00  0.00    +0.000 A 
ATOM     88  C   UNL     1      -5.639   4.024 134.800  0.00  0.00    +0.000 A 
ATOM     89  C   UNL     1      -5.022   3.702 133.617  0.00  0.00    +0.000 A 
ATOM     90  C   UNL     1      -5.688   3.957 132.405  0.00  0.00    +0.000 A 
BRANCH  88  91
ATOM     91  O   UNL     1      -5.012   3.676 135.952  0.00  0.00    +0.000 OA
ATOM     92  H   UNL     1      -4.203   4.196 136.088  0.00  0.00    +0.000 HD
ENDBRANCH  88  91
ENDBRANCH   5  85
BRANCH   1  93
ATOM     93  C   UNL     1      -3.075   4.108 126.493  0.00  0.00    +0.000 C 
ATOM     94  C   UNL     1      -1.988   4.768 127.257  0.00  0.00    +0.000 C 
BRANCH  93  96
ATOM     95  C   UNL     1      -1.113   2.768 126.653  0.00  0.00    +0.000 C 
ATOM     96  C   UNL     1      -2.394   2.716 125.929  0.00  0.00    +0.000 C 
ENDBRANCH  93  96
ENDBRANCH   1  93
BRANCH  18  97
ATOM     97  C   UNL     1      -6.747   0.384 131.968  0.00  0.00    +0.000 C 
BRANCH  97  98
ATOM     98  C   UNL     1      -5.869   0.650 133.739  0.00  0.00    +0.000 C 
ATOM     99  N   UNL     1      -4.074   0.907 133.675  0.00  0.00    +0.000 N 
ATOM    100  O   UNL     1      -6.452   0.973 134.763  0.00  0.00    +0.000 OA
ATOM    101  H   UNL     1      -3.748   0.616 132.641  0.00  0.00    +0.000 HD
ATOM    102  H   UNL     1      -3.141   1.138 133.981  0.00  0.00    +0.000 HD
ENDBRANCH  97  98
ENDBRANCH  18  97
BRANCH  22 103
ATOM    103  C   UNL     1      -7.502   1.410 127.646  0.00  0.00    +0.000 C 
BRANCH 103 104
ATOM    104  C   UNL     1      -8.111   0.913 126.391  0.00  0.00    +0.000 C 
BRANCH 104 105
ATOM    105  C   UNL     1      -8.583  -0.483 126.154  0.00  0.00    +0.000 C 
ATOM    106  N   UNL     1      -7.698  -1.418 126.528  0.00  0.00    +0.000 N 
ATOM    107  O   UNL     1      -9.611  -0.823 125.581  0.00  0.00    +0.000 OA
ATOM    108  H   UNL     1      -6.721  -1.149 126.630  0.00  0.00    +0.000 HD
ATOM    109  H   UNL     1      -7.905  -2.352 126.212  0.00  0.00    +0.000 HD
ENDBRANCH 104 105
ENDBRANCH 103 104
ENDBRANCH  22 103
TORSDOF 22
ENDMDL
MODEL 2
REMARK VINA RESULT:      -8.8      3.820     12.950
REMARK  Name = CHEMBL1790721
REMARK  24 active torsions:
REMARK  status: ('A' for Active; 'I' for Inactive)
REMARK    1  A    between atoms: C_1  and  C_2
REMARK    2  A    between atoms: C_2  and  C_3
REMARK    3  A    between atoms: C_3  and  C_4
REMARK    4  A    between atoms: C_3  and  C_5
REMARK    5  A    between atoms: C_9  and  C_10
REMARK    6  A    between atoms: C_13  and  O_14
REMARK    7  A    between atoms: C_25  and  C_26
REMARK    8  A    between atoms: C_32  and  C_33
REMARK    9  A    between atoms: N_35  and  C_36
REMARK   10  A    between atoms: C_36  and  C_37
REMARK   11  A    between atoms: C_36  and  C_68
REMARK   12  A    between atoms: C_37  and  C_38
REMARK   13  A    between atoms: C_38  and  C_39
REMARK   14  A    between atoms: C_39  and  N_40
REMARK   15  A    between atoms: C_41  and  C_43
REMARK   16  A    between atoms: C_56  and  O_57
REMARK   17  A    between atoms: C_63  and  O_64
REMARK   18  A    between atoms: N_70  and  C_71
REMARK   19  A    between atoms: C_71  and  N_72
REMARK   20  A    between atoms: C_76  and  C_77
REMARK   21  A    between atoms: C_77  and  C_78
REMARK   22  A    between atoms: C_84  and  C_85
REMARK   23  A    between atoms: C_85  and  C_86
REMARK   24  A    between atoms: C_86  and  C_87
REMARK                            x       y       z     vdW  Elec       q    Type
REMARK                         _______ _______ _______ _____ _____    ______ ____
ROOT
ATOM      1  C   UNL     1      -7.268  10.046 138.689  0.00  0.00    +0.000 C 
ATOM      2  N   UNL     1      -5.311   9.910 138.500  0.00  0.00    +0.000 N 
ATOM      3  C   UNL     1      -3.886   9.427 137.954  0.00  0.00    +0.000 C 
ATOM      4  O   UNL     1      -2.899   9.571 138.743  0.00  0.00    +0.000 OA
ATOM      5  C   UNL     1      -3.442   9.047 136.340  0.00  0.00    +0.000 C 
ATOM      6  N   UNL     1      -2.063   9.524 135.737  0.00  0.00    +0.000 N 
ATOM      7  C   UNL     1      -0.769   8.992 135.703  0.00  0.00    +0.000 C 
ATOM      8  O   UNL     1       0.072   9.445 134.915  0.00  0.00    +0.000 OA
ATOM      9  C   UNL     1      -0.320   7.828 136.555  0.00  0.00    +0.000 C 
ATOM     10  C   UNL     1      -1.397   7.236 137.332  0.00  0.00    +0.000 C 
ATOM     11  S   UNL     1      -0.770   6.241 138.556  0.00  0.00    +0.000 S 
ATOM     12  S   UNL     1      -2.722   6.531 139.882  0.00  0.00    +0.000 S 
ATOM     13  C   UNL     1      -3.162   4.415 141.144  0.00  0.00    +0.000 C 
ATOM     14  C   UNL     1      -4.368   3.691 141.549  0.00  0.00    +0.000 C 
ATOM     15  N   UNL     1      -5.070   4.700 142.137  0.00  0.00    +0.000 N 
ATOM     16  C   UNL     1      -5.743   5.555 141.324  0.00  0.00    +0.000 C 
ATOM     17  O   UNL     1      -6.682   6.149 141.871  0.00  0.00    +0.000 OA
ATOM     18  C   UNL     1      -5.127   6.016 139.880  0.00  0.00    +0.000 C 
ATOM     19  N   UNL     1      -6.233   6.586 139.248  0.00  0.00    +0.000 N 
ATOM     20  C   UNL     1      -6.830   7.719 139.701  0.00  0.00    +0.000 C 
ATOM     21  O   UNL     1      -7.963   7.771 139.192  0.00  0.00    +0.000 OA
ATOM     22  C   UNL     1      -6.150   8.957 140.852  0.00  0.00    +0.000 C 
ATOM     23  N   UNL     1      -6.115  10.486 140.640  0.00  0.00    +0.000 N 
ATOM     24  C   UNL     1      -6.708  11.107 139.555  0.00  0.00    +0.000 C 
ATOM     25  O   UNL     1      -6.444  12.235 139.154  0.00  0.00    +0.000 OA
ATOM     26  H   UNL     1      -4.652  10.477 139.097  0.00  0.00    +0.000 HD
ATOM     27  H   UNL     1      -2.174  10.185 134.971  0.00  0.00    +0.000 HD
ATOM     28  H   UNL     1      -4.810   4.928 143.099  0.00  0.00    +0.000 HD
ATOM     29  H   UNL     1      -6.757   6.015 138.611  0.00  0.00    +0.000 HD
ATOM     30  H   UNL     1      -5.176  10.714 140.412  0.00  0.00    +0.000 HD
ENDROOT
BRANCH  14  31
ATOM     31  C   UNL     1      -5.274   2.930 140.572  0.00  0.00    +0.000 C 
ATOM     32  O   UNL     1      -5.131   2.862 139.346  0.00  0.00    +0.000 OA
ATOM     33  N   UNL     1      -6.316   2.310 141.184  0.00  0.00    +0.000 N 
ATOM     34  C   UNL     1      -7.000   2.488 142.465  0.00  0.00    +0.000 C 
ATOM     35  C   UNL     1      -7.104   1.084 142.918  0.00  0.00    +0.000 C 
ATOM     36  C   UNL     1      -7.493   0.388 141.628  0.00  0.00    +0.000 C 
ATOM     37  C   UNL     1      -6.797   1.164 140.525  0.00  0.00    +0.000 C 
BRANCH  37  38
ATOM     38  C   UNL     1      -5.731   0.258 139.918  0.00  0.00    +0.000 C 
ATOM     39  O   UNL     1      -4.946  -0.194 140.757  0.00  0.00    +0.000 OA
ATOM     40  N   UNL     1      -5.596   0.051 138.543  0.00  0.00    +0.000 N 
ATOM     41  H   UNL     1      -6.126   0.579 137.856  0.00  0.00    +0.000 HD
BRANCH  40  42
ATOM     42  C   UNL     1      -4.637  -0.950 137.971  0.00  0.00    +0.000 C 
BRANCH  42  43
ATOM     43  C   UNL     1      -4.237  -0.604 136.479  0.00  0.00    +0.000 C 
ATOM     44  O   UNL     1      -3.290  -1.191 135.946  0.00  0.00    +0.000 OA
ATOM     45  N   UNL     1      -4.986   0.351 135.788  0.00  0.00    +0.000 N 
ATOM     46  H   UNL     1      -5.734   0.870 136.228  0.00  0.00    +0.000 HD
BRANCH  45  47
ATOM     47  C   UNL     1      -4.642   0.723 134.438  0.00  0.00    +0.000 C 
BRANCH  47  48
ATOM     48  N   UNL     1      -3.358   1.393 134.445  0.00  0.00    +0.000 NA
ATOM     49  H   UNL     1      -2.736   0.975 135.132  0.00  0.00    +0.000 HD
ATOM     50  H   UNL     1      -3.501   2.350 134.787  0.00  0.00    +0.000 HD
ENDBRANCH  47  48
ENDBRANCH  45  47
ENDBRANCH  42  43
BRANCH  42  51
ATOM     51  C   UNL     1      -5.222  -2.381 138.024  0.00  0.00    +0.000 C 
BRANCH  51  52
ATOM     52  C   UNL     1      -6.587  -2.497 137.328  0.00  0.00    +0.000 C 
BRANCH  52  53
ATOM     53  C   UNL     1      -6.730  -3.487 136.186  0.00  0.00    +0.000 C 
BRANCH  53  54
ATOM     54  N   UNL     1      -7.211  -2.816 134.834  0.00  0.00    +0.000 N 
ATOM     55  C   UNL     1      -6.319  -2.617 133.685  0.00  0.00    +0.000 C 
ATOM     56  O   UNL     1      -5.222  -3.178 133.928  0.00  0.00    +0.000 OA
ATOM     57  H   UNL     1      -8.179  -2.541 134.869  0.00  0.00    +0.000 HD
BRANCH  55  58
ATOM     58  C   UNL     1      -6.349  -1.737 132.080  0.00  0.00    +0.000 A 
ATOM     59  C   UNL     1      -7.308  -2.342 131.406  0.00  0.00    +0.000 A 
ATOM     60  C   UNL     1      -8.001  -1.582 130.417  0.00  0.00    +0.000 A 
ATOM     61  C   UNL     1      -7.261  -1.759 129.331  0.00  0.00    +0.000 A 
ATOM     62  C   UNL     1      -6.608  -0.650 128.997  0.00  0.00    +0.000 A 
ATOM     63  C   UNL     1      -6.089  -0.662 130.908  0.00  0.00    +0.000 A 
ATOM     64  C   UNL     1      -7.330  -1.102 127.309  0.00  0.00    +0.000 C 
ATOM     65  O   UNL     1      -8.363  -2.109 127.553  0.00  0.00    +0.000 OA
ATOM     66  C   UNL     1      -7.727  -2.815 128.494  0.00  0.00    +0.000 C 
ATOM     67  O   UNL     1      -7.755  -3.965 128.901  0.00  0.00    +0.000 OA
ATOM     68  C   UNL     1      -7.839   0.258 126.240  0.00  0.00    +0.000 A 
ATOM     69  C   UNL     1      -9.053   1.004 126.175  0.00  0.00    +0.000 A 
ATOM     70  C   UNL     1      -9.253   2.133 125.250  0.00  0.00    +0.000 A 
ATOM     71  C   UNL     1      -8.297   2.477 124.294  0.00  0.00    +0.000 A 
ATOM     72  C   UNL     1      -7.189   1.660 124.183  0.00  0.00    +0.000 A 
ATOM     73  C   UNL     1      -6.980   0.587 125.122  0.00  0.00    +0.000 A 
ATOM     74  O   UNL     1      -5.815  -0.125 124.878  0.00  0.00    +0.000 OA
ATOM     75  C   UNL     1      -5.922  -1.482 124.985  0.00  0.00    +0.000 A 
ATOM     76  C   UNL     1      -4.928  -2.278 124.342  0.00  0.00    +0.000 A 
ATOM     77  C   UNL     1      -5.067  -3.621 123.993  0.00  0.00    +0.000 A 
ATOM     78  C   UNL     1      -6.350  -4.095 123.972  0.00  0.00    +0.000 A 
ATOM     79  C   UNL     1      -7.351  -3.307 124.739  0.00  0.00    +0.000 A 
ATOM     80  C   UNL     1      -6.911  -2.100 125.681  0.00  0.00    +0.000 A 
BRANCH  71  81
ATOM     81  O   UNL     1      -8.356   3.572 123.474  0.00  0.00    +0.000 OA
ATOM     82  H   UNL     1      -9.237   3.984 123.463  0.00  0.00    +0.000 HD
ENDBRANCH  71  81
BRANCH  77  83
ATOM     83  O   UNL     1      -4.007  -4.436 123.710  0.00  0.00    +0.000 OA
ATOM     84  H   UNL     1      -3.191  -4.132 124.151  0.00  0.00    +0.000 HD
ENDBRANCH  77  83
ENDBRANCH  55  58
ENDBRANCH  53  54
ENDBRANCH  52  53
ENDBRANCH  51  52
ENDBRANCH  42  51
ENDBRANCH  40  42
ENDBRANCH  37  38
ENDBRANCH  14  31
BRANCH   5  85
ATOM     85  C   UNL     1      -3.674   7.607 135.830  0.00  0.00    +0.000 A 
ATOM     86  C   UNL     1      -2.763   7.086 134.936  0.00  0.00    +0.000 A 
ATOM     87  C   UNL     1      -2.986   5.844 134.312  0.00  0.00    +0.000 A 
ATOM     88  C   UNL     1      -4.203   5.193 134.410  0.00  0.00    +0.000 A 
ATOM     89  C   UNL     1      -5.178   5.711 135.226  0.00  0.00    +0.000 A 
ATOM     90  C   UNL     1      -4.894   6.857 135.989  0.00  0.00    +0.000 A 
BRANCH  88  91
ATOM     91  O   UNL     1      -4.477   4.032 133.762  0.00  0.00    +0.000 OA
ATOM     92  H   UNL     1      -4.656   3.310 134.386  0.00  0.00    +0.000 HD
ENDBRANCH  88  91
ENDBRANCH   5  85
BRANCH   1  93
ATOM     93  C   UNL     1      -9.105  10.663 139.084  0.00  0.00    +0.000 C 
ATOM     94  C   UNL     1      -9.984   9.824 138.233  0.00  0.00    +0.000 C 
BRANCH  93  96
ATOM     95  C   UNL     1     -10.115  11.948 140.815  0.00  0.00    +0.000 C 
ATOM     96  C   UNL     1      -9.754  10.538 140.594  0.00  0.00    +0.000 C 
ENDBRANCH  93  96
ENDBRANCH   1  93
BRANCH  18  97
ATOM     97  C   UNL     1      -4.218   4.880 139.148  0.00  0.00    +0.000 C 
BRANCH  97  98
ATOM     98  C   UNL     1      -4.439   3.796 137.488  0.00  0.00    +0.000 C 
ATOM     99  N   UNL     1      -2.991   2.807 137.018  0.00  0.00    +0.000 N 
ATOM    100  O   UNL     1      -5.513   3.501 136.988  0.00  0.00    +0.000 OA
ATOM    101  H   UNL     1      -2.133   3.190 137.632  0.00  0.00    +0.000 HD
ATOM    102  H   UNL     1      -2.433   2.119 136.536  0.00  0.00    +0.000 HD
ENDBRANCH  97  98
ENDBRANCH  18  97
BRANCH  22 103
ATOM    103  C   UNL     1      -4.708   8.764 141.378  0.00  0.00    +0.000 C 
BRANCH 103 104
ATOM    104  C   UNL     1      -4.203   9.997 142.024  0.00  0.00    +0.000 C 
BRANCH 104 105
ATOM    105  C   UNL     1      -2.842  10.167 142.613  0.00  0.00    +0.000 C 
ATOM    106  N   UNL     1      -2.052   9.096 142.455  0.00  0.00    +0.000 N 
ATOM    107  O   UNL     1      -2.446  11.113 143.285  0.00  0.00    +0.000 OA
ATOM    108  H   UNL     1      -2.488   8.197 142.258  0.00  0.00    +0.000 HD
ATOM    109  H   UNL     1      -1.204   9.108 142.997  0.00  0.00    +0.000 HD
ENDBRANCH 104 105
ENDBRANCH 103 104
ENDBRANCH  22 103
TORSDOF 22
ENDMDL
MODEL 3
REMARK VINA RESULT:      -8.8      3.513     11.253
REMARK  Name = CHEMBL1790721
REMARK  24 active torsions:
REMARK  status: ('A' for Active; 'I' for Inactive)
REMARK    1  A    between atoms: C_1  and  C_2
REMARK    2  A    between atoms: C_2  and  C_3
REMARK    3  A    between atoms: C_3  and  C_4
REMARK    4  A    between atoms: C_3  and  C_5
REMARK    5  A    between atoms: C_9  and  C_10
REMARK    6  A    between atoms: C_13  and  O_14
REMARK    7  A    between atoms: C_25  and  C_26
REMARK    8  A    between atoms: C_32  and  C_33
REMARK    9  A    between atoms: N_35  and  C_36
REMARK   10  A    between atoms: C_36  and  C_37
REMARK   11  A    between atoms: C_36  and  C_68
REMARK   12  A    between atoms: C_37  and  C_38
REMARK   13  A    between atoms: C_38  and  C_39
REMARK   14  A    between atoms: C_39  and  N_40
REMARK   15  A    between atoms: C_41  and  C_43
REMARK   16  A    between atoms: C_56  and  O_57
REMARK   17  A    between atoms: C_63  and  O_64
REMARK   18  A    between atoms: N_70  and  C_71
REMARK   19  A    between atoms: C_71  and  N_72
REMARK   20  A    between atoms: C_76  and  C_77
REMARK   21  A    between atoms: C_77  and  C_78
REMARK   22  A    between atoms: C_84  and  C_85
REMARK   23  A    between atoms: C_85  and  C_86
REMARK   24  A    between atoms: C_86  and  C_87
REMARK                            x       y       z     vdW  Elec       q    Type
REMARK                         _______ _______ _______ _____ _____    ______ ____
ROOT
ATOM      1  C   UNL     1      -7.298   9.812 138.523  0.00  0.00    +0.000 C 
ATOM      2  N   UNL     1      -5.334   9.773 138.365  0.00  0.00    +0.000 N 
ATOM      3  C   UNL     1      -3.878   9.354 137.849  0.00  0.00    +0.000 C 
ATOM      4  O   UNL     1      -2.912   9.562 138.650  0.00  0.00    +0.000 OA
ATOM      5  C   UNL     1      -3.390   8.970 136.249  0.00  0.00    +0.000 C 
ATOM      6  N   UNL     1      -2.028   9.506 135.658  0.00  0.00    +0.000 N 
ATOM      7  C   UNL     1      -0.709   9.040 135.653  0.00  0.00    +0.000 C 
ATOM      8  O   UNL     1       0.121   9.523 134.869  0.00  0.00    +0.000 OA
ATOM      9  C   UNL     1      -0.214   7.916 136.532  0.00  0.00    +0.000 C 
ATOM     10  C   UNL     1      -1.273   7.283 137.303  0.00  0.00    +0.000 C 
ATOM     11  S   UNL     1      -0.615   6.342 138.553  0.00  0.00    +0.000 S 
ATOM     12  S   UNL     1      -2.600   6.554 139.845  0.00  0.00    +0.000 S 
ATOM     13  C   UNL     1      -2.952   4.441 141.137  0.00  0.00    +0.000 C 
ATOM     14  C   UNL     1      -4.125   3.662 141.537  0.00  0.00    +0.000 C 
ATOM     15  N   UNL     1      -4.887   4.644 142.097  0.00  0.00    +0.000 N 
ATOM     16  C   UNL     1      -5.589   5.450 141.259  0.00  0.00    +0.000 C 
ATOM     17  O   UNL     1      -6.565   6.005 141.781  0.00  0.00    +0.000 OA
ATOM     18  C   UNL     1      -4.975   5.917 139.816  0.00  0.00    +0.000 C 
ATOM     19  N   UNL     1      -6.099   6.419 139.158  0.00  0.00    +0.000 N 
ATOM     20  C   UNL     1      -6.759   7.528 139.582  0.00  0.00    +0.000 C 
ATOM     21  O   UNL     1      -7.885   7.514 139.055  0.00  0.00    +0.000 OA
ATOM     22  C   UNL     1      -6.161   8.819 140.721  0.00  0.00    +0.000 C 
ATOM     23  N   UNL     1      -6.200  10.344 140.482  0.00  0.00    +0.000 N 
ATOM     24  C   UNL     1      -6.807  10.915 139.377  0.00  0.00    +0.000 C 
ATOM     25  O   UNL     1      -6.594  12.048 138.961  0.00  0.00    +0.000 OA
ATOM     26  H   UNL     1      -4.714  10.383 138.961  0.00  0.00    +0.000 HD
ATOM     27  H   UNL     1      -2.160  10.148 134.879  0.00  0.00    +0.000 HD
ATOM     28  H   UNL     1      -4.654   4.902 143.059  0.00  0.00    +0.000 HD
ATOM     29  H   UNL     1      -6.583   5.812 138.523  0.00  0.00    +0.000 HD
ATOM     30  H   UNL     1      -5.271  10.615 140.264  0.00  0.00    +0.000 HD
ENDROOT
BRANCH  14  31
ATOM     31  C   UNL     1      -4.976   2.840 140.561  0.00  0.00    +0.000 C 
ATOM     32  O   UNL     1      -4.835   2.789 139.334  0.00  0.00    +0.000 OA
ATOM     33  N   UNL     1      -5.965   2.140 141.174  0.00  0.00    +0.000 N 
ATOM     34  C   UNL     1      -6.654   2.260 142.459  0.00  0.00    +0.000 C 
ATOM     35  C   UNL     1      -6.650   0.850 142.906  0.00  0.00    +0.000 C 
ATOM     36  C   UNL     1      -6.992   0.133 141.614  0.00  0.00    +0.000 C 
ATOM     37  C   UNL     1      -6.361   0.964 140.511  0.00  0.00    +0.000 C 
BRANCH  37  38
ATOM     38  C   UNL     1      -5.233   0.145 139.895  0.00  0.00    +0.000 C 
ATOM     39  O   UNL     1      -4.326  -0.106 140.693  0.00  0.00    +0.000 OA
ATOM     40  N   UNL     1      -5.185  -0.193 138.541  0.00  0.00    +0.000 N 
ATOM     41  H   UNL     1      -5.840   0.181 137.860  0.00  0.00    +0.000 HD
BRANCH  40  42
ATOM     42  C   UNL     1      -4.146  -1.117 137.978  0.00  0.00    +0.000 C 
BRANCH  42  43
ATOM     43  C   UNL     1      -3.850  -0.819 136.452  0.00  0.00    +0.000 C 
ATOM     44  O   UNL     1      -4.156   0.276 135.970  0.00  0.00    +0.000 OA
ATOM     45  N   UNL     1      -3.226  -1.806 135.685  0.00  0.00    +0.000 N 
ATOM     46  H   UNL     1      -3.012  -2.721 136.056  0.00  0.00    +0.000 HD
BRANCH  45  47
ATOM     47  C   UNL     1      -2.963  -1.594 134.283  0.00  0.00    +0.000 C 
BRANCH  47  48
ATOM     48  N   UNL     1      -1.902  -0.619 134.143  0.00  0.00    +0.000 NA
ATOM     49  H   UNL     1      -1.321  -0.829 133.336  0.00  0.00    +0.000 HD
ATOM     50  H   UNL     1      -1.267  -0.724 134.942  0.00  0.00    +0.000 HD
ENDBRANCH  47  48
ENDBRANCH  45  47
ENDBRANCH  42  43
BRANCH  42  51
ATOM     51  C   UNL     1      -4.567  -2.598 138.137  0.00  0.00    +0.000 C 
BRANCH  51  52
ATOM     52  C   UNL     1      -6.082  -2.774 138.316  0.00  0.00    +0.000 C 
BRANCH  52  53
ATOM     53  C   UNL     1      -6.841  -3.578 137.275  0.00  0.00    +0.000 C 
BRANCH  53  54
ATOM     54  N   UNL     1      -7.465  -2.683 136.127  0.00  0.00    +0.000 N 
ATOM     55  C   UNL     1      -6.831  -2.521 134.812  0.00  0.00    +0.000 C 
ATOM     56  O   UNL     1      -5.846  -3.296 134.746  0.00  0.00    +0.000 OA
ATOM     57  H   UNL     1      -8.324  -2.242 136.413  0.00  0.00    +0.000 HD
BRANCH  55  58
ATOM     58  C   UNL     1      -7.040  -1.475 133.325  0.00  0.00    +0.000 A 
ATOM     59  C   UNL     1      -6.439  -0.345 133.647  0.00  0.00    +0.000 A 
ATOM     60  C   UNL     1      -5.887   0.435 132.587  0.00  0.00    +0.000 A 
ATOM     61  C   UNL     1      -6.906   1.197 132.214  0.00  0.00    +0.000 A 
ATOM     62  C   UNL     1      -7.377   0.838 131.025  0.00  0.00    +0.000 A 
ATOM     63  C   UNL     1      -7.367  -0.971 131.830  0.00  0.00    +0.000 A 
ATOM     64  C   UNL     1      -7.233   2.703 130.749  0.00  0.00    +0.000 C 
ATOM     65  O   UNL     1      -6.407   3.224 131.837  0.00  0.00    +0.000 OA
ATOM     66  C   UNL     1      -6.907   2.482 132.832  0.00  0.00    +0.000 C 
ATOM     67  O   UNL     1      -7.013   2.591 134.043  0.00  0.00    +0.000 OA
ATOM     68  C   UNL     1      -6.751   3.257 129.101  0.00  0.00    +0.000 A 
ATOM     69  C   UNL     1      -5.469   3.416 128.498  0.00  0.00    +0.000 A 
ATOM     70  C   UNL     1      -5.287   3.836 127.098  0.00  0.00    +0.000 A 
ATOM     71  C   UNL     1      -6.367   4.213 126.299  0.00  0.00    +0.000 A 
ATOM     72  C   UNL     1      -7.610   4.267 126.897  0.00  0.00    +0.000 A 
ATOM     73  C   UNL     1      -7.785   3.810 128.253  0.00  0.00    +0.000 A 
ATOM     74  O   UNL     1      -9.095   3.919 128.695  0.00  0.00    +0.000 OA
ATOM     75  C   UNL     1      -9.249   4.392 129.965  0.00  0.00    +0.000 A 
ATOM     76  C   UNL     1     -10.520   4.933 130.322  0.00  0.00    +0.000 A 
ATOM     77  C   UNL     1     -10.761   5.804 131.384  0.00  0.00    +0.000 A 
ATOM     78  C   UNL     1      -9.657   6.426 131.899  0.00  0.00    +0.000 A 
ATOM     79  C   UNL     1      -8.349   5.784 131.604  0.00  0.00    +0.000 A 
ATOM     80  C   UNL     1      -8.264   4.358 130.899  0.00  0.00    +0.000 A 
BRANCH  71  81
ATOM     81  O   UNL     1      -6.298   4.509 124.963  0.00  0.00    +0.000 OA
ATOM     82  H   UNL     1      -7.169   4.693 124.575  0.00  0.00    +0.000 HD
ENDBRANCH  71  81
BRANCH  77  83
ATOM     83  O   UNL     1     -12.004   6.021 131.909  0.00  0.00    +0.000 OA
ATOM     84  H   UNL     1     -12.278   5.291 132.498  0.00  0.00    +0.000 HD
ENDBRANCH  77  83
ENDBRANCH  55  58
ENDBRANCH  53  54
ENDBRANCH  52  53
ENDBRANCH  51  52
ENDBRANCH  42  51
ENDBRANCH  40  42
ENDBRANCH  37  38
ENDBRANCH  14  31
BRANCH   5  85
ATOM     85  C   UNL     1      -3.541   7.511 135.761  0.00  0.00    +0.000 A 
ATOM     86  C   UNL     1      -2.604   7.030 134.872  0.00  0.00    +0.000 A 
ATOM     87  C   UNL     1      -2.757   5.768 134.267  0.00  0.00    +0.000 A 
ATOM     88  C   UNL     1      -3.935   5.050 134.379  0.00  0.00    +0.000 A 
ATOM     89  C   UNL     1      -4.936   5.524 135.190  0.00  0.00    +0.000 A 
ATOM     90  C   UNL     1      -4.716   6.696 135.935  0.00  0.00    +0.000 A 
BRANCH  88  91
ATOM     91  O   UNL     1      -4.143   3.866 133.749  0.00  0.00    +0.000 OA
ATOM     92  H   UNL     1      -4.786   3.317 134.226  0.00  0.00    +0.000 HD
ENDBRANCH  88  91
ENDBRANCH   5  85
BRANCH   1  93
ATOM     93  C   UNL     1      -9.170  10.341 138.879  0.00  0.00    +0.000 C 
ATOM     94  C   UNL     1      -9.992   9.446 138.028  0.00  0.00    +0.000 C 
BRANCH  93  96
ATOM     95  C   UNL     1     -10.056  11.633 140.672  0.00  0.00    +0.000 C 
ATOM     96  C   UNL     1      -9.837  10.207 140.381  0.00  0.00    +0.000 C 
ENDBRANCH  93  96
ENDBRANCH   1  93
BRANCH  18  97
ATOM     97  C   UNL     1      -3.998   4.817 139.118  0.00  0.00    +0.000 C 
BRANCH  97  98
ATOM     98  C   UNL     1      -4.188   3.606 137.544  0.00  0.00    +0.000 C 
ATOM     99  N   UNL     1      -2.822   2.434 137.308  0.00  0.00    +0.000 N 
ATOM    100  O   UNL     1      -5.240   3.374 136.968  0.00  0.00    +0.000 OA
ATOM    101  H   UNL     1      -1.985   2.786 137.968  0.00  0.00    +0.000 HD
ATOM    102  H   UNL     1      -2.303   1.650 136.944  0.00  0.00    +0.000 HD
ENDBRANCH  97  98
ENDBRANCH  18  97
BRANCH  22 103
ATOM    103  C   UNL     1      -4.720   8.708 141.272  0.00  0.00    +0.000 C 
BRANCH 103 104
ATOM    104  C   UNL     1      -4.697   8.851 142.746  0.00  0.00    +0.000 C 
BRANCH 104 105
ATOM    105  C   UNL     1      -5.901   8.975 143.620  0.00  0.00    +0.000 C 
ATOM    106  N   UNL     1      -6.280   7.816 144.176  0.00  0.00    +0.000 N 
ATOM    107  O   UNL     1      -6.595   9.973 143.776  0.00  0.00    +0.000 OA
ATOM    108  H   UNL     1      -5.962   6.947 143.752  0.00  0.00    +0.000 HD
ATOM    109  H   UNL     1      -7.186   7.830 144.615  0.00  0.00    +0.000 HD
ENDBRANCH 104 105
ENDBRANCH 103 104
ENDBRANCH  22 103
TORSDOF 22
ENDMDL
MODEL 4
REMARK VINA RESULT:      -8.7      1.170      2.397
REMARK  Name = CHEMBL1790721
REMARK  24 active torsions:
REMARK  status: ('A' for Active; 'I' for Inactive)
REMARK    1  A    between atoms: C_1  and  C_2
REMARK    2  A    between atoms: C_2  and  C_3
REMARK    3  A    between atoms: C_3  and  C_4
REMARK    4  A    between atoms: C_3  and  C_5
REMARK    5  A    between atoms: C_9  and  C_10
REMARK    6  A    between atoms: C_13  and  O_14
REMARK    7  A    between atoms: C_25  and  C_26
REMARK    8  A    between atoms: C_32  and  C_33
REMARK    9  A    between atoms: N_35  and  C_36
REMARK   10  A    between atoms: C_36  and  C_37
REMARK   11  A    between atoms: C_36  and  C_68
REMARK   12  A    between atoms: C_37  and  C_38
REMARK   13  A    between atoms: C_38  and  C_39
REMARK   14  A    between atoms: C_39  and  N_40
REMARK   15  A    between atoms: C_41  and  C_43
REMARK   16  A    between atoms: C_56  and  O_57
REMARK   17  A    between atoms: C_63  and  O_64
REMARK   18  A    between atoms: N_70  and  C_71
REMARK   19  A    between atoms: C_71  and  N_72
REMARK   20  A    between atoms: C_76  and  C_77
REMARK   21  A    between atoms: C_77  and  C_78
REMARK   22  A    between atoms: C_84  and  C_85
REMARK   23  A    between atoms: C_85  and  C_86
REMARK   24  A    between atoms: C_86  and  C_87
REMARK                            x       y       z     vdW  Elec       q    Type
REMARK                         _______ _______ _______ _____ _____    ______ ____
ROOT
ATOM      1  C   UNL     1      -4.745   4.081 127.670  0.00  0.00    +0.000 C 
ATOM      2  N   UNL     1      -6.534   4.236 128.481  0.00  0.00    +0.000 N 
ATOM      3  C   UNL     1      -7.664   4.411 129.601  0.00  0.00    +0.000 C 
ATOM      4  O   UNL     1      -8.817   3.953 129.319  0.00  0.00    +0.000 OA
ATOM      5  C   UNL     1      -7.632   5.417 130.992  0.00  0.00    +0.000 C 
ATOM      6  N   UNL     1      -8.899   6.254 131.424  0.00  0.00    +0.000 N 
ATOM      7  C   UNL     1     -10.014   6.001 132.231  0.00  0.00    +0.000 C 
ATOM      8  O   UNL     1     -10.721   6.936 132.631  0.00  0.00    +0.000 OA
ATOM      9  C   UNL     1     -10.405   4.623 132.711  0.00  0.00    +0.000 C 
ATOM     10  C   UNL     1      -9.443   3.594 132.348  0.00  0.00    +0.000 C 
ATOM     11  S   UNL     1     -10.124   2.051 132.533  0.00  0.00    +0.000 S 
ATOM     12  S   UNL     1      -8.636   1.130 130.923  0.00  0.00    +0.000 S 
ATOM     13  C   UNL     1      -8.086  -1.220 131.584  0.00  0.00    +0.000 C 
ATOM     14  C   UNL     1      -6.887  -2.057 131.505  0.00  0.00    +0.000 C 
ATOM     15  N   UNL     1      -6.561  -1.888 130.193  0.00  0.00    +0.000 N 
ATOM     16  C   UNL     1      -5.904  -0.751 129.849  0.00  0.00    +0.000 C 
ATOM     17  O   UNL     1      -5.259  -0.830 128.795  0.00  0.00    +0.000 OA
ATOM     18  C   UNL     1      -6.244   0.679 130.570  0.00  0.00    +0.000 C 
ATOM     19  N   UNL     1      -5.160   1.473 130.195  0.00  0.00    +0.000 N 
ATOM     20  C   UNL     1      -4.927   1.830 128.905  0.00  0.00    +0.000 C 
ATOM     21  O   UNL     1      -3.742   2.194 128.828  0.00  0.00    +0.000 OA
ATOM     22  C   UNL     1      -6.094   1.786 127.505  0.00  0.00    +0.000 C 
ATOM     23  N   UNL     1      -6.386   2.938 126.519  0.00  0.00    +0.000 N 
ATOM     24  C   UNL     1      -5.694   4.136 126.536  0.00  0.00    +0.000 C 
ATOM     25  O   UNL     1      -6.079   5.183 126.029  0.00  0.00    +0.000 OA
ATOM     26  H   UNL     1      -7.415   4.181 127.904  0.00  0.00    +0.000 HD
ATOM     27  H   UNL     1      -8.748   7.259 131.367  0.00  0.00    +0.000 HD
ATOM     28  H   UNL     1      -7.080  -2.461 129.522  0.00  0.00    +0.000 HD
ATOM     29  H   UNL     1      -4.398   1.563 130.840  0.00  0.00    +0.000 HD
ATOM     30  H   UNL     1      -7.272   3.306 126.775  0.00  0.00    +0.000 HD
ENDROOT
BRANCH  14  31
ATOM     31  C   UNL     1      -5.644  -1.849 132.379  0.00  0.00    +0.000 C 
ATOM     32  O   UNL     1      -5.508  -1.000 133.267  0.00  0.00    +0.000 OA
ATOM     33  N   UNL     1      -4.634  -2.708 132.081  0.00  0.00    +0.000 N 
ATOM     34  C   UNL     1      -4.294  -3.517 130.911  0.00  0.00    +0.000 C 
ATOM     35  C   UNL     1      -3.953  -4.804 131.556  0.00  0.00    +0.000 C 
ATOM     36  C   UNL     1      -3.150  -4.329 132.751  0.00  0.00    +0.000 C 
ATOM     37  C   UNL     1      -3.767  -3.001 133.151  0.00  0.00    +0.000 C 
BRANCH  37  38
ATOM     38  C   UNL     1      -4.437  -3.185 134.508  0.00  0.00    +0.000 C 
ATOM     39  O   UNL     1      -5.216  -4.141 134.537  0.00  0.00    +0.000 OA
ATOM     40  N   UNL     1      -4.263  -2.298 135.573  0.00  0.00    +0.000 N 
ATOM     41  H   UNL     1      -3.771  -1.415 135.474  0.00  0.00    +0.000 HD
BRANCH  40  42
ATOM     42  C   UNL     1      -4.812  -2.567 136.942  0.00  0.00    +0.000 C 
BRANCH  42  43
ATOM     43  C   UNL     1      -6.389  -2.446 136.985  0.00  0.00    +0.000 C 
ATOM     44  O   UNL     1      -6.916  -1.335 137.112  0.00  0.00    +0.000 OA
ATOM     45  N   UNL     1      -7.155  -3.607 136.858  0.00  0.00    +0.000 N 
ATOM     46  H   UNL     1      -6.735  -4.525 136.800  0.00  0.00    +0.000 HD
BRANCH  45  47
ATOM     47  C   UNL     1      -8.595  -3.552 136.923  0.00  0.00    +0.000 C 
BRANCH  47  48
ATOM     48  N   UNL     1      -9.110  -3.138 135.634  0.00  0.00    +0.000 NA
ATOM     49  H   UNL     1      -8.577  -3.562 134.879  0.00  0.00    +0.000 HD
ATOM     50  H   UNL     1      -8.933  -2.132 135.531  0.00  0.00    +0.000 HD
ENDBRANCH  47  48
ENDBRANCH  45  47
ENDBRANCH  42  43
BRANCH  42  51
ATOM     51  C   UNL     1      -4.198  -1.609 137.991  0.00  0.00    +0.000 C 
BRANCH  51  52
ATOM     52  C   UNL     1      -4.386  -2.100 139.434  0.00  0.00    +0.000 C 
BRANCH  52  53
ATOM     53  C   UNL     1      -4.678  -1.072 140.512  0.00  0.00    +0.000 C 
BRANCH  53  54
ATOM     54  N   UNL     1      -4.995   0.368 139.931  0.00  0.00    +0.000 N 
ATOM     55  C   UNL     1      -4.023   1.469 139.959  0.00  0.00    +0.000 C 
ATOM     56  O   UNL     1      -2.926   1.022 140.375  0.00  0.00    +0.000 OA
ATOM     57  H   UNL     1      -5.929   0.431 139.560  0.00  0.00    +0.000 HD
BRANCH  55  58
ATOM     58  C   UNL     1      -4.003   3.270 139.634  0.00  0.00    +0.000 A 
ATOM     59  C   UNL     1      -4.842   3.761 140.527  0.00  0.00    +0.000 A 
ATOM     60  C   UNL     1      -4.629   5.101 140.965  0.00  0.00    +0.000 A 
ATOM     61  C   UNL     1      -5.306   5.818 140.079  0.00  0.00    +0.000 A 
ATOM     62  C   UNL     1      -4.495   6.491 139.270  0.00  0.00    +0.000 A 
ATOM     63  C   UNL     1      -3.611   4.730 139.077  0.00  0.00    +0.000 A 
ATOM     64  C   UNL     1      -5.680   7.885 139.747  0.00  0.00    +0.000 C 
ATOM     65  O   UNL     1      -6.439   7.410 140.903  0.00  0.00    +0.000 OA
ATOM     66  C   UNL     1      -6.626   6.147 140.506  0.00  0.00    +0.000 C 
ATOM     67  O   UNL     1      -7.448   5.270 140.719  0.00  0.00    +0.000 OA
ATOM     68  C   UNL     1      -4.978   9.537 139.930  0.00  0.00    +0.000 A 
ATOM     69  C   UNL     1      -4.334  10.171 141.034  0.00  0.00    +0.000 A 
ATOM     70  C   UNL     1      -3.773  11.531 140.962  0.00  0.00    +0.000 A 
ATOM     71  C   UNL     1      -3.933  12.332 139.831  0.00  0.00    +0.000 A 
ATOM     72  C   UNL     1      -4.720  11.838 138.810  0.00  0.00    +0.000 A 
ATOM     73  C   UNL     1      -5.226  10.490 138.869  0.00  0.00    +0.000 A 
ATOM     74  O   UNL     1      -5.984  10.148 137.760  0.00  0.00    +0.000 OA
ATOM     75  C   UNL     1      -7.128   9.452 138.021  0.00  0.00    +0.000 A 
ATOM     76  C   UNL     1      -8.146   9.450 137.022  0.00  0.00    +0.000 A 
ATOM     77  C   UNL     1      -9.493   9.161 137.238  0.00  0.00    +0.000 A 
ATOM     78  C   UNL     1      -9.905   9.209 138.542  0.00  0.00    +0.000 A 
ATOM     79  C   UNL     1      -8.836   9.101 139.569  0.00  0.00    +0.000 A 
ATOM     80  C   UNL     1      -7.333   8.756 139.169  0.00  0.00    +0.000 A 
BRANCH  71  81
ATOM     81  O   UNL     1      -3.352  13.558 139.642  0.00  0.00    +0.000 OA
ATOM     82  H   UNL     1      -3.742  14.045 138.897  0.00  0.00    +0.000 HD
ENDBRANCH  71  81
BRANCH  77  83
ATOM     83  O   UNL     1     -10.360   8.826 136.235  0.00  0.00    +0.000 OA
ATOM     84  H   UNL     1     -10.193   7.923 135.903  0.00  0.00    +0.000 HD
ENDBRANCH  77  83
ENDBRANCH  55  58
ENDBRANCH  53  54
ENDBRANCH  52  53
ENDBRANCH  51  52
ENDBRANCH  42  51
ENDBRANCH  40  42
ENDBRANCH  37  38
ENDBRANCH  14  31
BRANCH   5  85
ATOM     85  C   UNL     1      -7.001   4.864 132.289  0.00  0.00    +0.000 A 
ATOM     86  C   UNL     1      -7.550   5.259 133.490  0.00  0.00    +0.000 A 
ATOM     87  C   UNL     1      -6.940   4.921 134.713  0.00  0.00    +0.000 A 
ATOM     88  C   UNL     1      -5.676   4.359 134.761  0.00  0.00    +0.000 A 
ATOM     89  C   UNL     1      -5.047   4.019 133.589  0.00  0.00    +0.000 A 
ATOM     90  C   UNL     1      -5.729   4.193 132.372  0.00  0.00    +0.000 A 
BRANCH  88  91
ATOM     91  O   UNL     1      -5.029   4.089 135.923  0.00  0.00    +0.000 OA
ATOM     92  H   UNL     1      -5.650   3.848 136.629  0.00  0.00    +0.000 HD
ENDBRANCH  88  91
ENDBRANCH   5  85
BRANCH   1  93
ATOM     93  C   UNL     1      -3.214   4.087 126.417  0.00  0.00    +0.000 C 
ATOM     94  C   UNL     1      -2.138   4.819 127.128  0.00  0.00    +0.000 C 
BRANCH  93  96
ATOM     95  C   UNL     1      -1.218   2.807 126.631  0.00  0.00    +0.000 C 
ATOM     96  C   UNL     1      -2.500   2.688 125.917  0.00  0.00    +0.000 C 
ENDBRANCH  93  96
ENDBRANCH   1  93
BRANCH  18  97
ATOM     97  C   UNL     1      -6.709   0.548 132.126  0.00  0.00    +0.000 C 
BRANCH  97  98
ATOM     98  C   UNL     1      -5.823   0.950 133.867  0.00  0.00    +0.000 C 
ATOM     99  N   UNL     1      -4.031   1.222 133.773  0.00  0.00    +0.000 N 
ATOM    100  O   UNL     1      -6.403   1.340 134.869  0.00  0.00    +0.000 OA
ATOM    101  H   UNL     1      -3.708   0.861 132.760  0.00  0.00    +0.000 HD
ATOM    102  H   UNL     1      -3.099   1.484 134.056  0.00  0.00    +0.000 HD
ENDBRANCH  97  98
ENDBRANCH  18  97
BRANCH  22 103
ATOM    103  C   UNL     1      -7.549   1.333 127.769  0.00  0.00    +0.000 C 
BRANCH 103 104
ATOM    104  C   UNL     1      -8.191   0.841 126.529  0.00  0.00    +0.000 C 
BRANCH 104 105
ATOM    105  C   UNL     1      -8.569  -0.577 126.257  0.00  0.00    +0.000 C 
ATOM    106  N   UNL     1      -7.730  -1.469 126.801  0.00  0.00    +0.000 N 
ATOM    107  O   UNL     1      -9.474  -0.969 125.528  0.00  0.00    +0.000 OA
ATOM    108  H   UNL     1      -6.794  -1.161 127.059  0.00  0.00    +0.000 HD
ATOM    109  H   UNL     1      -7.849  -2.417 126.483  0.00  0.00    +0.000 HD
ENDBRANCH 104 105
ENDBRANCH 103 104
ENDBRANCH  22 103
TORSDOF 22
ENDMDL
MODEL 5
REMARK VINA RESULT:      -8.7      3.474     12.002
REMARK  Name = CHEMBL1790721
REMARK  24 active torsions:
REMARK  status: ('A' for Active; 'I' for Inactive)
REMARK    1  A    between atoms: C_1  and  C_2
REMARK    2  A    between atoms: C_2  and  C_3
REMARK    3  A    between atoms: C_3  and  C_4
REMARK    4  A    between atoms: C_3  and  C_5
REMARK    5  A    between atoms: C_9  and  C_10
REMARK    6  A    between atoms: C_13  and  O_14
REMARK    7  A    between atoms: C_25  and  C_26
REMARK    8  A    between atoms: C_32  and  C_33
REMARK    9  A    between atoms: N_35  and  C_36
REMARK   10  A    between atoms: C_36  and  C_37
REMARK   11  A    between atoms: C_36  and  C_68
REMARK   12  A    between atoms: C_37  and  C_38
REMARK   13  A    between atoms: C_38  and  C_39
REMARK   14  A    between atoms: C_39  and  N_40
REMARK   15  A    between atoms: C_41  and  C_43
REMARK   16  A    between atoms: C_56  and  O_57
REMARK   17  A    between atoms: C_63  and  O_64
REMARK   18  A    between atoms: N_70  and  C_71
REMARK   19  A    between atoms: C_71  and  N_72
REMARK   20  A    between atoms: C_76  and  C_77
REMARK   21  A    between atoms: C_77  and  C_78
REMARK   22  A    between atoms: C_84  and  C_85
REMARK   23  A    between atoms: C_85  and  C_86
REMARK   24  A    between atoms: C_86  and  C_87
REMARK                            x       y       z     vdW  Elec       q    Type
REMARK                         _______ _______ _______ _____ _____    ______ ____
ROOT
ATOM      1  C   UNL     1      -7.338   9.804 138.541  0.00  0.00    +0.000 C 
ATOM      2  N   UNL     1      -5.382   9.703 138.326  0.00  0.00    +0.000 N 
ATOM      3  C   UNL     1      -3.956   9.248 137.759  0.00  0.00    +0.000 C 
ATOM      4  O   UNL     1      -2.961   9.405 138.535  0.00  0.00    +0.000 OA
ATOM      5  C   UNL     1      -3.526   8.883 136.137  0.00  0.00    +0.000 C 
ATOM      6  N   UNL     1      -2.165   9.387 135.519  0.00  0.00    +0.000 N 
ATOM      7  C   UNL     1      -0.862   8.878 135.466  0.00  0.00    +0.000 C 
ATOM      8  O   UNL     1      -0.039   9.350 134.669  0.00  0.00    +0.000 OA
ATOM      9  C   UNL     1      -0.382   7.718 136.305  0.00  0.00    +0.000 C 
ATOM     10  C   UNL     1      -1.439   7.103 137.093  0.00  0.00    +0.000 C 
ATOM     11  S   UNL     1      -0.778   6.113 138.303  0.00  0.00    +0.000 S 
ATOM     12  S   UNL     1      -2.718   6.362 139.656  0.00  0.00    +0.000 S 
ATOM     13  C   UNL     1      -3.104   4.233 140.912  0.00  0.00    +0.000 C 
ATOM     14  C   UNL     1      -4.292   3.485 141.329  0.00  0.00    +0.000 C 
ATOM     15  N   UNL     1      -5.004   4.479 141.932  0.00  0.00    +0.000 N 
ATOM     16  C   UNL     1      -5.702   5.327 141.132  0.00  0.00    +0.000 C 
ATOM     17  O   UNL     1      -6.644   5.902 141.694  0.00  0.00    +0.000 OA
ATOM     18  C   UNL     1      -5.113   5.806 139.682  0.00  0.00    +0.000 C 
ATOM     19  N   UNL     1      -6.237   6.360 139.068  0.00  0.00    +0.000 N 
ATOM     20  C   UNL     1      -6.847   7.480 139.534  0.00  0.00    +0.000 C 
ATOM     21  O   UNL     1      -7.987   7.515 139.041  0.00  0.00    +0.000 OA
ATOM     22  C   UNL     1      -6.173   8.724 140.684  0.00  0.00    +0.000 C 
ATOM     23  N   UNL     1      -6.167  10.255 140.479  0.00  0.00    +0.000 N 
ATOM     24  C   UNL     1      -6.785  10.871 139.405  0.00  0.00    +0.000 C 
ATOM     25  O   UNL     1      -6.546  12.005 139.007  0.00  0.00    +0.000 OA
ATOM     26  H   UNL     1      -4.725  10.279 138.917  0.00  0.00    +0.000 HD
ATOM     27  H   UNL     1      -2.296  10.050 134.758  0.00  0.00    +0.000 HD
ATOM     28  H   UNL     1      -4.735   4.707 142.892  0.00  0.00    +0.000 HD
ATOM     29  H   UNL     1      -6.759   5.783 138.435  0.00  0.00    +0.000 HD
ATOM     30  H   UNL     1      -5.236  10.500 140.240  0.00  0.00    +0.000 HD
ENDROOT
BRANCH  14  31
ATOM     31  C   UNL     1      -5.198   2.715 140.360  0.00  0.00    +0.000 C 
ATOM     32  O   UNL     1      -5.178   2.788 139.126  0.00  0.00    +0.000 OA
ATOM     33  N   UNL     1      -6.088   1.906 140.991  0.00  0.00    +0.000 N 
ATOM     34  C   UNL     1      -6.650   1.864 142.341  0.00  0.00    +0.000 C 
ATOM     35  C   UNL     1      -6.536   0.420 142.642  0.00  0.00    +0.000 C 
ATOM     36  C   UNL     1      -6.972  -0.188 141.323  0.00  0.00    +0.000 C 
ATOM     37  C   UNL     1      -6.494   0.778 140.254  0.00  0.00    +0.000 C 
BRANCH  37  38
ATOM     38  C   UNL     1      -5.396   0.085 139.454  0.00  0.00    +0.000 C 
ATOM     39  O   UNL     1      -4.456  -0.299 140.156  0.00  0.00    +0.000 OA
ATOM     40  N   UNL     1      -5.408  -0.009 138.061  0.00  0.00    +0.000 N 
ATOM     41  H   UNL     1      -6.091   0.477 137.487  0.00  0.00    +0.000 HD
BRANCH  40  42
ATOM     42  C   UNL     1      -4.398  -0.814 137.299  0.00  0.00    +0.000 C 
BRANCH  42  43
ATOM     43  C   UNL     1      -4.161  -0.246 135.842  0.00  0.00    +0.000 C 
ATOM     44  O   UNL     1      -5.007   0.492 135.327  0.00  0.00    +0.000 OA
ATOM     45  N   UNL     1      -2.980  -0.581 135.175  0.00  0.00    +0.000 N 
ATOM     46  H   UNL     1      -2.303  -1.220 135.568  0.00  0.00    +0.000 HD
BRANCH  45  47
ATOM     47  C   UNL     1      -2.733  -0.114 133.833  0.00  0.00    +0.000 C 
BRANCH  47  48
ATOM     48  N   UNL     1      -2.729   1.334 133.831  0.00  0.00    +0.000 NA
ATOM     49  H   UNL     1      -3.624   1.699 134.147  0.00  0.00    +0.000 HD
ATOM     50  H   UNL     1      -2.660   1.650 132.857  0.00  0.00    +0.000 HD
ENDBRANCH  47  48
ENDBRANCH  45  47
ENDBRANCH  42  43
BRANCH  42  51
ATOM     51  C   UNL     1      -4.821  -2.300 137.206  0.00  0.00    +0.000 C 
BRANCH  51  52
ATOM     52  C   UNL     1      -6.306  -2.479 136.856  0.00  0.00    +0.000 C 
BRANCH  52  53
ATOM     53  C   UNL     1      -6.663  -2.957 135.459  0.00  0.00    +0.000 C 
BRANCH  53  54
ATOM     54  N   UNL     1      -6.464  -1.845 134.349  0.00  0.00    +0.000 N 
ATOM     55  C   UNL     1      -7.502  -1.508 133.366  0.00  0.00    +0.000 C 
ATOM     56  O   UNL     1      -8.549  -2.135 133.660  0.00  0.00    +0.000 OA
ATOM     57  H   UNL     1      -5.553  -1.418 134.397  0.00  0.00    +0.000 HD
BRANCH  55  58
ATOM     58  C   UNL     1      -7.651  -0.513 131.837  0.00  0.00    +0.000 A 
ATOM     59  C   UNL     1      -6.695  -0.986 131.058  0.00  0.00    +0.000 A 
ATOM     60  C   UNL     1      -6.888  -0.894 129.648  0.00  0.00    +0.000 A 
ATOM     61  C   UNL     1      -6.398   0.303 129.355  0.00  0.00    +0.000 A 
ATOM     62  C   UNL     1      -7.361   1.160 129.032  0.00  0.00    +0.000 A 
ATOM     63  C   UNL     1      -8.191   0.495 130.702  0.00  0.00    +0.000 A 
ATOM     64  C   UNL     1      -6.172   1.475 127.596  0.00  0.00    +0.000 C 
ATOM     65  O   UNL     1      -5.211   0.373 127.600  0.00  0.00    +0.000 OA
ATOM     66  C   UNL     1      -5.040   0.269 128.922  0.00  0.00    +0.000 C 
ATOM     67  O   UNL     1      -4.159  -0.127 129.667  0.00  0.00    +0.000 OA
ATOM     68  C   UNL     1      -6.902   1.836 125.986  0.00  0.00    +0.000 A 
ATOM     69  C   UNL     1      -7.377   0.977 124.952  0.00  0.00    +0.000 A 
ATOM     70  C   UNL     1      -7.999   1.478 123.714  0.00  0.00    +0.000 A 
ATOM     71  C   UNL     1      -8.064   2.841 123.426  0.00  0.00    +0.000 A 
ATOM     72  C   UNL     1      -7.438   3.705 124.302  0.00  0.00    +0.000 A 
ATOM     73  C   UNL     1      -6.874   3.211 125.533  0.00  0.00    +0.000 A 
ATOM     74  O   UNL     1      -6.298   4.209 126.303  0.00  0.00    +0.000 OA
ATOM     75  C   UNL     1      -5.099   3.895 126.872  0.00  0.00    +0.000 A 
ATOM     76  C   UNL     1      -4.263   4.971 127.294  0.00  0.00    +0.000 A 
ATOM     77  C   UNL     1      -2.887   4.891 127.512  0.00  0.00    +0.000 A 
ATOM     78  C   UNL     1      -2.266   3.800 126.968  0.00  0.00    +0.000 A 
ATOM     79  C   UNL     1      -3.143   2.648 126.635  0.00  0.00    +0.000 A 
ATOM     80  C   UNL     1      -4.676   2.619 127.067  0.00  0.00    +0.000 A 
BRANCH  71  81
ATOM     81  O   UNL     1      -8.718   3.393 122.356  0.00  0.00    +0.000 OA
ATOM     82  H   UNL     1      -9.641   3.095 122.288  0.00  0.00    +0.000 HD
ENDBRANCH  71  81
BRANCH  77  83
ATOM     83  O   UNL     1      -2.187   5.814 128.238  0.00  0.00    +0.000 OA
ATOM     84  H   UNL     1      -1.233   5.782 128.036  0.00  0.00    +0.000 HD
ENDBRANCH  77  83
ENDBRANCH  55  58
ENDBRANCH  53  54
ENDBRANCH  52  53
ENDBRANCH  51  52
ENDBRANCH  42  51
ENDBRANCH  40  42
ENDBRANCH  37  38
ENDBRANCH  14  31
BRANCH   5  85
ATOM     85  C   UNL     1      -3.741   7.442 135.623  0.00  0.00    +0.000 A 
ATOM     86  C   UNL     1      -2.809   6.927 134.746  0.00  0.00    +0.000 A 
ATOM     87  C   UNL     1      -3.013   5.684 134.118  0.00  0.00    +0.000 A 
ATOM     88  C   UNL     1      -4.228   5.026 134.192  0.00  0.00    +0.000 A 
ATOM     89  C   UNL     1      -5.222   5.538 134.989  0.00  0.00    +0.000 A 
ATOM     90  C   UNL     1      -4.959   6.685 135.758  0.00  0.00    +0.000 A 
BRANCH  88  91
ATOM     91  O   UNL     1      -4.483   3.864 133.539  0.00  0.00    +0.000 OA
ATOM     92  H   UNL     1      -4.364   3.960 132.581  0.00  0.00    +0.000 HD
ENDBRANCH  88  91
ENDBRANCH   5  85
BRANCH   1  93
ATOM     93  C   UNL     1      -9.180  10.387 138.962  0.00  0.00    +0.000 C 
ATOM     94  C   UNL     1     -10.057   9.520 138.138  0.00  0.00    +0.000 C 
BRANCH  93  96
ATOM     95  C   UNL     1      -9.990  11.697 140.778  0.00  0.00    +0.000 C 
ATOM     96  C   UNL     1      -9.799  10.267 140.486  0.00  0.00    +0.000 C 
ENDBRANCH  93  96
ENDBRANCH   1  93
BRANCH  18  97
ATOM     97  C   UNL     1      -4.194   4.690 138.933  0.00  0.00    +0.000 C 
BRANCH  97  98
ATOM     98  C   UNL     1      -4.407   3.628 137.257  0.00  0.00    +0.000 C 
ATOM     99  N   UNL     1      -3.020   2.525 136.866  0.00  0.00    +0.000 N 
ATOM    100  O   UNL     1      -5.472   3.421 136.695  0.00  0.00    +0.000 OA
ATOM    101  H   UNL     1      -2.170   2.836 137.529  0.00  0.00    +0.000 HD
ATOM    102  H   UNL     1      -2.493   1.794 136.413  0.00  0.00    +0.000 HD
ENDBRANCH  97  98
ENDBRANCH  18  97
BRANCH  22 103
ATOM    103  C   UNL     1      -4.722   8.553 141.190  0.00  0.00    +0.000 C 
BRANCH 103 104
ATOM    104  C   UNL     1      -4.654   8.650 142.666  0.00  0.00    +0.000 C 
BRANCH 104 105
ATOM    105  C   UNL     1      -4.461   9.912 143.440  0.00  0.00    +0.000 C 
ATOM    106  N   UNL     1      -3.372   9.900 144.221  0.00  0.00    +0.000 N 
ATOM    107  O   UNL     1      -5.232  10.864 143.496  0.00  0.00    +0.000 OA
ATOM    108  H   UNL     1      -2.965   9.001 144.472  0.00  0.00    +0.000 HD
ATOM    109  H   UNL     1      -3.317  10.652 144.888  0.00  0.00    +0.000 HD
ENDBRANCH 104 105
ENDBRANCH 103 104
ENDBRANCH  22 103
TORSDOF 22
ENDMDL
MODEL 6
REMARK VINA RESULT:      -8.5      1.658      2.200
REMARK  Name = CHEMBL1790721
REMARK  24 active torsions:
REMARK  status: ('A' for Active; 'I' for Inactive)
REMARK    1  A    between atoms: C_1  and  C_2
REMARK    2  A    between atoms: C_2  and  C_3
REMARK    3  A    between atoms: C_3  and  C_4
REMARK    4  A    between atoms: C_3  and  C_5
REMARK    5  A    between atoms: C_9  and  C_10
REMARK    6  A    between atoms: C_13  and  O_14
REMARK    7  A    between atoms: C_25  and  C_26
REMARK    8  A    between atoms: C_32  and  C_33
REMARK    9  A    between atoms: N_35  and  C_36
REMARK   10  A    between atoms: C_36  and  C_37
REMARK   11  A    between atoms: C_36  and  C_68
REMARK   12  A    between atoms: C_37  and  C_38
REMARK   13  A    between atoms: C_38  and  C_39
REMARK   14  A    between atoms: C_39  and  N_40
REMARK   15  A    between atoms: C_41  and  C_43
REMARK   16  A    between atoms: C_56  and  O_57
REMARK   17  A    between atoms: C_63  and  O_64
REMARK   18  A    between atoms: N_70  and  C_71
REMARK   19  A    between atoms: C_71  and  N_72
REMARK   20  A    between atoms: C_76  and  C_77
REMARK   21  A    between atoms: C_77  and  C_78
REMARK   22  A    between atoms: C_84  and  C_85
REMARK   23  A    between atoms: C_85  and  C_86
REMARK   24  A    between atoms: C_86  and  C_87
REMARK                            x       y       z     vdW  Elec       q    Type
REMARK                         _______ _______ _______ _____ _____    ______ ____
ROOT
ATOM      1  C   UNL     1      -4.632   4.113 127.677  0.00  0.00    +0.000 C 
ATOM      2  N   UNL     1      -6.455   4.236 128.419  0.00  0.00    +0.000 N 
ATOM      3  C   UNL     1      -7.630   4.416 129.490  0.00  0.00    +0.000 C 
ATOM      4  O   UNL     1      -8.754   3.905 129.189  0.00  0.00    +0.000 OA
ATOM      5  C   UNL     1      -7.683   5.479 130.838  0.00  0.00    +0.000 C 
ATOM      6  N   UNL     1      -8.993   6.285 131.190  0.00  0.00    +0.000 N 
ATOM      7  C   UNL     1     -10.127   6.025 131.968  0.00  0.00    +0.000 C 
ATOM      8  O   UNL     1     -10.881   6.950 132.303  0.00  0.00    +0.000 OA
ATOM      9  C   UNL     1     -10.487   4.654 132.491  0.00  0.00    +0.000 C 
ATOM     10  C   UNL     1      -9.477   3.648 132.207  0.00  0.00    +0.000 C 
ATOM     11  S   UNL     1     -10.110   2.090 132.433  0.00  0.00    +0.000 S 
ATOM     12  S   UNL     1      -8.534   1.159 130.916  0.00  0.00    +0.000 S 
ATOM     13  C   UNL     1      -7.926  -1.141 131.694  0.00  0.00    +0.000 C 
ATOM     14  C   UNL     1      -6.697  -1.936 131.692  0.00  0.00    +0.000 C 
ATOM     15  N   UNL     1      -6.329  -1.810 130.386  0.00  0.00    +0.000 N 
ATOM     16  C   UNL     1      -5.700  -0.664 130.018  0.00  0.00    +0.000 C 
ATOM     17  O   UNL     1      -5.015  -0.763 128.991  0.00  0.00    +0.000 OA
ATOM     18  C   UNL     1      -6.116   0.780 130.665  0.00  0.00    +0.000 C 
ATOM     19  N   UNL     1      -5.047   1.597 130.295  0.00  0.00    +0.000 N 
ATOM     20  C   UNL     1      -4.781   1.909 129.000  0.00  0.00    +0.000 C 
ATOM     21  O   UNL     1      -3.607   2.313 128.949  0.00  0.00    +0.000 OA
ATOM     22  C   UNL     1      -5.894   1.766 127.563  0.00  0.00    +0.000 C 
ATOM     23  N   UNL     1      -6.190   2.865 126.519  0.00  0.00    +0.000 N 
ATOM     24  C   UNL     1      -5.541   4.087 126.510  0.00  0.00    +0.000 C 
ATOM     25  O   UNL     1      -5.944   5.097 125.946  0.00  0.00    +0.000 OA
ATOM     26  H   UNL     1      -7.311   4.125 127.814  0.00  0.00    +0.000 HD
ATOM     27  H   UNL     1      -8.875   7.292 131.096  0.00  0.00    +0.000 HD
ATOM     28  H   UNL     1      -6.803  -2.428 129.723  0.00  0.00    +0.000 HD
ATOM     29  H   UNL     1      -4.313   1.742 130.962  0.00  0.00    +0.000 HD
ATOM     30  H   UNL     1      -7.097   3.210 126.729  0.00  0.00    +0.000 HD
ENDROOT
BRANCH  14  31
ATOM     31  C   UNL     1      -5.493  -1.648 132.599  0.00  0.00    +0.000 C 
ATOM     32  O   UNL     1      -5.417  -0.753 133.449  0.00  0.00    +0.000 OA
ATOM     33  N   UNL     1      -4.448  -2.486 132.380  0.00  0.00    +0.000 N 
ATOM     34  C   UNL     1      -4.039  -3.339 131.263  0.00  0.00    +0.000 C 
ATOM     35  C   UNL     1      -3.684  -4.582 131.981  0.00  0.00    +0.000 C 
ATOM     36  C   UNL     1      -2.942  -4.026 133.181  0.00  0.00    +0.000 C 
ATOM     37  C   UNL     1      -3.613  -2.700 133.493  0.00  0.00    +0.000 C 
BRANCH  37  38
ATOM     38  C   UNL     1      -4.327  -2.841 134.833  0.00  0.00    +0.000 C 
ATOM     39  O   UNL     1      -5.107  -3.797 134.866  0.00  0.00    +0.000 OA
ATOM     40  N   UNL     1      -4.188  -1.921 135.874  0.00  0.00    +0.000 N 
ATOM     41  H   UNL     1      -3.692  -1.041 135.763  0.00  0.00    +0.000 HD
BRANCH  40  42
ATOM     42  C   UNL     1      -4.782  -2.146 137.232  0.00  0.00    +0.000 C 
BRANCH  42  43
ATOM     43  C   UNL     1      -6.362  -2.212 137.187  0.00  0.00    +0.000 C 
ATOM     44  O   UNL     1      -7.018  -1.166 137.136  0.00  0.00    +0.000 OA
ATOM     45  N   UNL     1      -6.982  -3.464 137.187  0.00  0.00    +0.000 N 
ATOM     46  H   UNL     1      -6.458  -4.324 137.274  0.00  0.00    +0.000 HD
BRANCH  45  47
ATOM     47  C   UNL     1      -8.420  -3.575 137.178  0.00  0.00    +0.000 C 
BRANCH  47  48
ATOM     48  N   UNL     1      -8.920  -3.128 135.895  0.00  0.00    +0.000 NA
ATOM     49  H   UNL     1      -9.704  -3.700 135.593  0.00  0.00    +0.000 HD
ATOM     50  H   UNL     1      -8.195  -3.306 135.192  0.00  0.00    +0.000 HD
ENDBRANCH  47  48
ENDBRANCH  45  47
ENDBRANCH  42  43
BRANCH  42  51
ATOM     51  C   UNL     1      -4.345  -1.043 138.225  0.00  0.00    +0.000 C 
BRANCH  51  52
ATOM     52  C   UNL     1      -3.399  -0.010 137.594  0.00  0.00    +0.000 C 
BRANCH  52  53
ATOM     53  C   UNL     1      -2.494   0.792 138.513  0.00  0.00    +0.000 C 
BRANCH  53  54
ATOM     54  N   UNL     1      -2.478   2.340 138.178  0.00  0.00    +0.000 N 
ATOM     55  C   UNL     1      -2.401   3.377 139.215  0.00  0.00    +0.000 C 
ATOM     56  O   UNL     1      -2.218   2.819 140.325  0.00  0.00    +0.000 OA
ATOM     57  H   UNL     1      -2.538   2.516 137.188  0.00  0.00    +0.000 HD
BRANCH  55  58
ATOM     58  C   UNL     1      -2.570   5.196 139.331  0.00  0.00    +0.000 A 
ATOM     59  C   UNL     1      -3.361   5.504 138.319  0.00  0.00    +0.000 A 
ATOM     60  C   UNL     1      -4.169   6.672 138.447  0.00  0.00    +0.000 A 
ATOM     61  C   UNL     1      -3.378   7.635 137.994  0.00  0.00    +0.000 A 
ATOM     62  C   UNL     1      -2.965   8.431 138.974  0.00  0.00    +0.000 A 
ATOM     63  C   UNL     1      -2.510   6.718 139.856  0.00  0.00    +0.000 A 
ATOM     64  C   UNL     1      -3.526   9.740 137.731  0.00  0.00    +0.000 C 
ATOM     65  O   UNL     1      -4.330   9.044 136.726  0.00  0.00    +0.000 OA
ATOM     66  C   UNL     1      -3.586   7.938 136.616  0.00  0.00    +0.000 C 
ATOM     67  O   UNL     1      -3.383   7.096 135.756  0.00  0.00    +0.000 OA
ATOM     68  C   UNL     1      -4.279  11.239 138.395  0.00  0.00    +0.000 A 
ATOM     69  C   UNL     1      -5.621  11.527 138.783  0.00  0.00    +0.000 A 
ATOM     70  C   UNL     1      -6.028  12.818 139.364  0.00  0.00    +0.000 A 
ATOM     71  C   UNL     1      -5.140  13.887 139.471  0.00  0.00    +0.000 A 
ATOM     72  C   UNL     1      -3.882  13.724 138.926  0.00  0.00    +0.000 A 
ATOM     73  C   UNL     1      -3.477  12.443 138.402  0.00  0.00    +0.000 A 
ATOM     74  O   UNL     1      -2.183  12.447 137.907  0.00  0.00    +0.000 OA
ATOM     75  C   UNL     1      -2.003  11.789 136.725  0.00  0.00    +0.000 A 
ATOM     76  C   UNL     1      -0.845  12.111 135.956  0.00  0.00    +0.000 A 
ATOM     77  C   UNL     1      -0.688  11.873 134.591  0.00  0.00    +0.000 A 
ATOM     78  C   UNL     1      -1.841  11.620 133.898  0.00  0.00    +0.000 A 
ATOM     79  C   UNL     1      -3.006  11.181 134.710  0.00  0.00    +0.000 A 
ATOM     80  C   UNL     1      -2.859  10.843 136.260  0.00  0.00    +0.000 A 
BRANCH  71  81
ATOM     81  O   UNL     1      -5.405  15.078 140.095  0.00  0.00    +0.000 OA
ATOM     82  H   UNL     1      -6.319  15.133 140.422  0.00  0.00    +0.000 HD
ENDBRANCH  71  81
BRANCH  77  83
ATOM     83  O   UNL     1       0.528  11.863 133.966  0.00  0.00    +0.000 OA
ATOM     84  H   UNL     1       1.239  12.176 134.558  0.00  0.00    +0.000 HD
ENDBRANCH  77  83
ENDBRANCH  55  58
ENDBRANCH  53  54
ENDBRANCH  52  53
ENDBRANCH  51  52
ENDBRANCH  42  51
ENDBRANCH  40  42
ENDBRANCH  37  38
ENDBRANCH  14  31
BRANCH   5  85
ATOM     85  C   UNL     1      -7.080   5.002 132.178  0.00  0.00    +0.000 A 
ATOM     86  C   UNL     1      -7.681   5.432 133.342  0.00  0.00    +0.000 A 
ATOM     87  C   UNL     1      -7.103   5.167 134.598  0.00  0.00    +0.000 A 
ATOM     88  C   UNL     1      -5.826   4.648 134.712  0.00  0.00    +0.000 A 
ATOM     89  C   UNL     1      -5.148   4.276 133.578  0.00  0.00    +0.000 A 
ATOM     90  C   UNL     1      -5.792   4.375 132.332  0.00  0.00    +0.000 A 
BRANCH  88  91
ATOM     91  O   UNL     1      -5.211   4.449 135.905  0.00  0.00    +0.000 OA
ATOM     92  H   UNL     1      -4.706   3.619 135.913  0.00  0.00    +0.000 HD
ENDBRANCH  88  91
ENDBRANCH   5  85
BRANCH   1  93
ATOM     93  C   UNL     1      -3.059   4.124 126.479  0.00  0.00    +0.000 C 
ATOM     94  C   UNL     1      -1.974   4.748 127.275  0.00  0.00    +0.000 C 
BRANCH  93  96
ATOM     95  C   UNL     1      -1.123   2.747 126.644  0.00  0.00    +0.000 C 
ATOM     96  C   UNL     1      -2.398   2.726 125.907  0.00  0.00    +0.000 C 
ENDBRANCH  93  96
ENDBRANCH   1  93
BRANCH  18  97
ATOM     97  C   UNL     1      -6.632   0.697 132.208  0.00  0.00    +0.000 C 
BRANCH  97  98
ATOM     98  C   UNL     1      -5.825   1.204 133.961  0.00  0.00    +0.000 C 
ATOM     99  N   UNL     1      -4.039   1.522 133.921  0.00  0.00    +0.000 N 
ATOM    100  O   UNL     1      -6.454   1.623 134.920  0.00  0.00    +0.000 OA
ATOM    101  H   UNL     1      -3.668   1.124 132.939  0.00  0.00    +0.000 HD
ATOM    102  H   UNL     1      -3.126   1.825 134.225  0.00  0.00    +0.000 HD
ENDBRANCH  97  98
ENDBRANCH  18  97
BRANCH  22 103
ATOM    103  C   UNL     1      -7.340   1.271 127.796  0.00  0.00    +0.000 C 
BRANCH 103 104
ATOM    104  C   UNL     1      -7.793   0.398 126.689  0.00  0.00    +0.000 C 
BRANCH 104 105
ATOM    105  C   UNL     1      -8.166  -1.041 126.822  0.00  0.00    +0.000 C 
ATOM    106  N   UNL     1      -8.811  -1.529 125.754  0.00  0.00    +0.000 N 
ATOM    107  O   UNL     1      -8.033  -1.745 127.818  0.00  0.00    +0.000 OA
ATOM    108  H   UNL     1      -9.260  -0.873 125.117  0.00  0.00    +0.000 HD
ATOM    109  H   UNL     1      -9.237  -2.432 125.887  0.00  0.00    +0.000 HD
ENDBRANCH 104 105
ENDBRANCH 103 104
ENDBRANCH  22 103
TORSDOF 22
ENDMDL
MODEL 7
REMARK VINA RESULT:      -8.4      3.594     12.740
REMARK  Name = CHEMBL1790721
REMARK  24 active torsions:
REMARK  status: ('A' for Active; 'I' for Inactive)
REMARK    1  A    between atoms: C_1  and  C_2
REMARK    2  A    between atoms: C_2  and  C_3
REMARK    3  A    between atoms: C_3  and  C_4
REMARK    4  A    between atoms: C_3  and  C_5
REMARK    5  A    between atoms: C_9  and  C_10
REMARK    6  A    between atoms: C_13  and  O_14
REMARK    7  A    between atoms: C_25  and  C_26
REMARK    8  A    between atoms: C_32  and  C_33
REMARK    9  A    between atoms: N_35  and  C_36
REMARK   10  A    between atoms: C_36  and  C_37
REMARK   11  A    between atoms: C_36  and  C_68
REMARK   12  A    between atoms: C_37  and  C_38
REMARK   13  A    between atoms: C_38  and  C_39
REMARK   14  A    between atoms: C_39  and  N_40
REMARK   15  A    between atoms: C_41  and  C_43
REMARK   16  A    between atoms: C_56  and  O_57
REMARK   17  A    between atoms: C_63  and  O_64
REMARK   18  A    between atoms: N_70  and  C_71
REMARK   19  A    between atoms: C_71  and  N_72
REMARK   20  A    between atoms: C_76  and  C_77
REMARK   21  A    between atoms: C_77  and  C_78
REMARK   22  A    between atoms: C_84  and  C_85
REMARK   23  A    between atoms: C_85  and  C_86
REMARK   24  A    between atoms: C_86  and  C_87
REMARK                            x       y       z     vdW  Elec       q    Type
REMARK                         _______ _______ _______ _____ _____    ______ ____
ROOT
ATOM      1  C   UNL     1      -7.321  10.228 138.882  0.00  0.00    +0.000 C 
ATOM      2  N   UNL     1      -5.368  10.136 138.637  0.00  0.00    +0.000 N 
ATOM      3  C   UNL     1      -3.949   9.691 138.045  0.00  0.00    +0.000 C 
ATOM      4  O   UNL     1      -2.943   9.845 138.808  0.00  0.00    +0.000 OA
ATOM      5  C   UNL     1      -3.542   9.343 136.413  0.00  0.00    +0.000 C 
ATOM      6  N   UNL     1      -2.192   9.857 135.780  0.00  0.00    +0.000 N 
ATOM      7  C   UNL     1      -0.889   9.353 135.702  0.00  0.00    +0.000 C 
ATOM      8  O   UNL     1      -0.079   9.835 134.898  0.00  0.00    +0.000 OA
ATOM      9  C   UNL     1      -0.391   8.187 136.524  0.00  0.00    +0.000 C 
ATOM     10  C   UNL     1      -1.434   7.562 137.322  0.00  0.00    +0.000 C 
ATOM     11  S   UNL     1      -0.752   6.563 138.513  0.00  0.00    +0.000 S 
ATOM     12  S   UNL     1      -2.672   6.793 139.897  0.00  0.00    +0.000 S 
ATOM     13  C   UNL     1      -3.032   4.651 141.140  0.00  0.00    +0.000 C 
ATOM     14  C   UNL     1      -4.211   3.896 141.567  0.00  0.00    +0.000 C 
ATOM     15  N   UNL     1      -4.917   4.881 142.190  0.00  0.00    +0.000 N 
ATOM     16  C   UNL     1      -5.630   5.733 141.408  0.00  0.00    +0.000 C 
ATOM     17  O   UNL     1      -6.565   6.300 141.990  0.00  0.00    +0.000 OA
ATOM     18  C   UNL     1      -5.065   6.228 139.954  0.00  0.00    +0.000 C 
ATOM     19  N   UNL     1      -6.200   6.783 139.361  0.00  0.00    +0.000 N 
ATOM     20  C   UNL     1      -6.807   7.896 139.847  0.00  0.00    +0.000 C 
ATOM     21  O   UNL     1      -7.954   7.932 139.371  0.00  0.00    +0.000 OA
ATOM     22  C   UNL     1      -6.121   9.133 140.998  0.00  0.00    +0.000 C 
ATOM     23  N   UNL     1      -6.123  10.665 140.806  0.00  0.00    +0.000 N 
ATOM     24  C   UNL     1      -6.759  11.288 139.747  0.00  0.00    +0.000 C 
ATOM     25  O   UNL     1      -6.530  12.427 139.356  0.00  0.00    +0.000 OA
ATOM     26  H   UNL     1      -4.704  10.709 139.223  0.00  0.00    +0.000 HD
ATOM     27  H   UNL     1      -2.337  10.526 135.027  0.00  0.00    +0.000 HD
ATOM     28  H   UNL     1      -4.635   5.102 143.148  0.00  0.00    +0.000 HD
ATOM     29  H   UNL     1      -6.729   6.210 138.731  0.00  0.00    +0.000 HD
ATOM     30  H   UNL     1      -5.196  10.916 140.556  0.00  0.00    +0.000 HD
ENDROOT
BRANCH  14  31
ATOM     31  C   UNL     1      -5.128   3.130 140.605  0.00  0.00    +0.000 C 
ATOM     32  O   UNL     1      -4.996   3.050 139.379  0.00  0.00    +0.000 OA
ATOM     33  N   UNL     1      -6.168   2.521 141.231  0.00  0.00    +0.000 N 
ATOM     34  C   UNL     1      -6.841   2.713 142.516  0.00  0.00    +0.000 C 
ATOM     35  C   UNL     1      -6.948   1.314 142.984  0.00  0.00    +0.000 C 
ATOM     36  C   UNL     1      -7.350   0.608 141.703  0.00  0.00    +0.000 C 
ATOM     37  C   UNL     1      -6.659   1.370 140.587  0.00  0.00    +0.000 C 
BRANCH  37  38
ATOM     38  C   UNL     1      -5.602   0.454 139.980  0.00  0.00    +0.000 C 
ATOM     39  O   UNL     1      -4.854  -0.046 140.825  0.00  0.00    +0.000 OA
ATOM     40  N   UNL     1      -5.435   0.286 138.604  0.00  0.00    +0.000 N 
ATOM     41  H   UNL     1      -5.931   0.850 137.920  0.00  0.00    +0.000 HD
BRANCH  40  42
ATOM     42  C   UNL     1      -4.488  -0.723 138.025  0.00  0.00    +0.000 C 
BRANCH  42  43
ATOM     43  C   UNL     1      -4.088  -0.376 136.534  0.00  0.00    +0.000 C 
ATOM     44  O   UNL     1      -3.059  -0.857 136.048  0.00  0.00    +0.000 OA
ATOM     45  N   UNL     1      -4.926   0.458 135.791  0.00  0.00    +0.000 N 
ATOM     46  H   UNL     1      -5.745   0.893 136.192  0.00  0.00    +0.000 HD
BRANCH  45  47
ATOM     47  C   UNL     1      -4.588   0.829 134.439  0.00  0.00    +0.000 C 
BRANCH  47  48
ATOM     48  N   UNL     1      -3.388   1.639 134.457  0.00  0.00    +0.000 NA
ATOM     49  H   UNL     1      -3.601   2.596 134.725  0.00  0.00    +0.000 HD
ATOM     50  H   UNL     1      -3.044   1.720 133.493  0.00  0.00    +0.000 HD
ENDBRANCH  47  48
ENDBRANCH  45  47
ENDBRANCH  42  43
BRANCH  42  51
ATOM     51  C   UNL     1      -5.089  -2.148 138.074  0.00  0.00    +0.000 C 
BRANCH  51  52
ATOM     52  C   UNL     1      -6.510  -2.219 137.493  0.00  0.00    +0.000 C 
BRANCH  52  53
ATOM     53  C   UNL     1      -6.792  -3.240 136.405  0.00  0.00    +0.000 C 
BRANCH  53  54
ATOM     54  N   UNL     1      -7.159  -2.581 135.012  0.00  0.00    +0.000 N 
ATOM     55  C   UNL     1      -7.222  -3.349 133.762  0.00  0.00    +0.000 C 
ATOM     56  O   UNL     1      -7.078  -4.566 134.033  0.00  0.00    +0.000 OA
ATOM     57  H   UNL     1      -7.329  -1.592 135.091  0.00  0.00    +0.000 HD
BRANCH  55  58
ATOM     58  C   UNL     1      -7.374  -3.013 131.969  0.00  0.00    +0.000 A 
ATOM     59  C   UNL     1      -6.234  -2.423 131.661  0.00  0.00    +0.000 A 
ATOM     60  C   UNL     1      -5.757  -2.566 130.324  0.00  0.00    +0.000 A 
ATOM     61  C   UNL     1      -6.338  -1.556 129.689  0.00  0.00    +0.000 A 
ATOM     62  C   UNL     1      -7.284  -1.980 128.858  0.00  0.00    +0.000 A 
ATOM     63  C   UNL     1      -7.886  -3.005 130.441  0.00  0.00    +0.000 A 
ATOM     64  C   UNL     1      -6.357  -0.809 127.698  0.00  0.00    +0.000 C 
ATOM     65  O   UNL     1      -5.077  -0.512 128.341  0.00  0.00    +0.000 OA
ATOM     66  C   UNL     1      -5.515  -0.396 129.600  0.00  0.00    +0.000 C 
ATOM     67  O   UNL     1      -5.151   0.189 130.607  0.00  0.00    +0.000 OA
ATOM     68  C   UNL     1      -6.238  -1.291 125.964  0.00  0.00    +0.000 A 
ATOM     69  C   UNL     1      -5.317  -2.142 125.283  0.00  0.00    +0.000 A 
ATOM     70  C   UNL     1      -5.427  -2.455 123.847  0.00  0.00    +0.000 A 
ATOM     71  C   UNL     1      -6.383  -1.848 123.034  0.00  0.00    +0.000 A 
ATOM     72  C   UNL     1      -7.170  -0.867 123.605  0.00  0.00    +0.000 A 
ATOM     73  C   UNL     1      -7.088  -0.599 125.019  0.00  0.00    +0.000 A 
ATOM     74  O   UNL     1      -7.953   0.402 125.430  0.00  0.00    +0.000 OA
ATOM     75  C   UNL     1      -7.433   1.302 126.315  0.00  0.00    +0.000 A 
ATOM     76  C   UNL     1      -8.087   2.564 126.439  0.00  0.00    +0.000 A 
ATOM     77  C   UNL     1      -7.513   3.726 126.953  0.00  0.00    +0.000 A 
ATOM     78  C   UNL     1      -6.146   3.726 127.030  0.00  0.00    +0.000 A 
ATOM     79  C   UNL     1      -5.492   2.391 127.007  0.00  0.00    +0.000 A 
ATOM     80  C   UNL     1      -6.344   1.047 127.084  0.00  0.00    +0.000 A 
BRANCH  71  81
ATOM     81  O   UNL     1      -6.622  -2.162 121.723  0.00  0.00    +0.000 OA
ATOM     82  H   UNL     1      -6.414  -1.430 121.118  0.00  0.00    +0.000 HD
ENDBRANCH  71  81
BRANCH  77  83
ATOM     83  O   UNL     1      -8.244   4.799 127.381  0.00  0.00    +0.000 OA
ATOM     84  H   UNL     1      -8.935   5.044 126.736  0.00  0.00    +0.000 HD
ENDBRANCH  77  83
ENDBRANCH  55  58
ENDBRANCH  53  54
ENDBRANCH  52  53
ENDBRANCH  51  52
ENDBRANCH  42  51
ENDBRANCH  40  42
ENDBRANCH  37  38
ENDBRANCH  14  31
BRANCH   5  85
ATOM     85  C   UNL     1      -3.759   7.905 135.889  0.00  0.00    +0.000 A 
ATOM     86  C   UNL     1      -2.892   7.434 134.926  0.00  0.00    +0.000 A 
ATOM     87  C   UNL     1      -3.114   6.197 134.292  0.00  0.00    +0.000 A 
ATOM     88  C   UNL     1      -4.299   5.502 134.456  0.00  0.00    +0.000 A 
ATOM     89  C   UNL     1      -5.235   5.970 135.345  0.00  0.00    +0.000 A 
ATOM     90  C   UNL     1      -4.940   7.110 136.112  0.00  0.00    +0.000 A 
BRANCH  88  91
ATOM     91  O   UNL     1      -4.576   4.345 133.803  0.00  0.00    +0.000 OA
ATOM     92  H   UNL     1      -4.091   4.284 132.964  0.00  0.00    +0.000 HD
ENDBRANCH  88  91
ENDBRANCH   5  85
BRANCH   1  93
ATOM     93  C   UNL     1      -9.159  10.800 139.337  0.00  0.00    +0.000 C 
ATOM     94  C   UNL     1     -10.041   9.991 138.461  0.00  0.00    +0.000 C 
BRANCH  93  96
ATOM     95  C   UNL     1     -10.137  11.990 141.153  0.00  0.00    +0.000 C 
ATOM     96  C   UNL     1      -9.780  10.594 140.850  0.00  0.00    +0.000 C 
ENDBRANCH  93  96
ENDBRANCH   1  93
BRANCH  18  97
ATOM     97  C   UNL     1      -4.153   5.122 139.181  0.00  0.00    +0.000 C 
BRANCH  97  98
ATOM     98  C   UNL     1      -4.419   4.020 137.539  0.00  0.00    +0.000 C 
ATOM     99  N   UNL     1      -3.013   2.967 137.085  0.00  0.00    +0.000 N 
ATOM    100  O   UNL     1      -5.505   3.760 137.044  0.00  0.00    +0.000 OA
ATOM    101  H   UNL     1      -2.139   3.326 137.692  0.00  0.00    +0.000 HD
ATOM    102  H   UNL     1      -2.483   2.250 136.613  0.00  0.00    +0.000 HD
ENDBRANCH  97  98
ENDBRANCH  18  97
BRANCH  22 103
ATOM    103  C   UNL     1      -4.661   8.962 141.481  0.00  0.00    +0.000 C 
BRANCH 103 104
ATOM    104  C   UNL     1      -4.588   8.916 142.959  0.00  0.00    +0.000 C 
BRANCH 104 105
ATOM    105  C   UNL     1      -3.650   8.064 143.750  0.00  0.00    +0.000 C 
ATOM    106  N   UNL     1      -2.425   8.593 143.878  0.00  0.00    +0.000 N 
ATOM    107  O   UNL     1      -3.867   6.936 144.177  0.00  0.00    +0.000 OA
ATOM    108  H   UNL     1      -2.135   9.310 143.216  0.00  0.00    +0.000 HD
ATOM    109  H   UNL     1      -1.726   7.966 144.240  0.00  0.00    +0.000 HD
ENDBRANCH 104 105
ENDBRANCH 103 104
ENDBRANCH  22 103
TORSDOF 22
ENDMDL
MODEL 8
REMARK VINA RESULT:      -8.4      3.799     12.509
REMARK  Name = CHEMBL1790721
REMARK  24 active torsions:
REMARK  status: ('A' for Active; 'I' for Inactive)
REMARK    1  A    between atoms: C_1  and  C_2
REMARK    2  A    between atoms: C_2  and  C_3
REMARK    3  A    between atoms: C_3  and  C_4
REMARK    4  A    between atoms: C_3  and  C_5
REMARK    5  A    between atoms: C_9  and  C_10
REMARK    6  A    between atoms: C_13  and  O_14
REMARK    7  A    between atoms: C_25  and  C_26
REMARK    8  A    between atoms: C_32  and  C_33
REMARK    9  A    between atoms: N_35  and  C_36
REMARK   10  A    between atoms: C_36  and  C_37
REMARK   11  A    between atoms: C_36  and  C_68
REMARK   12  A    between atoms: C_37  and  C_38
REMARK   13  A    between atoms: C_38  and  C_39
REMARK   14  A    between atoms: C_39  and  N_40
REMARK   15  A    between atoms: C_41  and  C_43
REMARK   16  A    between atoms: C_56  and  O_57
REMARK   17  A    between atoms: C_63  and  O_64
REMARK   18  A    between atoms: N_70  and  C_71
REMARK   19  A    between atoms: C_71  and  N_72
REMARK   20  A    between atoms: C_76  and  C_77
REMARK   21  A    between atoms: C_77  and  C_78
REMARK   22  A    between atoms: C_84  and  C_85
REMARK   23  A    between atoms: C_85  and  C_86
REMARK   24  A    between atoms: C_86  and  C_87
REMARK                            x       y       z     vdW  Elec       q    Type
REMARK                         _______ _______ _______ _____ _____    ______ ____
ROOT
ATOM      1  C   UNL     1      -7.195  -4.246 137.884  0.00  0.00    +0.000 C 
ATOM      2  N   UNL     1      -5.276  -4.503 137.517  0.00  0.00    +0.000 N 
ATOM      3  C   UNL     1      -3.689  -4.325 137.630  0.00  0.00    +0.000 C 
ATOM      4  O   UNL     1      -3.009  -4.638 136.603  0.00  0.00    +0.000 OA
ATOM      5  C   UNL     1      -2.748  -4.084 139.045  0.00  0.00    +0.000 C 
ATOM      6  N   UNL     1      -1.378  -4.839 139.254  0.00  0.00    +0.000 N 
ATOM      7  C   UNL     1      -0.047  -4.572 138.911  0.00  0.00    +0.000 C 
ATOM      8  O   UNL     1       0.875  -5.204 139.447  0.00  0.00    +0.000 OA
ATOM      9  C   UNL     1       0.367  -3.496 137.935  0.00  0.00    +0.000 C 
ATOM     10  C   UNL     1      -0.747  -2.683 137.472  0.00  0.00    +0.000 C 
ATOM     11  S   UNL     1      -0.302  -1.797 136.094  0.00  0.00    +0.000 S 
ATOM     12  S   UNL     1      -2.564  -1.661 135.373  0.00  0.00    +0.000 S 
ATOM     13  C   UNL     1      -2.913   0.534 134.223  0.00  0.00    +0.000 C 
ATOM     14  C   UNL     1      -4.017   1.492 134.149  0.00  0.00    +0.000 C 
ATOM     15  N   UNL     1      -5.040   0.657 133.808  0.00  0.00    +0.000 N 
ATOM     16  C   UNL     1      -5.613  -0.071 134.800  0.00  0.00    +0.000 C 
ATOM     17  O   UNL     1      -6.765  -0.454 134.554  0.00  0.00    +0.000 OA
ATOM     18  C   UNL     1      -4.723  -0.684 136.029  0.00  0.00    +0.000 C 
ATOM     19  N   UNL     1      -5.699  -1.043 136.960  0.00  0.00    +0.000 N 
ATOM     20  C   UNL     1      -6.609  -2.023 136.724  0.00  0.00    +0.000 C 
ATOM     21  O   UNL     1      -7.542  -1.866 137.529  0.00  0.00    +0.000 OA
ATOM     22  C   UNL     1      -6.533  -3.339 135.465  0.00  0.00    +0.000 C 
ATOM     23  N   UNL     1      -6.741  -4.851 135.703  0.00  0.00    +0.000 N 
ATOM     24  C   UNL     1      -7.118  -5.373 136.927  0.00  0.00    +0.000 C 
ATOM     25  O   UNL     1      -6.980  -6.541 137.271  0.00  0.00    +0.000 OA
ATOM     26  H   UNL     1      -4.934  -5.172 136.777  0.00  0.00    +0.000 HD
ATOM     27  H   UNL     1      -1.398  -5.486 140.039  0.00  0.00    +0.000 HD
ATOM     28  H   UNL     1      -5.108   0.409 132.819  0.00  0.00    +0.000 HD
ATOM     29  H   UNL     1      -5.902  -0.398 137.701  0.00  0.00    +0.000 HD
ATOM     30  H   UNL     1      -5.839  -5.265 135.667  0.00  0.00    +0.000 HD
ENDROOT
BRANCH  14  31
ATOM     31  C   UNL     1      -4.448   2.388 135.317  0.00  0.00    +0.000 C 
ATOM     32  O   UNL     1      -3.893   2.469 136.418  0.00  0.00    +0.000 OA
ATOM     33  N   UNL     1      -5.558   3.122 135.045  0.00  0.00    +0.000 N 
ATOM     34  C   UNL     1      -6.650   3.001 134.078  0.00  0.00    +0.000 C 
ATOM     35  C   UNL     1      -6.742   4.395 133.591  0.00  0.00    +0.000 C 
ATOM     36  C   UNL     1      -6.591   5.168 134.887  0.00  0.00    +0.000 C 
ATOM     37  C   UNL     1      -5.655   4.338 135.747  0.00  0.00    +0.000 C 
BRANCH  37  38
ATOM     38  C   UNL     1      -4.351   5.113 135.902  0.00  0.00    +0.000 C 
ATOM     39  O   UNL     1      -3.903   5.079 137.052  0.00  0.00    +0.000 OA
ATOM     40  N   UNL     1      -3.783   5.868 134.874  0.00  0.00    +0.000 N 
ATOM     41  H   UNL     1      -4.261   6.041 133.995  0.00  0.00    +0.000 HD
BRANCH  40  42
ATOM     42  C   UNL     1      -2.432   6.507 134.997  0.00  0.00    +0.000 C 
BRANCH  42  43
ATOM     43  C   UNL     1      -2.407   7.640 136.101  0.00  0.00    +0.000 C 
ATOM     44  O   UNL     1      -2.798   8.778 135.821  0.00  0.00    +0.000 OA
ATOM     45  N   UNL     1      -1.959   7.317 137.384  0.00  0.00    +0.000 N 
ATOM     46  H   UNL     1      -1.595   6.402 137.612  0.00  0.00    +0.000 HD
BRANCH  45  47
ATOM     47  C   UNL     1      -1.888   8.322 138.416  0.00  0.00    +0.000 C 
BRANCH  47  48
ATOM     48  N   UNL     1      -0.837   9.262 138.088  0.00  0.00    +0.000 NA
ATOM     49  H   UNL     1      -0.471   9.702 138.927  0.00  0.00    +0.000 HD
ATOM     50  H   UNL     1      -1.258  10.038 137.563  0.00  0.00    +0.000 HD
ENDBRANCH  47  48
ENDBRANCH  45  47
ENDBRANCH  42  43
BRANCH  42  51
ATOM     51  C   UNL     1      -1.968   7.101 133.645  0.00  0.00    +0.000 C 
BRANCH  51  52
ATOM     52  C   UNL     1      -3.037   7.981 132.980  0.00  0.00    +0.000 C 
BRANCH  52  53
ATOM     53  C   UNL     1      -3.123   7.986 131.464  0.00  0.00    +0.000 C 
BRANCH  53  54
ATOM     54  N   UNL     1      -3.127   6.532 130.834  0.00  0.00    +0.000 N 
ATOM     55  C   UNL     1      -3.885   6.193 129.622  0.00  0.00    +0.000 C 
ATOM     56  O   UNL     1      -4.371   7.248 129.147  0.00  0.00    +0.000 OA
ATOM     57  H   UNL     1      -2.567   5.886 131.365  0.00  0.00    +0.000 HD
BRANCH  55  58
ATOM     58  C   UNL     1      -4.356   4.688 128.694  0.00  0.00    +0.000 A 
ATOM     59  C   UNL     1      -5.292   4.135 129.443  0.00  0.00    +0.000 A 
ATOM     60  C   UNL     1      -6.274   3.335 128.788  0.00  0.00    +0.000 A 
ATOM     61  C   UNL     1      -5.717   2.132 128.769  0.00  0.00    +0.000 A 
ATOM     62  C   UNL     1      -5.347   1.782 127.541  0.00  0.00    +0.000 A 
ATOM     63  C   UNL     1      -4.508   3.576 127.538  0.00  0.00    +0.000 A 
ATOM     64  C   UNL     1      -6.258   0.206 128.049  0.00  0.00    +0.000 C 
ATOM     65  O   UNL     1      -7.030   0.536 129.247  0.00  0.00    +0.000 OA
ATOM     66  C   UNL     1      -6.120   1.304 129.857  0.00  0.00    +0.000 C 
ATOM     67  O   UNL     1      -5.866   1.620 131.008  0.00  0.00    +0.000 OA
ATOM     68  C   UNL     1      -7.187  -0.658 126.766  0.00  0.00    +0.000 A 
ATOM     69  C   UNL     1      -8.509  -0.466 126.267  0.00  0.00    +0.000 A 
ATOM     70  C   UNL     1      -9.071  -1.256 125.159  0.00  0.00    +0.000 A 
ATOM     71  C   UNL     1      -8.377  -2.326 124.594  0.00  0.00    +0.000 A 
ATOM     72  C   UNL     1      -7.175  -2.679 125.175  0.00  0.00    +0.000 A 
ATOM     73  C   UNL     1      -6.611  -1.873 126.228  0.00  0.00    +0.000 A 
ATOM     74  O   UNL     1      -5.398  -2.358 126.689  0.00  0.00    +0.000 OA
ATOM     75  C   UNL     1      -5.234  -2.340 128.044  0.00  0.00    +0.000 A 
ATOM     76  C   UNL     1      -4.239  -3.197 128.603  0.00  0.00    +0.000 A 
ATOM     77  C   UNL     1      -4.189  -3.621 129.931  0.00  0.00    +0.000 A 
ATOM     78  C   UNL     1      -5.347  -3.468 130.643  0.00  0.00    +0.000 A 
ATOM     79  C   UNL     1      -6.324  -2.490 130.099  0.00  0.00    +0.000 A 
ATOM     80  C   UNL     1      -5.955  -1.542 128.872  0.00  0.00    +0.000 A 
BRANCH  71  81
ATOM     81  O   UNL     1      -8.779  -3.038 123.495  0.00  0.00    +0.000 OA
ATOM     82  H   UNL     1      -8.897  -3.984 123.685  0.00  0.00    +0.000 HD
ENDBRANCH  71  81
BRANCH  77  83
ATOM     83  O   UNL     1      -3.064  -4.136 130.512  0.00  0.00    +0.000 OA
ATOM     84  H   UNL     1      -2.611  -4.768 129.922  0.00  0.00    +0.000 HD
ENDBRANCH  77  83
ENDBRANCH  55  58
ENDBRANCH  53  54
ENDBRANCH  52  53
ENDBRANCH  51  52
ENDBRANCH  42  51
ENDBRANCH  40  42
ENDBRANCH  37  38
ENDBRANCH  14  31
BRANCH   5  85
ATOM     85  C   UNL     1      -2.541  -2.641 139.558  0.00  0.00    +0.000 A 
ATOM     86  C   UNL     1      -1.335  -2.335 140.152  0.00  0.00    +0.000 A 
ATOM     87  C   UNL     1      -1.128  -1.091 140.778  0.00  0.00    +0.000 A 
ATOM     88  C   UNL     1      -2.172  -0.210 140.999  0.00  0.00    +0.000 A 
ATOM     89  C   UNL     1      -3.416  -0.503 140.498  0.00  0.00    +0.000 A 
ATOM     90  C   UNL     1      -3.585  -1.660 139.719  0.00  0.00    +0.000 A 
BRANCH  88  91
ATOM     91  O   UNL     1      -2.022   0.964 141.664  0.00  0.00    +0.000 OA
ATOM     92  H   UNL     1      -1.513   0.847 142.483  0.00  0.00    +0.000 HD
ENDBRANCH  88  91
ENDBRANCH   5  85
BRANCH   1  93
ATOM     93  C   UNL     1      -9.153  -4.479 138.034  0.00  0.00    +0.000 C 
ATOM     94  C   UNL     1      -9.405  -4.700 139.479  0.00  0.00    +0.000 C 
BRANCH  93  96
ATOM     95  C   UNL     1     -11.411  -3.768 138.297  0.00  0.00    +0.000 C 
ATOM     96  C   UNL     1     -10.202  -3.279 137.613  0.00  0.00    +0.000 C 
ENDBRANCH  93  96
ENDBRANCH   1  93
BRANCH  18  97
ATOM     97  C   UNL     1      -3.441   0.230 136.446  0.00  0.00    +0.000 C 
BRANCH  97  98
ATOM     98  C   UNL     1      -3.020   1.377 138.024  0.00  0.00    +0.000 C 
ATOM     99  N   UNL     1      -4.450   1.841 139.039  0.00  0.00    +0.000 N 
ATOM    100  O   UNL     1      -1.910   1.498 138.519  0.00  0.00    +0.000 OA
ATOM    101  H   UNL     1      -5.363   1.592 138.435  0.00  0.00    +0.000 HD
ATOM    102  H   UNL     1      -4.978   2.203 139.819  0.00  0.00    +0.000 HD
ENDBRANCH  97  98
ENDBRANCH  18  97
BRANCH  22 103
ATOM    103  C   UNL     1      -5.286  -3.418 134.553  0.00  0.00    +0.000 C 
BRANCH 103 104
ATOM    104  C   UNL     1      -5.141  -4.766 133.958  0.00  0.00    +0.000 C 
BRANCH 104 105
ATOM    105  C   UNL     1      -3.844  -5.442 133.656  0.00  0.00    +0.000 C 
ATOM    106  N   UNL     1      -2.841  -4.588 133.410  0.00  0.00    +0.000 N 
ATOM    107  O   UNL     1      -3.658  -6.646 133.518  0.00  0.00    +0.000 OA
ATOM    108  H   UNL     1      -3.070  -3.633 133.141  0.00  0.00    +0.000 HD
ATOM    109  H   UNL     1      -2.010  -5.007 133.024  0.00  0.00    +0.000 HD
ENDBRANCH 104 105
ENDBRANCH 103 104
ENDBRANCH  22 103
TORSDOF 22
ENDMDL
MODEL 9
REMARK VINA RESULT:      -8.4      3.115      4.802
REMARK  Name = CHEMBL1790721
REMARK  24 active torsions:
REMARK  status: ('A' for Active; 'I' for Inactive)
REMARK    1  A    between atoms: C_1  and  C_2
REMARK    2  A    between atoms: C_2  and  C_3
REMARK    3  A    between atoms: C_3  and  C_4
REMARK    4  A    between atoms: C_3  and  C_5
REMARK    5  A    between atoms: C_9  and  C_10
REMARK    6  A    between atoms: C_13  and  O_14
REMARK    7  A    between atoms: C_25  and  C_26
REMARK    8  A    between atoms: C_32  and  C_33
REMARK    9  A    between atoms: N_35  and  C_36
REMARK   10  A    between atoms: C_36  and  C_37
REMARK   11  A    between atoms: C_36  and  C_68
REMARK   12  A    between atoms: C_37  and  C_38
REMARK   13  A    between atoms: C_38  and  C_39
REMARK   14  A    between atoms: C_39  and  N_40
REMARK   15  A    between atoms: C_41  and  C_43
REMARK   16  A    between atoms: C_56  and  O_57
REMARK   17  A    between atoms: C_63  and  O_64
REMARK   18  A    between atoms: N_70  and  C_71
REMARK   19  A    between atoms: C_71  and  N_72
REMARK   20  A    between atoms: C_76  and  C_77
REMARK   21  A    between atoms: C_77  and  C_78
REMARK   22  A    between atoms: C_84  and  C_85
REMARK   23  A    between atoms: C_85  and  C_86
REMARK   24  A    between atoms: C_86  and  C_87
REMARK                            x       y       z     vdW  Elec       q    Type
REMARK                         _______ _______ _______ _____ _____    ______ ____
ROOT
ATOM      1  C   UNL     1      -4.723   4.019 127.619  0.00  0.00    +0.000 C 
ATOM      2  N   UNL     1      -6.509   4.087 128.450  0.00  0.00    +0.000 N 
ATOM      3  C   UNL     1      -7.646   4.362 129.542  0.00  0.00    +0.000 C 
ATOM      4  O   UNL     1      -8.706   3.667 129.442  0.00  0.00    +0.000 OA
ATOM      5  C   UNL     1      -7.776   5.685 130.629  0.00  0.00    +0.000 C 
ATOM      6  N   UNL     1      -9.163   6.390 130.896  0.00  0.00    +0.000 N 
ATOM      7  C   UNL     1     -10.215   6.178 131.794  0.00  0.00    +0.000 C 
ATOM      8  O   UNL     1     -11.068   7.058 131.976  0.00  0.00    +0.000 OA
ATOM      9  C   UNL     1     -10.367   4.926 132.625  0.00  0.00    +0.000 C 
ATOM     10  C   UNL     1      -9.247   4.007 132.490  0.00  0.00    +0.000 C 
ATOM     11  S   UNL     1      -9.659   2.476 133.093  0.00  0.00    +0.000 S 
ATOM     12  S   UNL     1      -8.046   1.422 131.700  0.00  0.00    +0.000 S 
ATOM     13  C   UNL     1      -7.105  -0.557 132.908  0.00  0.00    +0.000 C 
ATOM     14  C   UNL     1      -5.784  -1.182 132.986  0.00  0.00    +0.000 C 
ATOM     15  N   UNL     1      -5.497  -1.308 131.660  0.00  0.00    +0.000 N 
ATOM     16  C   UNL     1      -5.043  -0.207 131.007  0.00  0.00    +0.000 C 
ATOM     17  O   UNL     1      -4.399  -0.452 129.978  0.00  0.00    +0.000 OA
ATOM     18  C   UNL     1      -5.614   1.286 131.357  0.00  0.00    +0.000 C 
ATOM     19  N   UNL     1      -4.681   2.120 130.741  0.00  0.00    +0.000 N 
ATOM     20  C   UNL     1      -4.518   2.164 129.393  0.00  0.00    +0.000 C 
ATOM     21  O   UNL     1      -3.411   2.682 129.169  0.00  0.00    +0.000 OA
ATOM     22  C   UNL     1      -5.668   1.573 128.108  0.00  0.00    +0.000 C 
ATOM     23  N   UNL     1      -6.155   2.368 126.877  0.00  0.00    +0.000 N 
ATOM     24  C   UNL     1      -5.673   3.625 126.556  0.00  0.00    +0.000 C 
ATOM     25  O   UNL     1      -6.232   4.429 125.819  0.00  0.00    +0.000 OA
ATOM     26  H   UNL     1      -7.371   3.744 127.949  0.00  0.00    +0.000 HD
ATOM     27  H   UNL     1      -9.183   7.356 130.579  0.00  0.00    +0.000 HD
ATOM     28  H   UNL     1      -5.916  -2.110 131.182  0.00  0.00    +0.000 HD
ATOM     29  H   UNL     1      -3.941   2.495 131.304  0.00  0.00    +0.000 HD
ATOM     30  H   UNL     1      -7.088   2.642 127.074  0.00  0.00    +0.000 HD
ENDROOT
BRANCH  14  31
ATOM     31  C   UNL     1      -4.588  -0.559 133.717  0.00  0.00    +0.000 C 
ATOM     32  O   UNL     1      -4.492   0.616 134.090  0.00  0.00    +0.000 OA
ATOM     33  N   UNL     1      -3.574  -1.437 133.926  0.00  0.00    +0.000 N 
ATOM     34  C   UNL     1      -3.179  -2.705 133.313  0.00  0.00    +0.000 C 
ATOM     35  C   UNL     1      -2.891  -3.516 134.516  0.00  0.00    +0.000 C 
ATOM     36  C   UNL     1      -2.150  -2.509 135.376  0.00  0.00    +0.000 C 
ATOM     37  C   UNL     1      -2.772  -1.164 135.050  0.00  0.00    +0.000 C 
BRANCH  37  38
ATOM     38  C   UNL     1      -3.517  -0.680 136.289  0.00  0.00    +0.000 C 
ATOM     39  O   UNL     1      -4.386  -1.471 136.668  0.00  0.00    +0.000 OA
ATOM     40  N   UNL     1      -3.308   0.574 136.867  0.00  0.00    +0.000 N 
ATOM     41  H   UNL     1      -2.729   1.286 136.432  0.00  0.00    +0.000 HD
BRANCH  40  42
ATOM     42  C   UNL     1      -3.943   0.978 138.164  0.00  0.00    +0.000 C 
BRANCH  42  43
ATOM     43  C   UNL     1      -4.238   2.532 138.222  0.00  0.00    +0.000 C 
ATOM     44  O   UNL     1      -3.687   3.291 137.419  0.00  0.00    +0.000 OA
ATOM     45  N   UNL     1      -5.139   3.008 139.177  0.00  0.00    +0.000 N 
ATOM     46  H   UNL     1      -5.561   2.402 139.868  0.00  0.00    +0.000 HD
BRANCH  45  47
ATOM     47  C   UNL     1      -5.417   4.419 139.291  0.00  0.00    +0.000 C 
BRANCH  47  48
ATOM     48  N   UNL     1      -5.957   4.896 138.034  0.00  0.00    +0.000 NA
ATOM     49  H   UNL     1      -6.203   4.118 137.428  0.00  0.00    +0.000 HD
ATOM     50  H   UNL     1      -5.205   5.378 137.529  0.00  0.00    +0.000 HD
ENDBRANCH  47  48
ENDBRANCH  45  47
ENDBRANCH  42  43
BRANCH  42  51
ATOM     51  C   UNL     1      -3.058   0.581 139.369  0.00  0.00    +0.000 C 
BRANCH  51  52
ATOM     52  C   UNL     1      -1.595   1.022 139.209  0.00  0.00    +0.000 C 
BRANCH  52  53
ATOM     53  C   UNL     1      -1.143   2.288 139.915  0.00  0.00    +0.000 C 
BRANCH  53  54
ATOM     54  N   UNL     1      -0.909   3.504 138.927  0.00  0.00    +0.000 N 
ATOM     55  C   UNL     1      -1.479   4.838 139.160  0.00  0.00    +0.000 C 
ATOM     56  O   UNL     1      -2.024   4.847 140.290  0.00  0.00    +0.000 OA
ATOM     57  H   UNL     1      -0.343   3.247 138.135  0.00  0.00    +0.000 HD
BRANCH  55  58
ATOM     58  C   UNL     1      -1.666   6.412 138.244  0.00  0.00    +0.000 A 
ATOM     59  C   UNL     1      -0.464   6.629 137.743  0.00  0.00    +0.000 A 
ATOM     60  C   UNL     1      -0.381   7.383 136.534  0.00  0.00    +0.000 A 
ATOM     61  C   UNL     1      -0.320   8.635 136.965  0.00  0.00    +0.000 A 
ATOM     62  C   UNL     1      -1.442   9.298 136.705  0.00  0.00    +0.000 A 
ATOM     63  C   UNL     1      -2.293   7.709 137.523  0.00  0.00    +0.000 A 
ATOM     64  C   UNL     1      -0.185  10.558 136.067  0.00  0.00    +0.000 C 
ATOM     65  O   UNL     1       1.093   9.854 135.957  0.00  0.00    +0.000 OA
ATOM     66  C   UNL     1       1.012   9.131 137.080  0.00  0.00    +0.000 C 
ATOM     67  O   UNL     1       1.803   8.617 137.854  0.00  0.00    +0.000 OA
ATOM     68  C   UNL     1      -0.646  11.518 134.611  0.00  0.00    +0.000 A 
ATOM     69  C   UNL     1      -0.545  11.226 133.218  0.00  0.00    +0.000 A 
ATOM     70  C   UNL     1      -1.038  12.136 132.170  0.00  0.00    +0.000 A 
ATOM     71  C   UNL     1      -1.541  13.401 132.474  0.00  0.00    +0.000 A 
ATOM     72  C   UNL     1      -1.476  13.810 133.791  0.00  0.00    +0.000 A 
ATOM     73  C   UNL     1      -1.035  12.897 134.815  0.00  0.00    +0.000 A 
ATOM     74  O   UNL     1      -1.043  13.461 136.082  0.00  0.00    +0.000 OA
ATOM     75  C   UNL     1       0.042  13.175 136.859  0.00  0.00    +0.000 A 
ATOM     76  C   UNL     1       0.314  14.040 137.960  0.00  0.00    +0.000 A 
ATOM     77  C   UNL     1       1.545  14.168 138.605  0.00  0.00    +0.000 A 
ATOM     78  C   UNL     1       2.624  13.679 137.920  0.00  0.00    +0.000 A 
ATOM     79  C   UNL     1       2.324  12.696 136.846  0.00  0.00    +0.000 A 
ATOM     80  C   UNL     1       0.856  12.110 136.642  0.00  0.00    +0.000 A 
BRANCH  71  81
ATOM     81  O   UNL     1      -2.117  14.260 131.576  0.00  0.00    +0.000 OA
ATOM     82  H   UNL     1      -1.948  14.005 130.653  0.00  0.00    +0.000 HD
ENDBRANCH  71  81
BRANCH  77  83
ATOM     83  O   UNL     1       1.687  14.720 139.848  0.00  0.00    +0.000 OA
ATOM     84  H   UNL     1       2.466  14.360 140.314  0.00  0.00    +0.000 HD
ENDBRANCH  77  83
ENDBRANCH  55  58
ENDBRANCH  53  54
ENDBRANCH  52  53
ENDBRANCH  51  52
ENDBRANCH  42  51
ENDBRANCH  40  42
ENDBRANCH  37  38
ENDBRANCH  14  31
BRANCH   5  85
ATOM     85  C   UNL     1      -7.054   5.594 131.992  0.00  0.00    +0.000 A 
ATOM     86  C   UNL     1      -7.750   5.987 133.116  0.00  0.00    +0.000 A 
ATOM     87  C   UNL     1      -7.115   6.077 134.369  0.00  0.00    +0.000 A 
ATOM     88  C   UNL     1      -5.740   5.974 134.492  0.00  0.00    +0.000 A 
ATOM     89  C   UNL     1      -4.988   5.664 133.387  0.00  0.00    +0.000 A 
ATOM     90  C   UNL     1      -5.638   5.398 132.169  0.00  0.00    +0.000 A 
BRANCH  88  91
ATOM     91  O   UNL     1      -5.089   6.129 135.673  0.00  0.00    +0.000 OA
ATOM     92  H   UNL     1      -4.129   6.190 135.545  0.00  0.00    +0.000 HD
ENDBRANCH  88  91
ENDBRANCH   5  85
BRANCH   1  93
ATOM     93  C   UNL     1      -3.222   3.947 126.333  0.00  0.00    +0.000 C 
ATOM     94  C   UNL     1      -2.159   4.789 126.935  0.00  0.00    +0.000 C 
BRANCH  93  96
ATOM     95  C   UNL     1      -1.159   2.787 126.594  0.00  0.00    +0.000 C 
ATOM     96  C   UNL     1      -2.464   2.529 125.965  0.00  0.00    +0.000 C 
ENDBRANCH  93  96
ENDBRANCH   1  93
BRANCH  18  97
ATOM     97  C   UNL     1      -6.042   1.488 132.916  0.00  0.00    +0.000 C 
BRANCH  97  98
ATOM     98  C   UNL     1      -5.289   2.554 134.425  0.00  0.00    +0.000 C 
ATOM     99  N   UNL     1      -3.571   3.094 134.201  0.00  0.00    +0.000 N 
ATOM    100  O   UNL     1      -5.956   3.124 135.275  0.00  0.00    +0.000 OA
ATOM    101  H   UNL     1      -3.162   2.503 133.339  0.00  0.00    +0.000 HD
ATOM    102  H   UNL     1      -2.708   3.590 134.363  0.00  0.00    +0.000 HD
ENDBRANCH  97  98
ENDBRANCH  18  97
BRANCH  22 103
ATOM    103  C   UNL     1      -7.025   0.975 128.549  0.00  0.00    +0.000 C 
BRANCH 103 104
ATOM    104  C   UNL     1      -7.276  -0.327 127.890  0.00  0.00    +0.000 C 
BRANCH 104 105
ATOM    105  C   UNL     1      -7.753  -1.563 128.577  0.00  0.00    +0.000 C 
ATOM    106  N   UNL     1      -8.171  -2.518 127.734  0.00  0.00    +0.000 N 
ATOM    107  O   UNL     1      -7.887  -1.727 129.785  0.00  0.00    +0.000 OA
ATOM    108  H   UNL     1      -8.426  -2.249 126.785  0.00  0.00    +0.000 HD
ATOM    109  H   UNL     1      -8.667  -3.280 128.165  0.00  0.00    +0.000 HD
ENDBRANCH 104 105
ENDBRANCH 103 104
ENDBRANCH  22 103
TORSDOF 22
ENDMDL
