MODEL 1
REMARK VINA RESULT:     -10.8      0.000      0.000
REMARK  Name = CHEMBL69201
REMARK  7 active torsions:
REMARK  status: ('A' for Active; 'I' for Inactive)
REMARK    1  A    between atoms: C_1  and  O_2
REMARK    2  A    between atoms: O_2  and  C_3
REMARK    3  A    between atoms: C_5  and  O_6
REMARK    4  A    between atoms: O_6  and  C_7
REMARK    5  A    between atoms: N_10  and  C_11
REMARK    6  A    between atoms: C_26  and  C_27
REMARK    7  A    between atoms: C_32  and  N_33
REMARK                            x       y       z     vdW  Elec       q    Type
REMARK                         _______ _______ _______ _____ _____    ______ ____
ROOT
ATOM      1  C   UNL     1      -6.883   2.902 126.825  0.00  0.00    +0.000 A 
ATOM      2  C   UNL     1      -7.200   1.988 125.672  0.00  0.00    +0.000 A 
ATOM      3  C   UNL     1      -6.413   0.975 125.275  0.00  0.00    +0.000 A 
ATOM      4  C   UNL     1      -5.325   1.191 125.937  0.00  0.00    +0.000 A 
ATOM      5  C   UNL     1      -5.003   1.963 127.021  0.00  0.00    +0.000 A 
ATOM      6  C   UNL     1      -5.724   2.913 127.597  0.00  0.00    +0.000 A 
ENDROOT
BRANCH   6   7
ATOM      7  C   UNL     1      -5.113   3.791 128.766  0.00  0.00    +0.000 C 
ATOM      8  O   UNL     1      -3.933   4.154 128.813  0.00  0.00    +0.000 OA
ATOM      9  N   UNL     1      -5.970   4.315 129.757  0.00  0.00    +0.000 N 
ATOM     10  C   UNL     1      -6.242   5.797 129.674  0.00  0.00    +0.000 C 
ATOM     11  C   UNL     1      -6.630   6.375 131.001  0.00  0.00    +0.000 C 
ATOM     12  C   UNL     1      -8.263   5.852 131.399  0.00  0.00    +0.000 C 
ATOM     13  C   UNL     1      -7.595   4.134 131.601  0.00  0.00    +0.000 C 
ATOM     14  C   UNL     1      -7.008   3.464 130.377  0.00  0.00    +0.000 C 
BRANCH  12  15
ATOM     15  N   UNL     1      -9.638   7.042 130.742  0.00  0.00    +0.000 N 
ATOM     16  C   UNL     1     -10.292   6.419 131.888  0.00  0.00    +0.000 C 
ATOM     17  O   UNL     1     -10.014   6.514 133.011  0.00  0.00    +0.000 OA
ATOM     18  O   UNL     1     -11.278   5.556 131.492  0.00  0.00    +0.000 OA
ATOM     19  C   UNL     1     -12.245   6.507 131.325  0.00  0.00    +0.000 C 
ATOM     20  C   UNL     1     -12.158   6.737 129.865  0.00  0.00    +0.000 A 
ATOM     21  C   UNL     1     -12.035   6.567 128.464  0.00  0.00    +0.000 A 
ATOM     22  C   UNL     1     -12.702   7.481 127.544  0.00  0.00    +0.000 A 
ATOM     23  C   UNL     1     -13.283   8.482 128.202  0.00  0.00    +0.000 A 
ATOM     24  C   UNL     1     -12.410   8.723 129.452  0.00  0.00    +0.000 A 
ATOM     25  C   UNL     1     -11.207   7.632 129.977  0.00  0.00    +0.000 A 
ENDBRANCH  12  15
ENDBRANCH   6   7
BRANCH   1  27
ATOM     26  C   UNL     1      -8.002   4.708 126.073  0.00  0.00    +0.000 C 
ATOM     27  O   UNL     1      -7.970   3.689 127.024  0.00  0.00    +0.000 OA
ENDBRANCH   1  27
BRANCH   3  28
ATOM     28  O   UNL     1      -6.427  -0.082 124.435  0.00  0.00    +0.000 OA
BRANCH  28  29
ATOM     29  C   UNL     1      -6.806  -1.490 124.917  0.00  0.00    +0.000 C 
ATOM     30  C   UNL     1      -8.186  -1.684 125.641  0.00  0.00    +0.000 C 
ATOM     31  C   UNL     1      -8.208  -1.313 127.148  0.00  0.00    +0.000 C 
ATOM     32  N   UNL     1      -6.993  -1.785 127.929  0.00  0.00    +0.000 NA
ATOM     33  C   UNL     1      -5.622  -1.933 127.209  0.00  0.00    +0.000 C 
ATOM     34  C   UNL     1      -5.709  -2.274 125.703  0.00  0.00    +0.000 C 
BRANCH  32  35
ATOM     35  C   UNL     1      -6.943  -1.326 129.396  0.00  0.00    +0.000 C 
ATOM     36  C   UNL     1      -6.316  -0.011 130.088  0.00  0.00    +0.000 C 
ATOM     37  C   UNL     1      -4.747   0.054 129.788  0.00  0.00    +0.000 C 
ATOM     38  C   UNL     1      -4.113  -1.006 130.603  0.00  0.00    +0.000 C 
ATOM     39  C   UNL     1      -4.884  -2.279 130.558  0.00  0.00    +0.000 A 
ATOM     40  C   UNL     1      -6.213  -2.443 130.087  0.00  0.00    +0.000 A 
ATOM     41  C   UNL     1      -6.770  -3.716 130.009  0.00  0.00    +0.000 A 
ATOM     42  C   UNL     1      -6.054  -4.791 130.484  0.00  0.00    +0.000 A 
ATOM     43  C   UNL     1      -4.785  -4.593 131.016  0.00  0.00    +0.000 A 
ATOM     44  N   UNL     1      -4.184  -3.358 131.038  0.00  0.00    +0.000 N 
ATOM     45  O   UNL     1      -3.005  -3.232 131.498  0.00  0.00    +0.000 OA
ENDBRANCH  32  35
ENDBRANCH  28  29
ENDBRANCH   3  28
TORSDOF 6
ENDMDL
MODEL 2
REMARK VINA RESULT:     -10.6      3.905      8.075
REMARK  Name = CHEMBL69201
REMARK  7 active torsions:
REMARK  status: ('A' for Active; 'I' for Inactive)
REMARK    1  A    between atoms: C_1  and  O_2
REMARK    2  A    between atoms: O_2  and  C_3
REMARK    3  A    between atoms: C_5  and  O_6
REMARK    4  A    between atoms: O_6  and  C_7
REMARK    5  A    between atoms: N_10  and  C_11
REMARK    6  A    between atoms: C_26  and  C_27
REMARK    7  A    between atoms: C_32  and  N_33
REMARK                            x       y       z     vdW  Elec       q    Type
REMARK                         _______ _______ _______ _____ _____    ______ ____
ROOT
ATOM      1  C   UNL     1      -3.384   4.008 128.017  0.00  0.00    +0.000 A 
ATOM      2  C   UNL     1      -4.256   2.784 127.941  0.00  0.00    +0.000 A 
ATOM      3  C   UNL     1      -5.195   2.470 128.848  0.00  0.00    +0.000 A 
ATOM      4  C   UNL     1      -4.945   3.297 129.807  0.00  0.00    +0.000 A 
ATOM      5  C   UNL     1      -4.211   4.448 129.910  0.00  0.00    +0.000 A 
ATOM      6  C   UNL     1      -3.340   4.947 129.046  0.00  0.00    +0.000 A 
ENDROOT
BRANCH   6   7
ATOM      7  C   UNL     1      -2.487   6.231 129.413  0.00  0.00    +0.000 C 
ATOM      8  O   UNL     1      -2.177   7.110 128.602  0.00  0.00    +0.000 OA
ATOM      9  N   UNL     1      -2.161   6.481 130.762  0.00  0.00    +0.000 N 
ATOM     10  C   UNL     1      -2.920   7.604 131.425  0.00  0.00    +0.000 C 
ATOM     11  C   UNL     1      -2.166   8.193 132.579  0.00  0.00    +0.000 C 
ATOM     12  C   UNL     1      -2.196   7.056 133.923  0.00  0.00    +0.000 C 
ATOM     13  C   UNL     1      -1.102   5.942 132.922  0.00  0.00    +0.000 C 
ATOM     14  C   UNL     1      -1.662   5.391 131.628  0.00  0.00    +0.000 C 
BRANCH  12  15
ATOM     15  N   UNL     1      -3.713   7.288 135.099  0.00  0.00    +0.000 N 
ATOM     16  C   UNL     1      -2.800   6.506 135.925  0.00  0.00    +0.000 C 
ATOM     17  O   UNL     1      -1.763   6.820 136.344  0.00  0.00    +0.000 OA
ATOM     18  O   UNL     1      -3.252   5.225 136.095  0.00  0.00    +0.000 OA
ATOM     19  C   UNL     1      -4.106   5.508 137.123  0.00  0.00    +0.000 C 
ATOM     20  C   UNL     1      -5.388   5.634 136.392  0.00  0.00    +0.000 A 
ATOM     21  C   UNL     1      -6.471   5.446 135.499  0.00  0.00    +0.000 A 
ATOM     22  C   UNL     1      -7.830   5.798 135.895  0.00  0.00    +0.000 A 
ATOM     23  C   UNL     1      -7.842   6.390 137.087  0.00  0.00    +0.000 A 
ATOM     24  C   UNL     1      -6.502   7.151 137.190  0.00  0.00    +0.000 A 
ATOM     25  C   UNL     1      -5.202   6.902 136.114  0.00  0.00    +0.000 A 
ENDBRANCH  12  15
ENDBRANCH   6   7
BRANCH   1  27
ATOM     26  C   UNL     1      -1.749   3.037 126.810  0.00  0.00    +0.000 C 
ATOM     27  O   UNL     1      -2.680   4.074 126.861  0.00  0.00    +0.000 OA
ENDBRANCH   1  27
BRANCH   3  28
ATOM     28  O   UNL     1      -6.206   1.594 129.033  0.00  0.00    +0.000 OA
BRANCH  28  29
ATOM     29  C   UNL     1      -7.634   1.897 128.556  0.00  0.00    +0.000 C 
ATOM     30  C   UNL     1      -7.845   3.071 127.534  0.00  0.00    +0.000 C 
ATOM     31  C   UNL     1      -7.897   4.494 128.152  0.00  0.00    +0.000 C 
ATOM     32  N   UNL     1      -8.711   4.593 129.432  0.00  0.00    +0.000 NA
ATOM     33  C   UNL     1      -8.825   3.359 130.372  0.00  0.00    +0.000 C 
ATOM     34  C   UNL     1      -8.731   1.988 129.662  0.00  0.00    +0.000 C 
BRANCH  32  35
ATOM     35  C   UNL     1      -8.677   5.968 130.119  0.00  0.00    +0.000 C 
ATOM     36  C   UNL     1      -8.386   6.398 131.647  0.00  0.00    +0.000 C 
ATOM     37  C   UNL     1      -9.453   5.700 132.610  0.00  0.00    +0.000 C 
ATOM     38  C   UNL     1     -10.745   6.385 132.381  0.00  0.00    +0.000 C 
ATOM     39  C   UNL     1     -11.005   6.614 130.933  0.00  0.00    +0.000 A 
ATOM     40  C   UNL     1     -10.058   6.512 129.881  0.00  0.00    +0.000 A 
ATOM     41  C   UNL     1     -10.470   6.653 128.559  0.00  0.00    +0.000 A 
ATOM     42  C   UNL     1     -11.779   6.990 128.298  0.00  0.00    +0.000 A 
ATOM     43  C   UNL     1     -12.669   7.164 129.351  0.00  0.00    +0.000 A 
ATOM     44  N   UNL     1     -12.305   6.959 130.660  0.00  0.00    +0.000 N 
ATOM     45  O   UNL     1     -13.165   7.092 131.588  0.00  0.00    +0.000 OA
ENDBRANCH  32  35
ENDBRANCH  28  29
ENDBRANCH   3  28
TORSDOF 6
ENDMDL
MODEL 3
REMARK VINA RESULT:     -10.6      2.662      5.577
REMARK  Name = CHEMBL69201
REMARK  7 active torsions:
REMARK  status: ('A' for Active; 'I' for Inactive)
REMARK    1  A    between atoms: C_1  and  O_2
REMARK    2  A    between atoms: O_2  and  C_3
REMARK    3  A    between atoms: C_5  and  O_6
REMARK    4  A    between atoms: O_6  and  C_7
REMARK    5  A    between atoms: N_10  and  C_11
REMARK    6  A    between atoms: C_26  and  C_27
REMARK    7  A    between atoms: C_32  and  N_33
REMARK                            x       y       z     vdW  Elec       q    Type
REMARK                         _______ _______ _______ _____ _____    ______ ____
ROOT
ATOM      1  C   UNL     1      -7.350  -0.998 128.240  0.00  0.00    +0.000 A 
ATOM      2  C   UNL     1      -8.150  -1.517 127.076  0.00  0.00    +0.000 A 
ATOM      3  C   UNL     1      -8.938  -0.753 126.303  0.00  0.00    +0.000 A 
ATOM      4  C   UNL     1      -8.989   0.355 126.964  0.00  0.00    +0.000 A 
ATOM      5  C   UNL     1      -8.252   0.894 127.984  0.00  0.00    +0.000 A 
ATOM      6  C   UNL     1      -7.353   0.297 128.752  0.00  0.00    +0.000 A 
ENDROOT
BRANCH   6   7
ATOM      7  C   UNL     1      -6.703   1.065 129.977  0.00  0.00    +0.000 C 
ATOM      8  O   UNL     1      -5.506   1.004 130.274  0.00  0.00    +0.000 OA
ATOM      9  N   UNL     1      -7.484   1.984 130.709  0.00  0.00    +0.000 N 
ATOM     10  C   UNL     1      -7.174   3.442 130.477  0.00  0.00    +0.000 C 
ATOM     11  C   UNL     1      -7.573   4.298 131.641  0.00  0.00    +0.000 C 
ATOM     12  C   UNL     1      -9.328   4.428 131.681  0.00  0.00    +0.000 C 
ATOM     13  C   UNL     1      -9.389   2.631 132.135  0.00  0.00    +0.000 C 
ATOM     14  C   UNL     1      -8.861   1.636 131.121  0.00  0.00    +0.000 C 
BRANCH  12  15
ATOM     15  N   UNL     1     -10.018   5.914 130.654  0.00  0.00    +0.000 N 
ATOM     16  C   UNL     1     -10.525   6.203 131.990  0.00  0.00    +0.000 C 
ATOM     17  O   UNL     1      -9.920   6.466 132.946  0.00  0.00    +0.000 OA
ATOM     18  O   UNL     1     -11.879   6.020 132.061  0.00  0.00    +0.000 OA
ATOM     19  C   UNL     1     -12.218   7.243 131.555  0.00  0.00    +0.000 C 
ATOM     20  C   UNL     1     -12.462   6.898 130.137  0.00  0.00    +0.000 A 
ATOM     21  C   UNL     1     -12.866   6.254 128.941  0.00  0.00    +0.000 A 
ATOM     22  C   UNL     1     -13.204   7.033 127.755  0.00  0.00    +0.000 A 
ATOM     23  C   UNL     1     -12.962   8.328 127.950  0.00  0.00    +0.000 A 
ATOM     24  C   UNL     1     -11.765   8.388 128.923  0.00  0.00    +0.000 A 
ATOM     25  C   UNL     1     -11.203   7.036 129.798  0.00  0.00    +0.000 A 
ENDBRANCH  12  15
ENDBRANCH   6   7
BRANCH   1  27
ATOM     26  C   UNL     1      -5.439  -2.129 127.856  0.00  0.00    +0.000 C 
ATOM     27  O   UNL     1      -6.564  -2.014 128.673  0.00  0.00    +0.000 OA
ENDBRANCH   1  27
BRANCH   3  28
ATOM     28  O   UNL     1      -9.650  -0.823 125.157  0.00  0.00    +0.000 OA
BRANCH  28  29
ATOM     29  C   UNL     1      -8.970  -1.035 123.796  0.00  0.00    +0.000 C 
ATOM     30  C   UNL     1      -7.469  -0.603 123.638  0.00  0.00    +0.000 C 
ATOM     31  C   UNL     1      -7.233   0.907 123.366  0.00  0.00    +0.000 C 
ATOM     32  N   UNL     1      -8.195   1.522 122.362  0.00  0.00    +0.000 NA
ATOM     33  C   UNL     1      -9.633   0.947 122.218  0.00  0.00    +0.000 C 
ATOM     34  C   UNL     1      -9.767  -0.560 122.541  0.00  0.00    +0.000 C 
BRANCH  32  35
ATOM     35  C   UNL     1      -8.049   3.041 122.169  0.00  0.00    +0.000 C 
ATOM     36  C   UNL     1      -7.122   3.913 121.177  0.00  0.00    +0.000 C 
ATOM     37  C   UNL     1      -5.584   3.582 121.455  0.00  0.00    +0.000 C 
ATOM     38  C   UNL     1      -5.243   4.202 122.755  0.00  0.00    +0.000 C 
ATOM     39  C   UNL     1      -6.306   3.981 123.774  0.00  0.00    +0.000 A 
ATOM     40  C   UNL     1      -7.629   3.528 123.527  0.00  0.00    +0.000 A 
ATOM     41  C   UNL     1      -8.483   3.266 124.593  0.00  0.00    +0.000 A 
ATOM     42  C   UNL     1      -8.064   3.546 125.873  0.00  0.00    +0.000 A 
ATOM     43  C   UNL     1      -6.791   4.067 126.083  0.00  0.00    +0.000 A 
ATOM     44  N   UNL     1      -5.902   4.266 125.055  0.00  0.00    +0.000 N 
ATOM     45  O   UNL     1      -4.734   4.706 125.299  0.00  0.00    +0.000 OA
ENDBRANCH  32  35
ENDBRANCH  28  29
ENDBRANCH   3  28
TORSDOF 6
ENDMDL
MODEL 4
REMARK VINA RESULT:     -10.6      3.562      4.627
REMARK  Name = CHEMBL69201
REMARK  7 active torsions:
REMARK  status: ('A' for Active; 'I' for Inactive)
REMARK    1  A    between atoms: C_1  and  O_2
REMARK    2  A    between atoms: O_2  and  C_3
REMARK    3  A    between atoms: C_5  and  O_6
REMARK    4  A    between atoms: O_6  and  C_7
REMARK    5  A    between atoms: N_10  and  C_11
REMARK    6  A    between atoms: C_26  and  C_27
REMARK    7  A    between atoms: C_32  and  N_33
REMARK                            x       y       z     vdW  Elec       q    Type
REMARK                         _______ _______ _______ _____ _____    ______ ____
ROOT
ATOM      1  C   UNL     1      -7.936   1.789 125.098  0.00  0.00    +0.000 A 
ATOM      2  C   UNL     1      -8.677   0.508 124.826  0.00  0.00    +0.000 A 
ATOM      3  C   UNL     1      -8.174  -0.518 124.121  0.00  0.00    +0.000 A 
ATOM      4  C   UNL     1      -7.111  -0.004 123.599  0.00  0.00    +0.000 A 
ATOM      5  C   UNL     1      -6.371   1.120 123.848  0.00  0.00    +0.000 A 
ATOM      6  C   UNL     1      -6.683   2.156 124.613  0.00  0.00    +0.000 A 
ENDROOT
BRANCH   6   7
ATOM      7  C   UNL     1      -5.743   3.431 124.664  0.00  0.00    +0.000 C 
ATOM      8  O   UNL     1      -5.726   4.311 123.798  0.00  0.00    +0.000 OA
ATOM      9  N   UNL     1      -4.966   3.671 125.816  0.00  0.00    +0.000 N 
ATOM     10  C   UNL     1      -5.436   4.796 126.705  0.00  0.00    +0.000 C 
ATOM     11  C   UNL     1      -4.322   5.372 127.526  0.00  0.00    +0.000 C 
ATOM     12  C   UNL     1      -3.893   4.227 128.793  0.00  0.00    +0.000 C 
ATOM     13  C   UNL     1      -3.226   3.111 127.472  0.00  0.00    +0.000 C 
ATOM     14  C   UNL     1      -4.207   2.571 126.451  0.00  0.00    +0.000 C 
BRANCH  12  15
ATOM     15  N   UNL     1      -4.904   4.465 130.424  0.00  0.00    +0.000 N 
ATOM     16  C   UNL     1      -3.602   4.042 130.928  0.00  0.00    +0.000 C 
ATOM     17  O   UNL     1      -2.588   4.603 130.857  0.00  0.00    +0.000 OA
ATOM     18  O   UNL     1      -3.654   2.774 131.442  0.00  0.00    +0.000 OA
ATOM     19  C   UNL     1      -4.128   3.134 132.671  0.00  0.00    +0.000 C 
ATOM     20  C   UNL     1      -5.577   2.888 132.492  0.00  0.00    +0.000 A 
ATOM     21  C   UNL     1      -6.831   2.335 132.132  0.00  0.00    +0.000 A 
ATOM     22  C   UNL     1      -8.003   2.542 132.975  0.00  0.00    +0.000 A 
ATOM     23  C   UNL     1      -7.729   3.372 133.979  0.00  0.00    +0.000 A 
ATOM     24  C   UNL     1      -6.657   4.343 133.438  0.00  0.00    +0.000 A 
ATOM     25  C   UNL     1      -5.803   4.076 131.986  0.00  0.00    +0.000 A 
ENDBRANCH  12  15
ENDBRANCH   6   7
BRANCH   1  27
ATOM     26  C   UNL     1      -8.169   2.405 127.253  0.00  0.00    +0.000 C 
ATOM     27  O   UNL     1      -8.688   2.513 125.963  0.00  0.00    +0.000 OA
ENDBRANCH   1  27
BRANCH   3  28
ATOM     28  O   UNL     1      -8.458  -1.801 123.810  0.00  0.00    +0.000 OA
BRANCH  28  29
ATOM     29  C   UNL     1      -7.781  -2.976 124.531  0.00  0.00    +0.000 C 
ATOM     30  C   UNL     1      -8.602  -3.757 125.618  0.00  0.00    +0.000 C 
ATOM     31  C   UNL     1      -8.645  -3.099 127.023  0.00  0.00    +0.000 C 
ATOM     32  N   UNL     1      -7.314  -2.537 127.494  0.00  0.00    +0.000 NA
ATOM     33  C   UNL     1      -6.281  -2.020 126.452  0.00  0.00    +0.000 C 
ATOM     34  C   UNL     1      -6.341  -2.720 125.074  0.00  0.00    +0.000 C 
BRANCH  32  35
ATOM     35  C   UNL     1      -7.364  -1.780 128.832  0.00  0.00    +0.000 C 
ATOM     36  C   UNL     1      -7.067  -0.238 129.205  0.00  0.00    +0.000 C 
ATOM     37  C   UNL     1      -5.564   0.128 128.805  0.00  0.00    +0.000 C 
ATOM     38  C   UNL     1      -4.685  -0.557 129.779  0.00  0.00    +0.000 C 
ATOM     39  C   UNL     1      -5.126  -1.956 130.040  0.00  0.00    +0.000 A 
ATOM     40  C   UNL     1      -6.380  -2.522 129.691  0.00  0.00    +0.000 A 
ATOM     41  C   UNL     1      -6.613  -3.877 129.906  0.00  0.00    +0.000 A 
ATOM     42  C   UNL     1      -5.655  -4.629 130.546  0.00  0.00    +0.000 A 
ATOM     43  C   UNL     1      -4.466  -4.031 130.950  0.00  0.00    +0.000 A 
ATOM     44  N   UNL     1      -4.181  -2.713 130.686  0.00  0.00    +0.000 N 
ATOM     45  O   UNL     1      -3.064  -2.221 131.041  0.00  0.00    +0.000 OA
ENDBRANCH  32  35
ENDBRANCH  28  29
ENDBRANCH   3  28
TORSDOF 6
ENDMDL
MODEL 5
REMARK VINA RESULT:     -10.5      3.323      6.461
REMARK  Name = CHEMBL69201
REMARK  7 active torsions:
REMARK  status: ('A' for Active; 'I' for Inactive)
REMARK    1  A    between atoms: C_1  and  O_2
REMARK    2  A    between atoms: O_2  and  C_3
REMARK    3  A    between atoms: C_5  and  O_6
REMARK    4  A    between atoms: O_6  and  C_7
REMARK    5  A    between atoms: N_10  and  C_11
REMARK    6  A    between atoms: C_26  and  C_27
REMARK    7  A    between atoms: C_32  and  N_33
REMARK                            x       y       z     vdW  Elec       q    Type
REMARK                         _______ _______ _______ _____ _____    ______ ____
ROOT
ATOM      1  C   UNL     1      -6.187  -1.754 130.148  0.00  0.00    +0.000 A 
ATOM      2  C   UNL     1      -6.238  -2.439 128.809  0.00  0.00    +0.000 A 
ATOM      3  C   UNL     1      -7.364  -2.899 128.240  0.00  0.00    +0.000 A 
ATOM      4  C   UNL     1      -8.218  -2.818 129.205  0.00  0.00    +0.000 A 
ATOM      5  C   UNL     1      -8.242  -2.164 130.408  0.00  0.00    +0.000 A 
ATOM      6  C   UNL     1      -7.243  -1.560 131.035  0.00  0.00    +0.000 A 
ENDROOT
BRANCH   6   7
ATOM      7  C   UNL     1      -7.445  -0.976 132.494  0.00  0.00    +0.000 C 
ATOM      8  O   UNL     1      -7.437  -1.662 133.521  0.00  0.00    +0.000 OA
ATOM      9  N   UNL     1      -7.506   0.422 132.676  0.00  0.00    +0.000 N 
ATOM     10  C   UNL     1      -6.288   1.058 133.300  0.00  0.00    +0.000 C 
ATOM     11  C   UNL     1      -6.614   2.350 133.987  0.00  0.00    +0.000 C 
ATOM     12  C   UNL     1      -6.932   3.581 132.769  0.00  0.00    +0.000 C 
ATOM     13  C   UNL     1      -8.480   2.661 132.333  0.00  0.00    +0.000 C 
ATOM     14  C   UNL     1      -8.328   1.260 131.776  0.00  0.00    +0.000 C 
BRANCH  12  15
ATOM     15  N   UNL     1      -5.350   4.546 132.214  0.00  0.00    +0.000 N 
ATOM     16  C   UNL     1      -6.360   5.599 132.240  0.00  0.00    +0.000 C 
ATOM     17  O   UNL     1      -6.933   6.021 133.157  0.00  0.00    +0.000 OA
ATOM     18  O   UNL     1      -6.683   6.011 130.976  0.00  0.00    +0.000 OA
ATOM     19  C   UNL     1      -5.635   6.876 130.832  0.00  0.00    +0.000 C 
ATOM     20  C   UNL     1      -4.680   6.032 130.080  0.00  0.00    +0.000 A 
ATOM     21  C   UNL     1      -4.092   5.117 129.172  0.00  0.00    +0.000 A 
ATOM     22  C   UNL     1      -2.725   5.310 128.702  0.00  0.00    +0.000 A 
ATOM     23  C   UNL     1      -2.147   6.335 129.324  0.00  0.00    +0.000 A 
ATOM     24  C   UNL     1      -2.774   6.376 130.735  0.00  0.00    +0.000 A 
ATOM     25  C   UNL     1      -4.171   5.494 131.162  0.00  0.00    +0.000 A 
ENDBRANCH  12  15
ENDBRANCH   6   7
BRANCH   1  27
ATOM     26  C   UNL     1      -4.006  -2.245 129.872  0.00  0.00    +0.000 C 
ATOM     27  O   UNL     1      -4.923  -1.293 130.316  0.00  0.00    +0.000 OA
ENDBRANCH   1  27
BRANCH   3  28
ATOM     28  O   UNL     1      -7.802  -3.404 127.067  0.00  0.00    +0.000 OA
BRANCH  28  29
ATOM     29  C   UNL     1      -7.891  -2.541 125.799  0.00  0.00    +0.000 C 
ATOM     30  C   UNL     1      -6.575  -2.277 124.984  0.00  0.00    +0.000 C 
ATOM     31  C   UNL     1      -5.669  -1.140 125.528  0.00  0.00    +0.000 C 
ATOM     32  N   UNL     1      -6.421   0.105 125.970  0.00  0.00    +0.000 NA
ATOM     33  C   UNL     1      -7.876  -0.021 126.506  0.00  0.00    +0.000 C 
ATOM     34  C   UNL     1      -8.685  -1.203 125.924  0.00  0.00    +0.000 C 
BRANCH  32  35
ATOM     35  C   UNL     1      -5.551   1.194 126.618  0.00  0.00    +0.000 C 
ATOM     36  C   UNL     1      -5.129   1.460 128.153  0.00  0.00    +0.000 C 
ATOM     37  C   UNL     1      -6.443   1.677 129.037  0.00  0.00    +0.000 C 
ATOM     38  C   UNL     1      -6.985   3.005 128.676  0.00  0.00    +0.000 C 
ATOM     39  C   UNL     1      -6.965   3.233 127.204  0.00  0.00    +0.000 A 
ATOM     40  C   UNL     1      -6.251   2.470 126.243  0.00  0.00    +0.000 A 
ATOM     41  C   UNL     1      -6.410   2.737 124.887  0.00  0.00    +0.000 A 
ATOM     42  C   UNL     1      -7.186   3.806 124.501  0.00  0.00    +0.000 A 
ATOM     43  C   UNL     1      -7.811   4.588 125.466  0.00  0.00    +0.000 A 
ATOM     44  N   UNL     1      -7.729   4.303 126.808  0.00  0.00    +0.000 N 
ATOM     45  O   UNL     1      -8.350   5.023 127.651  0.00  0.00    +0.000 OA
ENDBRANCH  32  35
ENDBRANCH  28  29
ENDBRANCH   3  28
TORSDOF 6
ENDMDL
MODEL 6
REMARK VINA RESULT:     -10.4      2.677      8.251
REMARK  Name = CHEMBL69201
REMARK  7 active torsions:
REMARK  status: ('A' for Active; 'I' for Inactive)
REMARK    1  A    between atoms: C_1  and  O_2
REMARK    2  A    between atoms: O_2  and  C_3
REMARK    3  A    between atoms: C_5  and  O_6
REMARK    4  A    between atoms: O_6  and  C_7
REMARK    5  A    between atoms: N_10  and  C_11
REMARK    6  A    between atoms: C_26  and  C_27
REMARK    7  A    between atoms: C_32  and  N_33
REMARK                            x       y       z     vdW  Elec       q    Type
REMARK                         _______ _______ _______ _____ _____    ______ ____
ROOT
ATOM      1  C   UNL     1      -6.168   5.749 132.938  0.00  0.00    +0.000 A 
ATOM      2  C   UNL     1      -7.200   6.365 132.031  0.00  0.00    +0.000 A 
ATOM      3  C   UNL     1      -8.521   6.151 132.139  0.00  0.00    +0.000 A 
ATOM      4  C   UNL     1      -8.579   5.170 132.976  0.00  0.00    +0.000 A 
ATOM      5  C   UNL     1      -7.692   4.614 133.859  0.00  0.00    +0.000 A 
ATOM      6  C   UNL     1      -6.387   4.819 133.952  0.00  0.00    +0.000 A 
ENDROOT
BRANCH   6   7
ATOM      7  C   UNL     1      -5.508   3.969 134.959  0.00  0.00    +0.000 C 
ATOM      8  O   UNL     1      -5.499   4.140 136.183  0.00  0.00    +0.000 OA
ATOM      9  N   UNL     1      -4.785   2.857 134.478  0.00  0.00    +0.000 N 
ATOM     10  C   UNL     1      -5.337   1.503 134.847  0.00  0.00    +0.000 C 
ATOM     11  C   UNL     1      -4.281   0.439 134.837  0.00  0.00    +0.000 C 
ATOM     12  C   UNL     1      -3.848   0.077 133.170  0.00  0.00    +0.000 C 
ATOM     13  C   UNL     1      -3.083   1.763 133.068  0.00  0.00    +0.000 C 
ATOM     14  C   UNL     1      -4.001   2.958 133.227  0.00  0.00    +0.000 C 
BRANCH  12  15
ATOM     15  N   UNL     1      -4.927  -1.317 132.375  0.00  0.00    +0.000 N 
ATOM     16  C   UNL     1      -3.578  -1.718 131.995  0.00  0.00    +0.000 C 
ATOM     17  O   UNL     1      -2.710  -2.061 132.685  0.00  0.00    +0.000 OA
ATOM     18  O   UNL     1      -3.364  -1.543 130.654  0.00  0.00    +0.000 OA
ATOM     19  C   UNL     1      -3.936  -2.719 130.260  0.00  0.00    +0.000 C 
ATOM     20  C   UNL     1      -5.291  -2.254 129.885  0.00  0.00    +0.000 A 
ATOM     21  C   UNL     1      -6.385  -1.512 129.375  0.00  0.00    +0.000 A 
ATOM     22  C   UNL     1      -7.595  -2.188 128.920  0.00  0.00    +0.000 A 
ATOM     23  C   UNL     1      -7.534  -3.494 129.169  0.00  0.00    +0.000 A 
ATOM     24  C   UNL     1      -6.687  -3.636 130.453  0.00  0.00    +0.000 A 
ATOM     25  C   UNL     1      -5.759  -2.362 131.105  0.00  0.00    +0.000 A 
ENDBRANCH  12  15
ENDBRANCH   6   7
BRANCH   1  27
ATOM     26  C   UNL     1      -5.006   6.820 131.332  0.00  0.00    +0.000 C 
ATOM     27  O   UNL     1      -4.974   6.314 132.631  0.00  0.00    +0.000 OA
ENDBRANCH   1  27
BRANCH   3  28
ATOM     28  O   UNL     1      -9.689   6.608 131.639  0.00  0.00    +0.000 OA
BRANCH  28  29
ATOM     29  C   UNL     1     -10.289   6.043 130.343  0.00  0.00    +0.000 C 
ATOM     30  C   UNL     1     -11.284   4.832 130.447  0.00  0.00    +0.000 C 
ATOM     31  C   UNL     1     -10.624   3.435 130.589  0.00  0.00    +0.000 C 
ATOM     32  N   UNL     1      -9.424   3.212 129.683  0.00  0.00    +0.000 NA
ATOM     33  C   UNL     1      -8.543   4.422 129.257  0.00  0.00    +0.000 C 
ATOM     34  C   UNL     1      -9.289   5.774 129.175  0.00  0.00    +0.000 C 
BRANCH  32  35
ATOM     35  C   UNL     1      -8.688   1.878 129.893  0.00  0.00    +0.000 C 
ATOM     36  C   UNL     1      -7.619   1.406 131.006  0.00  0.00    +0.000 C 
ATOM     37  C   UNL     1      -6.335   2.355 130.948  0.00  0.00    +0.000 C 
ATOM     38  C   UNL     1      -5.603   2.008 129.710  0.00  0.00    +0.000 C 
ATOM     39  C   UNL     1      -6.522   1.834 128.550  0.00  0.00    +0.000 A 
ATOM     40  C   UNL     1      -7.933   1.689 128.608  0.00  0.00    +0.000 A 
ATOM     41  C   UNL     1      -8.674   1.640 127.432  0.00  0.00    +0.000 A 
ATOM     42  C   UNL     1      -8.015   1.634 126.224  0.00  0.00    +0.000 A 
ATOM     43  C   UNL     1      -6.626   1.695 126.196  0.00  0.00    +0.000 A 
ATOM     44  N   UNL     1      -5.875   1.818 127.340  0.00  0.00    +0.000 N 
ATOM     45  O   UNL     1      -4.609   1.910 127.263  0.00  0.00    +0.000 OA
ENDBRANCH  32  35
ENDBRANCH  28  29
ENDBRANCH   3  28
TORSDOF 6
ENDMDL
MODEL 7
REMARK VINA RESULT:     -10.3      2.236      4.849
REMARK  Name = CHEMBL69201
REMARK  7 active torsions:
REMARK  status: ('A' for Active; 'I' for Inactive)
REMARK    1  A    between atoms: C_1  and  O_2
REMARK    2  A    between atoms: O_2  and  C_3
REMARK    3  A    between atoms: C_5  and  O_6
REMARK    4  A    between atoms: O_6  and  C_7
REMARK    5  A    between atoms: N_10  and  C_11
REMARK    6  A    between atoms: C_26  and  C_27
REMARK    7  A    between atoms: C_32  and  N_33
REMARK                            x       y       z     vdW  Elec       q    Type
REMARK                         _______ _______ _______ _____ _____    ______ ____
ROOT
ATOM      1  C   UNL     1      -5.912   0.476 131.309  0.00  0.00    +0.000 A 
ATOM      2  C   UNL     1      -6.735  -0.775 131.167  0.00  0.00    +0.000 A 
ATOM      3  C   UNL     1      -7.595  -1.002 130.161  0.00  0.00    +0.000 A 
ATOM      4  C   UNL     1      -7.673   0.155 129.594  0.00  0.00    +0.000 A 
ATOM      5  C   UNL     1      -6.920   1.297 129.645  0.00  0.00    +0.000 A 
ATOM      6  C   UNL     1      -5.959   1.610 130.501  0.00  0.00    +0.000 A 
ENDROOT
BRANCH   6   7
ATOM      7  C   UNL     1      -5.296   3.049 130.477  0.00  0.00    +0.000 C 
ATOM      8  O   UNL     1      -4.309   3.344 129.795  0.00  0.00    +0.000 OA
ATOM      9  N   UNL     1      -5.924   4.111 131.160  0.00  0.00    +0.000 N 
ATOM     10  C   UNL     1      -6.613   5.135 130.292  0.00  0.00    +0.000 C 
ATOM     11  C   UNL     1      -6.729   6.466 130.970  0.00  0.00    +0.000 C 
ATOM     12  C   UNL     1      -7.950   6.361 132.234  0.00  0.00    +0.000 C 
ATOM     13  C   UNL     1      -6.799   5.246 133.167  0.00  0.00    +0.000 C 
ATOM     14  C   UNL     1      -6.445   3.918 132.531  0.00  0.00    +0.000 C 
BRANCH  12  15
ATOM     15  N   UNL     1      -9.736   6.781 131.622  0.00  0.00    +0.000 N 
ATOM     16  C   UNL     1      -9.813   5.340 131.830  0.00  0.00    +0.000 C 
ATOM     17  O   UNL     1      -9.730   4.753 132.828  0.00  0.00    +0.000 OA
ATOM     18  O   UNL     1      -9.893   4.667 130.640  0.00  0.00    +0.000 OA
ATOM     19  C   UNL     1     -11.241   4.821 130.476  0.00  0.00    +0.000 C 
ATOM     20  C   UNL     1     -11.278   5.992 129.570  0.00  0.00    +0.000 A 
ATOM     21  C   UNL     1     -11.012   6.924 128.538  0.00  0.00    +0.000 A 
ATOM     22  C   UNL     1     -12.088   7.724 127.964  0.00  0.00    +0.000 A 
ATOM     23  C   UNL     1     -13.231   7.525 128.616  0.00  0.00    +0.000 A 
ATOM     24  C   UNL     1     -12.832   7.220 130.076  0.00  0.00    +0.000 A 
ATOM     25  C   UNL     1     -11.234   6.860 130.552  0.00  0.00    +0.000 A 
ENDBRANCH  12  15
ENDBRANCH   6   7
BRANCH   1  27
ATOM     26  C   UNL     1      -5.762   0.242 133.545  0.00  0.00    +0.000 C 
ATOM     27  O   UNL     1      -5.057   0.280 132.343  0.00  0.00    +0.000 OA
ENDBRANCH   1  27
BRANCH   3  28
ATOM     28  O   UNL     1      -8.352  -1.995 129.647  0.00  0.00    +0.000 OA
BRANCH  28  29
ATOM     29  C   UNL     1      -7.742  -3.114 128.789  0.00  0.00    +0.000 C 
ATOM     30  C   UNL     1      -6.575  -2.746 127.805  0.00  0.00    +0.000 C 
ATOM     31  C   UNL     1      -7.012  -2.132 126.448  0.00  0.00    +0.000 C 
ATOM     32  N   UNL     1      -8.211  -2.814 125.808  0.00  0.00    +0.000 NA
ATOM     33  C   UNL     1      -9.281  -3.498 126.706  0.00  0.00    +0.000 C 
ATOM     34  C   UNL     1      -8.749  -4.049 128.050  0.00  0.00    +0.000 C 
BRANCH  32  35
ATOM     35  C   UNL     1      -8.729  -2.147 124.523  0.00  0.00    +0.000 C 
ATOM     36  C   UNL     1      -8.234  -2.241 122.990  0.00  0.00    +0.000 C 
ATOM     37  C   UNL     1      -6.716  -1.754 122.890  0.00  0.00    +0.000 C 
ATOM     38  C   UNL     1      -6.725  -0.286 123.079  0.00  0.00    +0.000 C 
ATOM     39  C   UNL     1      -7.625   0.126 124.192  0.00  0.00    +0.000 A 
ATOM     40  C   UNL     1      -8.612  -0.679 124.820  0.00  0.00    +0.000 A 
ATOM     41  C   UNL     1      -9.308  -0.190 125.921  0.00  0.00    +0.000 A 
ATOM     42  C   UNL     1      -9.099   1.108 126.324  0.00  0.00    +0.000 A 
ATOM     43  C   UNL     1      -8.185   1.903 125.641  0.00  0.00    +0.000 A 
ATOM     44  N   UNL     1      -7.432   1.423 124.597  0.00  0.00    +0.000 N 
ATOM     45  O   UNL     1      -6.579   2.176 124.029  0.00  0.00    +0.000 OA
ENDBRANCH  32  35
ENDBRANCH  28  29
ENDBRANCH   3  28
TORSDOF 6
ENDMDL
MODEL 8
REMARK VINA RESULT:     -10.3      2.690      8.728
REMARK  Name = CHEMBL69201
REMARK  7 active torsions:
REMARK  status: ('A' for Active; 'I' for Inactive)
REMARK    1  A    between atoms: C_1  and  O_2
REMARK    2  A    between atoms: O_2  and  C_3
REMARK    3  A    between atoms: C_5  and  O_6
REMARK    4  A    between atoms: O_6  and  C_7
REMARK    5  A    between atoms: N_10  and  C_11
REMARK    6  A    between atoms: C_26  and  C_27
REMARK    7  A    between atoms: C_32  and  N_33
REMARK                            x       y       z     vdW  Elec       q    Type
REMARK                         _______ _______ _______ _____ _____    ______ ____
ROOT
ATOM      1  C   UNL     1      -7.700   1.610 132.997  0.00  0.00    +0.000 A 
ATOM      2  C   UNL     1      -8.127   3.016 132.673  0.00  0.00    +0.000 A 
ATOM      3  C   UNL     1      -9.015   3.332 131.717  0.00  0.00    +0.000 A 
ATOM      4  C   UNL     1      -9.149   2.218 131.079  0.00  0.00    +0.000 A 
ATOM      5  C   UNL     1      -8.832   0.915 131.355  0.00  0.00    +0.000 A 
ATOM      6  C   UNL     1      -8.070   0.443 132.331  0.00  0.00    +0.000 A 
ENDROOT
BRANCH   6   7
ATOM      7  C   UNL     1      -7.712  -1.099 132.400  0.00  0.00    +0.000 C 
ATOM      8  O   UNL     1      -8.247  -1.899 133.174  0.00  0.00    +0.000 OA
ATOM      9  N   UNL     1      -6.831  -1.647 131.444  0.00  0.00    +0.000 N 
ATOM     10  C   UNL     1      -7.466  -2.514 130.385  0.00  0.00    +0.000 C 
ATOM     11  C   UNL     1      -6.496  -3.496 129.802  0.00  0.00    +0.000 C 
ATOM     12  C   UNL     1      -5.364  -2.636 128.763  0.00  0.00    +0.000 C 
ATOM     13  C   UNL     1      -4.663  -1.846 130.286  0.00  0.00    +0.000 C 
ATOM     14  C   UNL     1      -5.578  -0.945 131.090  0.00  0.00    +0.000 C 
BRANCH  12  15
ATOM     15  N   UNL     1      -5.958  -2.490 126.928  0.00  0.00    +0.000 N 
ATOM     16  C   UNL     1      -6.119  -1.124 127.413  0.00  0.00    +0.000 C 
ATOM     17  O   UNL     1      -5.294  -0.382 127.755  0.00  0.00    +0.000 OA
ATOM     18  O   UNL     1      -7.440  -0.794 127.546  0.00  0.00    +0.000 OA
ATOM     19  C   UNL     1      -7.640  -0.463 126.235  0.00  0.00    +0.000 C 
ATOM     20  C   UNL     1      -8.228  -1.719 125.719  0.00  0.00    +0.000 A 
ATOM     21  C   UNL     1      -8.980  -2.910 125.567  0.00  0.00    +0.000 A 
ATOM     22  C   UNL     1      -9.400  -3.361 124.245  0.00  0.00    +0.000 A 
ATOM     23  C   UNL     1      -8.886  -2.587 123.291  0.00  0.00    +0.000 A 
ATOM     24  C   UNL     1      -7.527  -2.099 123.837  0.00  0.00    +0.000 A 
ATOM     25  C   UNL     1      -7.062  -2.263 125.469  0.00  0.00    +0.000 A 
ENDBRANCH  12  15
ENDBRANCH   6   7
BRANCH   1  27
ATOM     26  C   UNL     1      -6.515   2.984 134.333  0.00  0.00    +0.000 C 
ATOM     27  O   UNL     1      -6.925   1.670 134.108  0.00  0.00    +0.000 OA
ENDBRANCH   1  27
BRANCH   3  28
ATOM     28  O   UNL     1      -9.713   4.394 131.261  0.00  0.00    +0.000 OA
BRANCH  28  29
ATOM     29  C   UNL     1      -9.086   5.424 130.309  0.00  0.00    +0.000 C 
ATOM     30  C   UNL     1      -8.807   4.994 128.824  0.00  0.00    +0.000 C 
ATOM     31  C   UNL     1      -7.499   4.190 128.596  0.00  0.00    +0.000 C 
ATOM     32  N   UNL     1      -6.295   4.722 129.355  0.00  0.00    +0.000 NA
ATOM     33  C   UNL     1      -6.499   5.458 130.709  0.00  0.00    +0.000 C 
ATOM     34  C   UNL     1      -7.847   6.204 130.849  0.00  0.00    +0.000 C 
BRANCH  32  35
ATOM     35  C   UNL     1      -5.020   3.870 129.231  0.00  0.00    +0.000 C 
ATOM     36  C   UNL     1      -4.365   2.769 130.212  0.00  0.00    +0.000 C 
ATOM     37  C   UNL     1      -4.042   3.439 131.626  0.00  0.00    +0.000 C 
ATOM     38  C   UNL     1      -2.883   4.335 131.418  0.00  0.00    +0.000 C 
ATOM     39  C   UNL     1      -3.012   5.132 130.166  0.00  0.00    +0.000 A 
ATOM     40  C   UNL     1      -3.927   4.894 129.107  0.00  0.00    +0.000 A 
ATOM     41  C   UNL     1      -4.004   5.787 128.043  0.00  0.00    +0.000 A 
ATOM     42  C   UNL     1      -3.119   6.839 127.985  0.00  0.00    +0.000 A 
ATOM     43  C   UNL     1      -2.178   7.004 128.996  0.00  0.00    +0.000 A 
ATOM     44  N   UNL     1      -2.128   6.180 130.093  0.00  0.00    +0.000 N 
ATOM     45  O   UNL     1      -1.275   6.394 131.012  0.00  0.00    +0.000 OA
ENDBRANCH  32  35
ENDBRANCH  28  29
ENDBRANCH   3  28
TORSDOF 6
ENDMDL
MODEL 9
REMARK VINA RESULT:     -10.3      1.890      4.412
REMARK  Name = CHEMBL69201
REMARK  7 active torsions:
REMARK  status: ('A' for Active; 'I' for Inactive)
REMARK    1  A    between atoms: C_1  and  O_2
REMARK    2  A    between atoms: O_2  and  C_3
REMARK    3  A    between atoms: C_5  and  O_6
REMARK    4  A    between atoms: O_6  and  C_7
REMARK    5  A    between atoms: N_10  and  C_11
REMARK    6  A    between atoms: C_26  and  C_27
REMARK    7  A    between atoms: C_32  and  N_33
REMARK                            x       y       z     vdW  Elec       q    Type
REMARK                         _______ _______ _______ _____ _____    ______ ____
ROOT
ATOM      1  C   UNL     1      -7.223   1.131 130.933  0.00  0.00    +0.000 A 
ATOM      2  C   UNL     1      -7.555  -0.335 131.013  0.00  0.00    +0.000 A 
ATOM      3  C   UNL     1      -6.653  -1.299 131.258  0.00  0.00    +0.000 A 
ATOM      4  C   UNL     1      -5.532  -0.669 131.141  0.00  0.00    +0.000 A 
ATOM      5  C   UNL     1      -5.175   0.653 131.121  0.00  0.00    +0.000 A 
ATOM      6  C   UNL     1      -5.960   1.714 131.008  0.00  0.00    +0.000 A 
ENDROOT
BRANCH   6   7
ATOM      7  C   UNL     1      -5.338   3.164 130.867  0.00  0.00    +0.000 C 
ATOM      8  O   UNL     1      -4.346   3.427 130.181  0.00  0.00    +0.000 OA
ATOM      9  N   UNL     1      -6.012   4.264 131.440  0.00  0.00    +0.000 N 
ATOM     10  C   UNL     1      -6.711   5.185 130.471  0.00  0.00    +0.000 C 
ATOM     11  C   UNL     1      -6.879   6.567 131.025  0.00  0.00    +0.000 C 
ATOM     12  C   UNL     1      -8.123   6.538 132.270  0.00  0.00    +0.000 C 
ATOM     13  C   UNL     1      -6.961   5.546 133.320  0.00  0.00    +0.000 C 
ATOM     14  C   UNL     1      -6.556   4.177 132.813  0.00  0.00    +0.000 C 
BRANCH  12  15
ATOM     15  N   UNL     1      -9.907   6.848 131.589  0.00  0.00    +0.000 N 
ATOM     16  C   UNL     1      -9.914   5.409 131.827  0.00  0.00    +0.000 C 
ATOM     17  O   UNL     1      -9.834   4.849 132.841  0.00  0.00    +0.000 OA
ATOM     18  O   UNL     1      -9.917   4.708 130.652  0.00  0.00    +0.000 OA
ATOM     19  C   UNL     1     -11.264   4.785 130.439  0.00  0.00    +0.000 C 
ATOM     20  C   UNL     1     -11.332   5.932 129.505  0.00  0.00    +0.000 A 
ATOM     21  C   UNL     1     -11.081   6.855 128.461  0.00  0.00    +0.000 A 
ATOM     22  C   UNL     1     -12.178   7.583 127.832  0.00  0.00    +0.000 A 
ATOM     23  C   UNL     1     -13.330   7.336 128.450  0.00  0.00    +0.000 A 
ATOM     24  C   UNL     1     -12.966   7.085 129.930  0.00  0.00    +0.000 A 
ATOM     25  C   UNL     1     -11.369   6.822 130.467  0.00  0.00    +0.000 A 
ENDBRANCH  12  15
ENDBRANCH   6   7
BRANCH   1  27
ATOM     26  C   UNL     1      -9.236   1.458 131.891  0.00  0.00    +0.000 C 
ATOM     27  O   UNL     1      -8.396   1.804 130.833  0.00  0.00    +0.000 OA
ENDBRANCH   1  27
BRANCH   3  28
ATOM     28  O   UNL     1      -6.594  -2.620 131.532  0.00  0.00    +0.000 OA
BRANCH  28  29
ATOM     29  C   UNL     1      -6.455  -3.669 130.419  0.00  0.00    +0.000 C 
ATOM     30  C   UNL     1      -5.051  -3.856 129.742  0.00  0.00    +0.000 C 
ATOM     31  C   UNL     1      -4.703  -2.831 128.630  0.00  0.00    +0.000 C 
ATOM     32  N   UNL     1      -5.847  -2.526 127.677  0.00  0.00    +0.000 NA
ATOM     33  C   UNL     1      -7.317  -2.625 128.178  0.00  0.00    +0.000 C 
ATOM     34  C   UNL     1      -7.552  -3.654 129.309  0.00  0.00    +0.000 C 
BRANCH  32  35
ATOM     35  C   UNL     1      -5.557  -1.428 126.641  0.00  0.00    +0.000 C 
ATOM     36  C   UNL     1      -5.550   0.182 126.756  0.00  0.00    +0.000 C 
ATOM     37  C   UNL     1      -6.995   0.690 127.211  0.00  0.00    +0.000 C 
ATOM     38  C   UNL     1      -7.895   0.508 126.050  0.00  0.00    +0.000 C 
ATOM     39  C   UNL     1      -7.684  -0.805 125.381  0.00  0.00    +0.000 A 
ATOM     40  C   UNL     1      -6.580  -1.678 125.569  0.00  0.00    +0.000 A 
ATOM     41  C   UNL     1      -6.568  -2.925 124.952  0.00  0.00    +0.000 A 
ATOM     42  C   UNL     1      -7.586  -3.255 124.087  0.00  0.00    +0.000 A 
ATOM     43  C   UNL     1      -8.616  -2.348 123.857  0.00  0.00    +0.000 A 
ATOM     44  N   UNL     1      -8.689  -1.141 124.508  0.00  0.00    +0.000 N 
ATOM     45  O   UNL     1      -9.670  -0.361 124.296  0.00  0.00    +0.000 OA
ENDBRANCH  32  35
ENDBRANCH  28  29
ENDBRANCH   3  28
TORSDOF 6
ENDMDL
