MODEL 1
REMARK VINA RESULT:      -7.2      0.000      0.000
REMARK  Name = CHEMBL3354579
REMARK  27 active torsions:
REMARK  status: ('A' for Active; 'I' for Inactive)
REMARK    1  A    between atoms: C_1  and  C_2
REMARK    2  A    between atoms: C_2  and  C_3
REMARK    3  A    between atoms: C_3  and  C_4
REMARK    4  A    between atoms: C_3  and  C_5
REMARK    5  A    between atoms: C_9  and  C_10
REMARK    6  A    between atoms: C_10  and  C_11
REMARK    7  A    between atoms: C_14  and  O_15
REMARK    8  A    between atoms: C_26  and  C_27
REMARK    9  A    between atoms: N_29  and  C_30
REMARK   10  A    between atoms: N_29  and  C_34
REMARK   11  A    between atoms: C_30  and  C_31
REMARK   12  A    between atoms: C_31  and  C_32
REMARK   13  A    between atoms: C_32  and  O_33
REMARK   14  A    between atoms: C_34  and  C_35
REMARK   15  A    between atoms: N_37  and  C_38
REMARK   16  A    between atoms: C_38  and  C_39
REMARK   17  A    between atoms: C_38  and  C_43
REMARK   18  A    between atoms: C_39  and  C_40
REMARK   19  A    between atoms: C_40  and  C_41
REMARK   20  A    between atoms: C_40  and  C_42
REMARK   21  A    between atoms: N_45  and  C_46
REMARK   22  A    between atoms: C_46  and  C_47
REMARK   23  A    between atoms: C_53  and  C_54
REMARK   24  A    between atoms: C_54  and  C_55
REMARK   25  A    between atoms: C_61  and  C_62
REMARK   26  A    between atoms: C_62  and  C_63
REMARK   27  A    between atoms: C_63  and  C_64
REMARK                            x       y       z     vdW  Elec       q    Type
REMARK                         _______ _______ _______ _____ _____    ______ ____
ROOT
ATOM      1  C   UNL     1      -5.363   6.890 135.803  0.00  0.00    +0.000 C 
ATOM      2  N   UNL     1      -4.500   6.458 134.116  0.00  0.00    +0.000 N 
ATOM      3  C   UNL     1      -4.379   6.049 132.712  0.00  0.00    +0.000 C 
ATOM      4  O   UNL     1      -3.286   5.448 132.501  0.00  0.00    +0.000 OA
ATOM      5  C   UNL     1      -5.320   6.216 131.289  0.00  0.00    +0.000 C 
ATOM      6  N   UNL     1      -4.456   6.416 130.029  0.00  0.00    +0.000 N 
ATOM      7  C   UNL     1      -4.025   5.622 128.991  0.00  0.00    +0.000 C 
ATOM      8  O   UNL     1      -3.529   6.194 128.008  0.00  0.00    +0.000 OA
ATOM      9  C   UNL     1      -4.122   4.093 128.918  0.00  0.00    +0.000 C 
ATOM     10  C   UNL     1      -4.656   3.377 130.105  0.00  0.00    +0.000 C 
ATOM     11  C   UNL     1      -4.740   1.857 130.014  0.00  0.00    +0.000 C 
ATOM     12  S   UNL     1      -5.979   1.359 131.187  0.00  0.00    +0.000 S 
ATOM     13  C   UNL     1      -5.668  -0.289 131.993  0.00  0.00    +0.000 C 
ATOM     14  C   UNL     1      -6.427  -0.456 133.455  0.00  0.00    +0.000 C 
ATOM     15  N   UNL     1      -5.661   0.017 134.623  0.00  0.00    +0.000 N 
ATOM     16  C   UNL     1      -5.411   1.281 134.936  0.00  0.00    +0.000 C 
ATOM     17  O   UNL     1      -4.885   1.504 136.094  0.00  0.00    +0.000 OA
ATOM     18  C   UNL     1      -5.571   2.284 133.907  0.00  0.00    +0.000 C 
ATOM     19  N   UNL     1      -6.169   3.421 134.332  0.00  0.00    +0.000 N 
ATOM     20  C   UNL     1      -5.506   4.436 134.858  0.00  0.00    +0.000 C 
ATOM     21  O   UNL     1      -6.220   5.424 134.661  0.00  0.00    +0.000 OA
ATOM     22  C   UNL     1      -4.255   4.389 135.962  0.00  0.00    +0.000 C 
ATOM     23  N   UNL     1      -3.421   5.615 136.161  0.00  0.00    +0.000 N 
ATOM     24  C   UNL     1      -3.967   6.890 136.335  0.00  0.00    +0.000 C 
ATOM     25  O   UNL     1      -3.301   7.906 136.372  0.00  0.00    +0.000 OA
ATOM     26  H   UNL     1      -3.669   5.895 134.310  0.00  0.00    +0.000 HD
ATOM     27  H   UNL     1      -4.288   7.392 129.803  0.00  0.00    +0.000 HD
ATOM     28  H   UNL     1      -5.530  -0.622 135.406  0.00  0.00    +0.000 HD
ATOM     29  H   UNL     1      -6.786   3.682 133.580  0.00  0.00    +0.000 HD
ATOM     30  H   UNL     1      -2.650   5.761 135.521  0.00  0.00    +0.000 HD
ENDROOT
BRANCH  14  31
ATOM     31  C   UNL     1      -6.788  -1.923 133.683  0.00  0.00    +0.000 C 
ATOM     32  O   UNL     1      -7.977  -2.249 133.758  0.00  0.00    +0.000 OA
ATOM     33  N   UNL     1      -5.744  -2.841 133.762  0.00  0.00    +0.000 N 
BRANCH  33  34
ATOM     34  C   UNL     1      -6.111  -4.248 134.177  0.00  0.00    +0.000 C 
BRANCH  34  35
ATOM     35  C   UNL     1      -6.372  -4.526 135.731  0.00  0.00    +0.000 C 
ATOM     36  O   UNL     1      -5.498  -4.946 136.490  0.00  0.00    +0.000 OA
ATOM     37  N   UNL     1      -7.534  -4.029 136.299  0.00  0.00    +0.000 N 
ATOM     38  H   UNL     1      -8.373  -3.879 135.745  0.00  0.00    +0.000 HD
BRANCH  37  39
ATOM     39  C   UNL     1      -7.610  -3.709 137.757  0.00  0.00    +0.000 C 
BRANCH  39  40
ATOM     40  C   UNL     1      -8.946  -4.270 138.310  0.00  0.00    +0.000 C 
ATOM     41  O   UNL     1      -8.968  -5.207 139.107  0.00  0.00    +0.000 OA
ATOM     42  N   UNL     1     -10.096  -3.674 137.834  0.00  0.00    +0.000 N 
ATOM     43  H   UNL     1     -10.023  -2.920 137.174  0.00  0.00    +0.000 HD
BRANCH  42  44
ATOM     44  C   UNL     1     -11.420  -4.104 138.277  0.00  0.00    +0.000 C 
BRANCH  44  45
ATOM     45  C   UNL     1     -12.460  -2.989 138.473  0.00  0.00    +0.000 C 
ATOM     46  N   UNL     1     -12.512  -1.984 137.550  0.00  0.00    +0.000 N 
ATOM     47  O   UNL     1     -13.239  -2.974 139.423  0.00  0.00    +0.000 OA
ATOM     48  H   UNL     1     -11.928  -1.889 136.739  0.00  0.00    +0.000 HD
ATOM     49  H   UNL     1     -13.202  -1.256 137.700  0.00  0.00    +0.000 HD
ENDBRANCH  44  45
ENDBRANCH  42  44
ENDBRANCH  39  40
BRANCH  39  50
ATOM     50  C   UNL     1      -7.535  -2.178 138.112  0.00  0.00    +0.000 C 
BRANCH  50  51
ATOM     51  C   UNL     1      -6.264  -1.723 138.831  0.00  0.00    +0.000 C 
ATOM     52  C   UNL     1      -5.141  -1.557 137.848  0.00  0.00    +0.000 C 
ATOM     53  C   UNL     1      -6.288  -0.327 139.426  0.00  0.00    +0.000 C 
ENDBRANCH  50  51
ENDBRANCH  39  50
ENDBRANCH  37  39
ENDBRANCH  34  35
ENDBRANCH  33  34
BRANCH  33  54
ATOM     54  C   UNL     1      -4.312  -2.490 133.715  0.00  0.00    +0.000 C 
BRANCH  54  55
ATOM     55  C   UNL     1      -3.370  -2.727 134.843  0.00  0.00    +0.000 C 
BRANCH  55  56
ATOM     56  C   UNL     1      -2.231  -1.734 134.912  0.00  0.00    +0.000 C 
BRANCH  56  57
ATOM     57  O   UNL     1      -2.672  -0.552 135.517  0.00  0.00    +0.000 OA
ATOM     58  H   UNL     1      -3.163  -0.092 134.814  0.00  0.00    +0.000 HD
ENDBRANCH  56  57
ENDBRANCH  55  56
ENDBRANCH  54  55
ENDBRANCH  33  54
ENDBRANCH  14  31
BRANCH   1  59
ATOM     59  C   UNL     1      -6.340   5.924 137.211  0.00  0.00    +0.000 C 
ATOM     60  C   UNL     1      -6.579   5.648 138.805  0.00  0.00    +0.000 C 
BRANCH  59  62
ATOM     61  C   UNL     1      -8.683   7.554 137.563  0.00  0.00    +0.000 C 
ATOM     62  C   UNL     1      -7.764   6.367 137.342  0.00  0.00    +0.000 C 
ENDBRANCH  59  62
ENDBRANCH   1  59
BRANCH  18  63
ATOM     63  C   UNL     1      -4.438   2.878 133.133  0.00  0.00    +0.000 C 
BRANCH  63  64
ATOM     64  C   UNL     1      -3.122   2.262 133.210  0.00  0.00    +0.000 C 
ATOM     65  N   UNL     1      -2.116   3.094 133.466  0.00  0.00    +0.000 N 
ATOM     66  O   UNL     1      -2.926   1.045 133.082  0.00  0.00    +0.000 OA
ATOM     67  H   UNL     1      -2.340   4.009 133.824  0.00  0.00    +0.000 HD
ATOM     68  H   UNL     1      -1.360   2.659 133.960  0.00  0.00    +0.000 HD
ENDBRANCH  63  64
ENDBRANCH  18  63
BRANCH   5  69
ATOM     69  C   UNL     1      -6.708   5.541 130.724  0.00  0.00    +0.000 C 
BRANCH  69  70
ATOM     70  C   UNL     1      -8.064   6.028 131.137  0.00  0.00    +0.000 A 
ATOM     71  C   UNL     1      -8.508   5.674 132.335  0.00  0.00    +0.000 A 
ATOM     72  C   UNL     1      -9.895   5.874 132.728  0.00  0.00    +0.000 A 
ATOM     73  C   UNL     1     -10.912   6.407 131.998  0.00  0.00    +0.000 A 
ATOM     74  C   UNL     1     -10.388   6.990 130.917  0.00  0.00    +0.000 A 
ATOM     75  C   UNL     1      -8.992   6.825 130.521  0.00  0.00    +0.000 A 
BRANCH  73  76
ATOM     76  O   UNL     1     -12.268   6.254 131.983  0.00  0.00    +0.000 OA
ATOM     77  H   UNL     1     -12.791   5.881 131.251  0.00  0.00    +0.000 HD
ENDBRANCH  73  76
ENDBRANCH  69  70
ENDBRANCH   5  69
BRANCH  22  78
ATOM     78  C   UNL     1      -4.492   3.735 137.321  0.00  0.00    +0.000 C 
BRANCH  78  79
ATOM     79  C   UNL     1      -3.444   3.750 138.400  0.00  0.00    +0.000 C 
BRANCH  79  80
ATOM     80  C   UNL     1      -3.228   2.317 138.862  0.00  0.00    +0.000 C 
ATOM     81  N   UNL     1      -2.684   1.404 137.990  0.00  0.00    +0.000 N 
ATOM     82  O   UNL     1      -3.562   1.963 139.986  0.00  0.00    +0.000 OA
ATOM     83  H   UNL     1      -2.273   1.611 137.087  0.00  0.00    +0.000 HD
ATOM     84  H   UNL     1      -2.457   0.489 138.347  0.00  0.00    +0.000 HD
ENDBRANCH  79  80
ENDBRANCH  78  79
ENDBRANCH  22  78
TORSDOF 23
ENDMDL
MODEL 2
REMARK VINA RESULT:      -7.2      3.884     10.431
REMARK  Name = CHEMBL3354579
REMARK  27 active torsions:
REMARK  status: ('A' for Active; 'I' for Inactive)
REMARK    1  A    between atoms: C_1  and  C_2
REMARK    2  A    between atoms: C_2  and  C_3
REMARK    3  A    between atoms: C_3  and  C_4
REMARK    4  A    between atoms: C_3  and  C_5
REMARK    5  A    between atoms: C_9  and  C_10
REMARK    6  A    between atoms: C_10  and  C_11
REMARK    7  A    between atoms: C_14  and  O_15
REMARK    8  A    between atoms: C_26  and  C_27
REMARK    9  A    between atoms: N_29  and  C_30
REMARK   10  A    between atoms: N_29  and  C_34
REMARK   11  A    between atoms: C_30  and  C_31
REMARK   12  A    between atoms: C_31  and  C_32
REMARK   13  A    between atoms: C_32  and  O_33
REMARK   14  A    between atoms: C_34  and  C_35
REMARK   15  A    between atoms: N_37  and  C_38
REMARK   16  A    between atoms: C_38  and  C_39
REMARK   17  A    between atoms: C_38  and  C_43
REMARK   18  A    between atoms: C_39  and  C_40
REMARK   19  A    between atoms: C_40  and  C_41
REMARK   20  A    between atoms: C_40  and  C_42
REMARK   21  A    between atoms: N_45  and  C_46
REMARK   22  A    between atoms: C_46  and  C_47
REMARK   23  A    between atoms: C_53  and  C_54
REMARK   24  A    between atoms: C_54  and  C_55
REMARK   25  A    between atoms: C_61  and  C_62
REMARK   26  A    between atoms: C_62  and  C_63
REMARK   27  A    between atoms: C_63  and  C_64
REMARK                            x       y       z     vdW  Elec       q    Type
REMARK                         _______ _______ _______ _____ _____    ______ ____
ROOT
ATOM      1  C   UNL     1      -7.098  -0.825 130.756  0.00  0.00    +0.000 C 
ATOM      2  N   UNL     1      -8.117   0.745 131.281  0.00  0.00    +0.000 N 
ATOM      3  C   UNL     1      -8.703   2.086 131.179  0.00  0.00    +0.000 C 
ATOM      4  O   UNL     1      -8.814   2.627 132.318  0.00  0.00    +0.000 OA
ATOM      5  C   UNL     1      -9.310   3.080 129.921  0.00  0.00    +0.000 C 
ATOM      6  N   UNL     1     -10.526   3.917 130.363  0.00  0.00    +0.000 N 
ATOM      7  C   UNL     1     -10.739   5.221 130.749  0.00  0.00    +0.000 C 
ATOM      8  O   UNL     1     -11.916   5.609 130.806  0.00  0.00    +0.000 OA
ATOM      9  C   UNL     1      -9.658   6.254 131.091  0.00  0.00    +0.000 C 
ATOM     10  C   UNL     1      -8.244   5.800 131.089  0.00  0.00    +0.000 C 
ATOM     11  C   UNL     1      -7.185   6.841 131.436  0.00  0.00    +0.000 C 
ATOM     12  S   UNL     1      -5.666   6.263 130.714  0.00  0.00    +0.000 S 
ATOM     13  C   UNL     1      -4.135   6.693 131.678  0.00  0.00    +0.000 C 
ATOM     14  C   UNL     1      -2.863   5.679 131.371  0.00  0.00    +0.000 C 
ATOM     15  N   UNL     1      -2.795   4.474 132.219  0.00  0.00    +0.000 N 
ATOM     16  C   UNL     1      -3.604   3.424 132.153  0.00  0.00    +0.000 C 
ATOM     17  O   UNL     1      -3.276   2.388 132.850  0.00  0.00    +0.000 OA
ATOM     18  C   UNL     1      -4.867   3.577 131.466  0.00  0.00    +0.000 C 
ATOM     19  N   UNL     1      -5.198   2.527 130.679  0.00  0.00    +0.000 N 
ATOM     20  C   UNL     1      -5.859   1.471 131.120  0.00  0.00    +0.000 C 
ATOM     21  O   UNL     1      -6.408   0.995 130.121  0.00  0.00    +0.000 OA
ATOM     22  C   UNL     1      -5.643   0.644 132.554  0.00  0.00    +0.000 C 
ATOM     23  N   UNL     1      -6.713  -0.296 133.013  0.00  0.00    +0.000 N 
ATOM     24  C   UNL     1      -7.311  -1.241 132.174  0.00  0.00    +0.000 C 
ATOM     25  O   UNL     1      -8.263  -1.922 132.501  0.00  0.00    +0.000 OA
ATOM     26  H   UNL     1      -7.915   0.950 132.261  0.00  0.00    +0.000 HD
ATOM     27  H   UNL     1     -11.417   3.468 130.177  0.00  0.00    +0.000 HD
ATOM     28  H   UNL     1      -1.927   4.278 132.714  0.00  0.00    +0.000 HD
ATOM     29  H   UNL     1      -5.596   2.943 129.852  0.00  0.00    +0.000 HD
ATOM     30  H   UNL     1      -7.487   0.099 133.532  0.00  0.00    +0.000 HD
ENDROOT
BRANCH  14  31
ATOM     31  C   UNL     1      -1.548   6.442 131.522  0.00  0.00    +0.000 C 
ATOM     32  O   UNL     1      -0.730   6.426 130.598  0.00  0.00    +0.000 OA
ATOM     33  N   UNL     1      -1.347   7.158 132.700  0.00  0.00    +0.000 N 
BRANCH  33  34
ATOM     34  C   UNL     1       0.031   7.743 132.908  0.00  0.00    +0.000 C 
BRANCH  34  35
ATOM     35  C   UNL     1       0.185   8.945 133.952  0.00  0.00    +0.000 C 
ATOM     36  O   UNL     1       0.847   8.849 134.987  0.00  0.00    +0.000 OA
ATOM     37  N   UNL     1      -0.211  10.212 133.556  0.00  0.00    +0.000 N 
ATOM     38  H   UNL     1      -0.934  10.345 132.855  0.00  0.00    +0.000 HD
BRANCH  37  39
ATOM     39  C   UNL     1       0.395  11.438 134.157  0.00  0.00    +0.000 C 
BRANCH  39  40
ATOM     40  C   UNL     1      -0.591  12.001 135.214  0.00  0.00    +0.000 C 
ATOM     41  O   UNL     1      -0.469  13.140 135.664  0.00  0.00    +0.000 OA
ATOM     42  N   UNL     1      -1.586  11.141 135.632  0.00  0.00    +0.000 N 
ATOM     43  H   UNL     1      -1.634  10.216 135.241  0.00  0.00    +0.000 HD
BRANCH  42  44
ATOM     44  C   UNL     1      -2.583  11.546 136.619  0.00  0.00    +0.000 C 
BRANCH  44  45
ATOM     45  C   UNL     1      -3.616  10.478 137.013  0.00  0.00    +0.000 C 
ATOM     46  N   UNL     1      -4.423  10.723 138.087  0.00  0.00    +0.000 N 
ATOM     47  O   UNL     1      -3.739   9.422 136.397  0.00  0.00    +0.000 OA
ATOM     48  H   UNL     1      -4.411  11.544 138.664  0.00  0.00    +0.000 HD
ATOM     49  H   UNL     1      -5.094  10.005 138.333  0.00  0.00    +0.000 HD
ENDBRANCH  44  45
ENDBRANCH  42  44
ENDBRANCH  39  40
BRANCH  39  50
ATOM     50  C   UNL     1       0.733  12.588 133.138  0.00  0.00    +0.000 C 
BRANCH  50  51
ATOM     51  C   UNL     1       0.047  12.493 131.775  0.00  0.00    +0.000 C 
ATOM     52  C   UNL     1      -1.067  13.496 131.682  0.00  0.00    +0.000 C 
ATOM     53  C   UNL     1       0.871  12.917 130.573  0.00  0.00    +0.000 C 
ENDBRANCH  50  51
ENDBRANCH  39  50
ENDBRANCH  37  39
ENDBRANCH  34  35
ENDBRANCH  33  34
BRANCH  33  54
ATOM     54  C   UNL     1      -2.280   7.173 133.842  0.00  0.00    +0.000 C 
BRANCH  54  55
ATOM     55  C   UNL     1      -2.007   6.486 135.136  0.00  0.00    +0.000 C 
BRANCH  55  56
ATOM     56  C   UNL     1      -3.207   5.771 135.716  0.00  0.00    +0.000 C 
BRANCH  56  57
ATOM     57  O   UNL     1      -3.198   4.432 135.312  0.00  0.00    +0.000 OA
ATOM     58  H   UNL     1      -3.870   4.007 135.873  0.00  0.00    +0.000 HD
ENDBRANCH  56  57
ENDBRANCH  55  56
ENDBRANCH  54  55
ENDBRANCH  33  54
ENDBRANCH  14  31
BRANCH   1  59
ATOM     59  C   UNL     1      -5.207  -1.286 130.469  0.00  0.00    +0.000 C 
ATOM     60  C   UNL     1      -4.007  -2.390 130.589  0.00  0.00    +0.000 C 
BRANCH  59  62
ATOM     61  C   UNL     1      -5.315  -2.023 127.691  0.00  0.00    +0.000 C 
ATOM     62  C   UNL     1      -4.861  -1.454 129.022  0.00  0.00    +0.000 C 
ENDBRANCH  59  62
ENDBRANCH   1  59
BRANCH  18  63
ATOM     63  C   UNL     1      -6.176   3.787 132.156  0.00  0.00    +0.000 C 
BRANCH  63  64
ATOM     64  C   UNL     1      -6.192   4.071 133.583  0.00  0.00    +0.000 C 
ATOM     65  N   UNL     1      -6.558   3.057 134.363  0.00  0.00    +0.000 N 
ATOM     66  O   UNL     1      -5.861   5.162 134.069  0.00  0.00    +0.000 OA
ATOM     67  H   UNL     1      -6.557   2.132 133.965  0.00  0.00    +0.000 HD
ATOM     68  H   UNL     1      -6.139   3.088 135.274  0.00  0.00    +0.000 HD
ENDBRANCH  63  64
ENDBRANCH  18  63
BRANCH   5  69
ATOM     69  C   UNL     1      -8.640   3.953 128.701  0.00  0.00    +0.000 C 
BRANCH  69  70
ATOM     70  C   UNL     1      -7.530   3.419 127.846  0.00  0.00    +0.000 A 
ATOM     71  C   UNL     1      -7.728   2.260 127.232  0.00  0.00    +0.000 A 
ATOM     72  C   UNL     1      -6.638   1.536 126.594  0.00  0.00    +0.000 A 
ATOM     73  C   UNL     1      -5.323   1.878 126.522  0.00  0.00    +0.000 A 
ATOM     74  C   UNL     1      -5.203   3.152 126.905  0.00  0.00    +0.000 A 
ATOM     75  C   UNL     1      -6.291   3.905 127.521  0.00  0.00    +0.000 A 
BRANCH  73  76
ATOM     76  O   UNL     1      -4.153   1.183 126.417  0.00  0.00    +0.000 OA
ATOM     77  H   UNL     1      -4.013   0.385 125.878  0.00  0.00    +0.000 HD
ENDBRANCH  73  76
ENDBRANCH  69  70
ENDBRANCH   5  69
BRANCH  22  78
ATOM     78  C   UNL     1      -4.283   0.017 132.849  0.00  0.00    +0.000 C 
BRANCH  78  79
ATOM     79  C   UNL     1      -4.071  -0.891 134.029  0.00  0.00    +0.000 C 
BRANCH  79  80
ATOM     80  C   UNL     1      -2.578  -1.159 134.151  0.00  0.00    +0.000 C 
ATOM     81  N   UNL     1      -1.970  -1.033 135.378  0.00  0.00    +0.000 N 
ATOM     82  O   UNL     1      -1.911  -1.452 133.167  0.00  0.00    +0.000 OA
ATOM     83  H   UNL     1      -2.440  -0.907 136.267  0.00  0.00    +0.000 HD
ATOM     84  H   UNL     1      -1.005  -1.311 135.456  0.00  0.00    +0.000 HD
ENDBRANCH  79  80
ENDBRANCH  78  79
ENDBRANCH  22  78
TORSDOF 23
ENDMDL
MODEL 3
REMARK VINA RESULT:      -7.1      3.936      8.859
REMARK  Name = CHEMBL3354579
REMARK  27 active torsions:
REMARK  status: ('A' for Active; 'I' for Inactive)
REMARK    1  A    between atoms: C_1  and  C_2
REMARK    2  A    between atoms: C_2  and  C_3
REMARK    3  A    between atoms: C_3  and  C_4
REMARK    4  A    between atoms: C_3  and  C_5
REMARK    5  A    between atoms: C_9  and  C_10
REMARK    6  A    between atoms: C_10  and  C_11
REMARK    7  A    between atoms: C_14  and  O_15
REMARK    8  A    between atoms: C_26  and  C_27
REMARK    9  A    between atoms: N_29  and  C_30
REMARK   10  A    between atoms: N_29  and  C_34
REMARK   11  A    between atoms: C_30  and  C_31
REMARK   12  A    between atoms: C_31  and  C_32
REMARK   13  A    between atoms: C_32  and  O_33
REMARK   14  A    between atoms: C_34  and  C_35
REMARK   15  A    between atoms: N_37  and  C_38
REMARK   16  A    between atoms: C_38  and  C_39
REMARK   17  A    between atoms: C_38  and  C_43
REMARK   18  A    between atoms: C_39  and  C_40
REMARK   19  A    between atoms: C_40  and  C_41
REMARK   20  A    between atoms: C_40  and  C_42
REMARK   21  A    between atoms: N_45  and  C_46
REMARK   22  A    between atoms: C_46  and  C_47
REMARK   23  A    between atoms: C_53  and  C_54
REMARK   24  A    between atoms: C_54  and  C_55
REMARK   25  A    between atoms: C_61  and  C_62
REMARK   26  A    between atoms: C_62  and  C_63
REMARK   27  A    between atoms: C_63  and  C_64
REMARK                            x       y       z     vdW  Elec       q    Type
REMARK                         _______ _______ _______ _____ _____    ______ ____
ROOT
ATOM      1  C   UNL     1      -4.581  -0.551 135.130  0.00  0.00    +0.000 C 
ATOM      2  N   UNL     1      -3.865   1.256 135.138  0.00  0.00    +0.000 N 
ATOM      3  C   UNL     1      -3.866   2.722 135.191  0.00  0.00    +0.000 C 
ATOM      4  O   UNL     1      -2.904   3.207 134.528  0.00  0.00    +0.000 OA
ATOM      5  C   UNL     1      -4.809   3.932 135.955  0.00  0.00    +0.000 C 
ATOM      6  N   UNL     1      -3.966   5.138 136.414  0.00  0.00    +0.000 N 
ATOM      7  C   UNL     1      -3.717   6.406 135.942  0.00  0.00    +0.000 C 
ATOM      8  O   UNL     1      -3.161   7.200 136.717  0.00  0.00    +0.000 OA
ATOM      9  C   UNL     1      -4.085   6.946 134.554  0.00  0.00    +0.000 C 
ATOM     10  C   UNL     1      -4.698   6.000 133.586  0.00  0.00    +0.000 C 
ATOM     11  C   UNL     1      -5.053   6.554 132.210  0.00  0.00    +0.000 C 
ATOM     12  S   UNL     1      -6.320   5.491 131.559  0.00  0.00    +0.000 S 
ATOM     13  C   UNL     1      -6.278   5.274 129.713  0.00  0.00    +0.000 C 
ATOM     14  C   UNL     1      -7.006   3.876 129.202  0.00  0.00    +0.000 C 
ATOM     15  N   UNL     1      -6.130   2.691 129.145  0.00  0.00    +0.000 N 
ATOM     16  C   UNL     1      -5.650   2.021 130.184  0.00  0.00    +0.000 C 
ATOM     17  O   UNL     1      -5.054   0.903 129.935  0.00  0.00    +0.000 OA
ATOM     18  C   UNL     1      -5.664   2.666 131.479  0.00  0.00    +0.000 C 
ATOM     19  N   UNL     1      -6.037   1.855 132.495  0.00  0.00    +0.000 N 
ATOM     20  C   UNL     1      -5.188   1.099 133.168  0.00  0.00    +0.000 C 
ATOM     21  O   UNL     1      -5.723   0.912 134.266  0.00  0.00    +0.000 OA
ATOM     22  C   UNL     1      -3.929   0.180 132.571  0.00  0.00    +0.000 C 
ATOM     23  N   UNL     1      -2.885  -0.318 133.519  0.00  0.00    +0.000 N 
ATOM     24  C   UNL     1      -3.190  -0.930 134.739  0.00  0.00    +0.000 C 
ATOM     25  O   UNL     1      -2.354  -1.224 135.571  0.00  0.00    +0.000 OA
ATOM     26  H   UNL     1      -3.141   1.322 134.420  0.00  0.00    +0.000 HD
ATOM     27  H   UNL     1      -3.637   5.061 137.372  0.00  0.00    +0.000 HD
ATOM     28  H   UNL     1      -6.088   2.163 128.275  0.00  0.00    +0.000 HD
ATOM     29  H   UNL     1      -6.623   2.430 133.079  0.00  0.00    +0.000 HD
ATOM     30  H   UNL     1      -2.122   0.309 133.742  0.00  0.00    +0.000 HD
ENDROOT
BRANCH  14  31
ATOM     31  C   UNL     1      -7.612   4.088 127.816  0.00  0.00    +0.000 C 
ATOM     32  O   UNL     1      -8.747   4.566 127.719  0.00  0.00    +0.000 OA
ATOM     33  N   UNL     1      -6.831   3.760 126.711  0.00  0.00    +0.000 N 
BRANCH  33  34
ATOM     34  C   UNL     1      -7.517   3.796 125.364  0.00  0.00    +0.000 C 
BRANCH  34  35
ATOM     35  C   UNL     1      -8.175   2.442 124.822  0.00  0.00    +0.000 C 
ATOM     36  O   UNL     1      -8.706   2.355 123.714  0.00  0.00    +0.000 OA
ATOM     37  N   UNL     1      -7.906   1.265 125.502  0.00  0.00    +0.000 N 
ATOM     38  H   UNL     1      -7.683   1.265 126.493  0.00  0.00    +0.000 HD
BRANCH  37  39
ATOM     39  C   UNL     1      -7.949  -0.058 124.809  0.00  0.00    +0.000 C 
BRANCH  39  40
ATOM     40  C   UNL     1      -8.548  -1.101 125.788  0.00  0.00    +0.000 C 
ATOM     41  O   UNL     1      -9.704  -1.507 125.666  0.00  0.00    +0.000 OA
ATOM     42  N   UNL     1      -7.719  -1.521 126.808  0.00  0.00    +0.000 N 
ATOM     43  H   UNL     1      -6.787  -1.150 126.869  0.00  0.00    +0.000 HD
BRANCH  42  44
ATOM     44  C   UNL     1      -8.157  -2.504 127.795  0.00  0.00    +0.000 C 
BRANCH  44  45
ATOM     45  C   UNL     1      -7.871  -2.157 129.265  0.00  0.00    +0.000 C 
ATOM     46  N   UNL     1      -7.691  -0.844 129.596  0.00  0.00    +0.000 N 
ATOM     47  O   UNL     1      -7.801  -3.013 130.143  0.00  0.00    +0.000 OA
ATOM     48  H   UNL     1      -7.722  -0.062 128.968  0.00  0.00    +0.000 HD
ATOM     49  H   UNL     1      -7.499  -0.636 130.570  0.00  0.00    +0.000 HD
ENDBRANCH  44  45
ENDBRANCH  42  44
ENDBRANCH  39  40
BRANCH  39  50
ATOM     50  C   UNL     1      -6.559  -0.598 124.305  0.00  0.00    +0.000 C 
BRANCH  50  51
ATOM     51  C   UNL     1      -6.571  -1.995 123.687  0.00  0.00    +0.000 C 
ATOM     52  C   UNL     1      -6.149  -1.932 122.246  0.00  0.00    +0.000 C 
ATOM     53  C   UNL     1      -5.538  -2.975 124.211  0.00  0.00    +0.000 C 
ENDBRANCH  50  51
ENDBRANCH  39  50
ENDBRANCH  37  39
ENDBRANCH  34  35
ENDBRANCH  33  34
BRANCH  33  54
ATOM     54  C   UNL     1      -5.488   3.153 126.783  0.00  0.00    +0.000 C 
BRANCH  54  55
ATOM     55  C   UNL     1      -4.259   3.813 126.261  0.00  0.00    +0.000 C 
BRANCH  55  56
ATOM     56  C   UNL     1      -2.977   3.096 126.621  0.00  0.00    +0.000 C 
BRANCH  56  57
ATOM     57  O   UNL     1      -3.224   2.172 127.642  0.00  0.00    +0.000 OA
ATOM     58  H   UNL     1      -4.170   2.280 127.840  0.00  0.00    +0.000 HD
ENDBRANCH  56  57
ENDBRANCH  55  56
ENDBRANCH  54  55
ENDBRANCH  33  54
ENDBRANCH  14  31
BRANCH   1  59
ATOM     59  C   UNL     1      -5.667  -1.665 133.925  0.00  0.00    +0.000 C 
ATOM     60  C   UNL     1      -5.894  -3.106 133.185  0.00  0.00    +0.000 C 
BRANCH  59  62
ATOM     61  C   UNL     1      -8.038  -3.148 134.595  0.00  0.00    +0.000 C 
ATOM     62  C   UNL     1      -6.980  -2.063 134.524  0.00  0.00    +0.000 C 
ENDBRANCH  59  62
ENDBRANCH   1  59
BRANCH  18  63
ATOM     63  C   UNL     1      -4.471   3.312 132.106  0.00  0.00    +0.000 C 
BRANCH  63  64
ATOM     64  C   UNL     1      -3.344   3.693 131.268  0.00  0.00    +0.000 C 
ATOM     65  N   UNL     1      -2.230   4.017 131.921  0.00  0.00    +0.000 N 
ATOM     66  O   UNL     1      -3.379   3.694 130.029  0.00  0.00    +0.000 OA
ATOM     67  H   UNL     1      -2.157   3.750 132.889  0.00  0.00    +0.000 HD
ATOM     68  H   UNL     1      -1.396   3.819 131.400  0.00  0.00    +0.000 HD
ENDBRANCH  63  64
ENDBRANCH  18  63
BRANCH   5  69
ATOM     69  C   UNL     1      -6.313   4.555 135.725  0.00  0.00    +0.000 C 
BRANCH  69  70
ATOM     70  C   UNL     1      -6.970   5.457 136.726  0.00  0.00    +0.000 A 
ATOM     71  C   UNL     1      -7.880   6.313 136.280  0.00  0.00    +0.000 A 
ATOM     72  C   UNL     1      -8.386   7.395 137.113  0.00  0.00    +0.000 A 
ATOM     73  C   UNL     1      -8.043   7.710 138.391  0.00  0.00    +0.000 A 
ATOM     74  C   UNL     1      -7.341   6.693 138.897  0.00  0.00    +0.000 A 
ATOM     75  C   UNL     1      -6.848   5.583 138.085  0.00  0.00    +0.000 A 
BRANCH  73  76
ATOM     76  O   UNL     1      -8.023   8.860 139.126  0.00  0.00    +0.000 OA
ATOM     77  H   UNL     1      -7.627   8.963 140.010  0.00  0.00    +0.000 HD
ENDBRANCH  73  76
ENDBRANCH  69  70
ENDBRANCH   5  69
BRANCH  22  78
ATOM     78  C   UNL     1      -4.232  -0.921 131.558  0.00  0.00    +0.000 C 
BRANCH  78  79
ATOM     79  C   UNL     1      -3.192  -1.928 131.150  0.00  0.00    +0.000 C 
BRANCH  79  80
ATOM     80  C   UNL     1      -3.574  -2.465 129.778  0.00  0.00    +0.000 C 
ATOM     81  N   UNL     1      -4.329  -1.683 128.936  0.00  0.00    +0.000 N 
ATOM     82  O   UNL     1      -3.245  -3.592 129.431  0.00  0.00    +0.000 OA
ATOM     83  H   UNL     1      -4.558  -0.705 129.075  0.00  0.00    +0.000 HD
ATOM     84  H   UNL     1      -4.485  -2.015 127.998  0.00  0.00    +0.000 HD
ENDBRANCH  79  80
ENDBRANCH  78  79
ENDBRANCH  22  78
TORSDOF 23
ENDMDL
MODEL 4
REMARK VINA RESULT:      -7.1      1.522      2.718
REMARK  Name = CHEMBL3354579
REMARK  27 active torsions:
REMARK  status: ('A' for Active; 'I' for Inactive)
REMARK    1  A    between atoms: C_1  and  C_2
REMARK    2  A    between atoms: C_2  and  C_3
REMARK    3  A    between atoms: C_3  and  C_4
REMARK    4  A    between atoms: C_3  and  C_5
REMARK    5  A    between atoms: C_9  and  C_10
REMARK    6  A    between atoms: C_10  and  C_11
REMARK    7  A    between atoms: C_14  and  O_15
REMARK    8  A    between atoms: C_26  and  C_27
REMARK    9  A    between atoms: N_29  and  C_30
REMARK   10  A    between atoms: N_29  and  C_34
REMARK   11  A    between atoms: C_30  and  C_31
REMARK   12  A    between atoms: C_31  and  C_32
REMARK   13  A    between atoms: C_32  and  O_33
REMARK   14  A    between atoms: C_34  and  C_35
REMARK   15  A    between atoms: N_37  and  C_38
REMARK   16  A    between atoms: C_38  and  C_39
REMARK   17  A    between atoms: C_38  and  C_43
REMARK   18  A    between atoms: C_39  and  C_40
REMARK   19  A    between atoms: C_40  and  C_41
REMARK   20  A    between atoms: C_40  and  C_42
REMARK   21  A    between atoms: N_45  and  C_46
REMARK   22  A    between atoms: C_46  and  C_47
REMARK   23  A    between atoms: C_53  and  C_54
REMARK   24  A    between atoms: C_54  and  C_55
REMARK   25  A    between atoms: C_61  and  C_62
REMARK   26  A    between atoms: C_62  and  C_63
REMARK   27  A    between atoms: C_63  and  C_64
REMARK                            x       y       z     vdW  Elec       q    Type
REMARK                         _______ _______ _______ _____ _____    ______ ____
ROOT
ATOM      1  C   UNL     1      -4.942   6.815 135.599  0.00  0.00    +0.000 C 
ATOM      2  N   UNL     1      -3.959   6.292 134.005  0.00  0.00    +0.000 N 
ATOM      3  C   UNL     1      -3.736   5.880 132.615  0.00  0.00    +0.000 C 
ATOM      4  O   UNL     1      -2.708   5.150 132.510  0.00  0.00    +0.000 OA
ATOM      5  C   UNL     1      -4.489   6.171 131.103  0.00  0.00    +0.000 C 
ATOM      6  N   UNL     1      -3.475   6.272 129.947  0.00  0.00    +0.000 N 
ATOM      7  C   UNL     1      -3.033   5.438 128.946  0.00  0.00    +0.000 C 
ATOM      8  O   UNL     1      -2.367   5.951 128.033  0.00  0.00    +0.000 OA
ATOM      9  C   UNL     1      -3.307   3.932 128.831  0.00  0.00    +0.000 C 
ATOM     10  C   UNL     1      -4.051   3.280 129.940  0.00  0.00    +0.000 C 
ATOM     11  C   UNL     1      -4.310   1.783 129.810  0.00  0.00    +0.000 C 
ATOM     12  S   UNL     1      -5.721   1.433 130.833  0.00  0.00    +0.000 S 
ATOM     13  C   UNL     1      -5.702  -0.245 131.634  0.00  0.00    +0.000 C 
ATOM     14  C   UNL     1      -6.631  -0.327 133.002  0.00  0.00    +0.000 C 
ATOM     15  N   UNL     1      -5.945   0.039 134.256  0.00  0.00    +0.000 N 
ATOM     16  C   UNL     1      -5.578   1.261 134.619  0.00  0.00    +0.000 C 
ATOM     17  O   UNL     1      -5.158   1.410 135.831  0.00  0.00    +0.000 OA
ATOM     18  C   UNL     1      -5.502   2.283 133.599  0.00  0.00    +0.000 C 
ATOM     19  N   UNL     1      -5.999   3.482 133.980  0.00  0.00    +0.000 N 
ATOM     20  C   UNL     1      -5.279   4.404 134.594  0.00  0.00    +0.000 C 
ATOM     21  O   UNL     1      -5.842   5.474 134.342  0.00  0.00    +0.000 OA
ATOM     22  C   UNL     1      -4.171   4.195 135.825  0.00  0.00    +0.000 C 
ATOM     23  N   UNL     1      -3.220   5.308 136.137  0.00  0.00    +0.000 N 
ATOM     24  C   UNL     1      -3.622   6.640 136.277  0.00  0.00    +0.000 C 
ATOM     25  O   UNL     1      -2.845   7.565 136.406  0.00  0.00    +0.000 OA
ATOM     26  H   UNL     1      -3.229   5.629 134.277  0.00  0.00    +0.000 HD
ATOM     27  H   UNL     1      -3.166   7.221 129.759  0.00  0.00    +0.000 HD
ATOM     28  H   UNL     1      -5.979  -0.616 135.035  0.00  0.00    +0.000 HD
ATOM     29  H   UNL     1      -6.495   3.822 133.171  0.00  0.00    +0.000 HD
ATOM     30  H   UNL     1      -2.372   5.362 135.587  0.00  0.00    +0.000 HD
ENDROOT
BRANCH  14  31
ATOM     31  C   UNL     1      -7.190  -1.740 133.161  0.00  0.00    +0.000 C 
ATOM     32  O   UNL     1      -8.408  -1.922 133.068  0.00  0.00    +0.000 OA
ATOM     33  N   UNL     1      -6.284  -2.775 133.372  0.00  0.00    +0.000 N 
BRANCH  33  34
ATOM     34  C   UNL     1      -6.868  -4.126 133.716  0.00  0.00    +0.000 C 
BRANCH  34  35
ATOM     35  C   UNL     1      -7.431  -4.344 135.197  0.00  0.00    +0.000 C 
ATOM     36  O   UNL     1      -6.787  -4.912 136.080  0.00  0.00    +0.000 OA
ATOM     37  N   UNL     1      -8.563  -3.641 135.578  0.00  0.00    +0.000 N 
ATOM     38  H   UNL     1      -9.256  -3.343 134.896  0.00  0.00    +0.000 HD
BRANCH  37  39
ATOM     39  C   UNL     1      -8.822  -3.304 137.010  0.00  0.00    +0.000 C 
BRANCH  39  40
ATOM     40  C   UNL     1      -7.616  -2.489 137.545  0.00  0.00    +0.000 C 
ATOM     41  O   UNL     1      -7.213  -1.482 136.965  0.00  0.00    +0.000 OA
ATOM     42  N   UNL     1      -7.014  -2.978 138.687  0.00  0.00    +0.000 N 
ATOM     43  H   UNL     1      -7.375  -3.812 139.116  0.00  0.00    +0.000 HD
BRANCH  42  44
ATOM     44  C   UNL     1      -5.872  -2.304 139.298  0.00  0.00    +0.000 C 
BRANCH  44  45
ATOM     45  C   UNL     1      -4.496  -2.626 138.693  0.00  0.00    +0.000 C 
ATOM     46  N   UNL     1      -4.241  -3.913 138.314  0.00  0.00    +0.000 N 
ATOM     47  O   UNL     1      -3.627  -1.771 138.538  0.00  0.00    +0.000 OA
ATOM     48  H   UNL     1      -4.868  -4.693 138.395  0.00  0.00    +0.000 HD
ATOM     49  H   UNL     1      -3.327  -4.106 137.921  0.00  0.00    +0.000 HD
ENDBRANCH  44  45
ENDBRANCH  42  44
ENDBRANCH  39  40
BRANCH  39  50
ATOM     50  C   UNL     1      -9.042  -4.539 137.960  0.00  0.00    +0.000 C 
BRANCH  50  51
ATOM     51  C   UNL     1     -10.458  -4.711 138.512  0.00  0.00    +0.000 C 
ATOM     52  C   UNL     1     -11.225  -3.425 138.388  0.00  0.00    +0.000 C 
ATOM     53  C   UNL     1     -11.379  -5.632 137.733  0.00  0.00    +0.000 C 
ENDBRANCH  50  51
ENDBRANCH  39  50
ENDBRANCH  37  39
ENDBRANCH  34  35
ENDBRANCH  33  34
BRANCH  33  54
ATOM     54  C   UNL     1      -4.827  -2.597 133.527  0.00  0.00    +0.000 C 
BRANCH  54  55
ATOM     55  C   UNL     1      -4.069  -3.032 134.733  0.00  0.00    +0.000 C 
BRANCH  55  56
ATOM     56  C   UNL     1      -2.875  -2.161 135.055  0.00  0.00    +0.000 C 
BRANCH  56  57
ATOM     57  O   UNL     1      -3.307  -0.966 135.639  0.00  0.00    +0.000 OA
ATOM     58  H   UNL     1      -4.272  -1.067 135.708  0.00  0.00    +0.000 HD
ENDBRANCH  56  57
ENDBRANCH  55  56
ENDBRANCH  54  55
ENDBRANCH  33  54
ENDBRANCH  14  31
BRANCH   1  59
ATOM     59  C   UNL     1      -6.177   5.967 136.873  0.00  0.00    +0.000 C 
ATOM     60  C   UNL     1      -6.652   5.754 138.424  0.00  0.00    +0.000 C 
BRANCH  59  62
ATOM     61  C   UNL     1      -8.602   7.375 137.512  0.00  0.00    +0.000 C 
ATOM     62  C   UNL     1      -7.564   6.527 136.801  0.00  0.00    +0.000 C 
ENDBRANCH  59  62
ENDBRANCH   1  59
BRANCH  18  63
ATOM     63  C   UNL     1      -4.227   2.738 132.963  0.00  0.00    +0.000 C 
BRANCH  63  64
ATOM     64  C   UNL     1      -3.013   1.964 133.169  0.00  0.00    +0.000 C 
ATOM     65  N   UNL     1      -1.917   2.676 133.422  0.00  0.00    +0.000 N 
ATOM     66  O   UNL     1      -2.976   0.725 133.148  0.00  0.00    +0.000 OA
ATOM     67  H   UNL     1      -2.034   3.639 133.693  0.00  0.00    +0.000 HD
ATOM     68  H   UNL     1      -1.253   2.190 133.994  0.00  0.00    +0.000 HD
ENDBRANCH  63  64
ENDBRANCH  18  63
BRANCH   5  69
ATOM     69  C   UNL     1      -5.879   5.676 130.379  0.00  0.00    +0.000 C 
BRANCH  69  70
ATOM     70  C   UNL     1      -7.113   5.332 131.158  0.00  0.00    +0.000 A 
ATOM     71  C   UNL     1      -7.600   6.252 131.978  0.00  0.00    +0.000 A 
ATOM     72  C   UNL     1      -8.628   5.936 132.959  0.00  0.00    +0.000 A 
ATOM     73  C   UNL     1      -9.224   4.737 133.203  0.00  0.00    +0.000 A 
ATOM     74  C   UNL     1      -8.916   3.908 132.204  0.00  0.00    +0.000 A 
ATOM     75  C   UNL     1      -7.908   4.217 131.194  0.00  0.00    +0.000 A 
BRANCH  73  76
ATOM     76  O   UNL     1      -9.797   4.154 134.296  0.00  0.00    +0.000 OA
ATOM     77  H   UNL     1     -10.476   3.456 134.277  0.00  0.00    +0.000 HD
ENDBRANCH  73  76
ENDBRANCH  69  70
ENDBRANCH   5  69
BRANCH  22  78
ATOM     78  C   UNL     1      -4.633   3.567 137.137  0.00  0.00    +0.000 C 
BRANCH  78  79
ATOM     79  C   UNL     1      -3.710   3.432 138.318  0.00  0.00    +0.000 C 
BRANCH  79  80
ATOM     80  C   UNL     1      -3.577   1.952 138.642  0.00  0.00    +0.000 C 
ATOM     81  N   UNL     1      -2.850   1.143 137.800  0.00  0.00    +0.000 N 
ATOM     82  O   UNL     1      -4.134   1.470 139.620  0.00  0.00    +0.000 OA
ATOM     83  H   UNL     1      -2.262   1.452 137.035  0.00  0.00    +0.000 HD
ATOM     84  H   UNL     1      -2.691   0.189 138.085  0.00  0.00    +0.000 HD
ENDBRANCH  79  80
ENDBRANCH  78  79
ENDBRANCH  22  78
TORSDOF 23
ENDMDL
MODEL 5
REMARK VINA RESULT:      -6.9      3.240      5.820
REMARK  Name = CHEMBL3354579
REMARK  27 active torsions:
REMARK  status: ('A' for Active; 'I' for Inactive)
REMARK    1  A    between atoms: C_1  and  C_2
REMARK    2  A    between atoms: C_2  and  C_3
REMARK    3  A    between atoms: C_3  and  C_4
REMARK    4  A    between atoms: C_3  and  C_5
REMARK    5  A    between atoms: C_9  and  C_10
REMARK    6  A    between atoms: C_10  and  C_11
REMARK    7  A    between atoms: C_14  and  O_15
REMARK    8  A    between atoms: C_26  and  C_27
REMARK    9  A    between atoms: N_29  and  C_30
REMARK   10  A    between atoms: N_29  and  C_34
REMARK   11  A    between atoms: C_30  and  C_31
REMARK   12  A    between atoms: C_31  and  C_32
REMARK   13  A    between atoms: C_32  and  O_33
REMARK   14  A    between atoms: C_34  and  C_35
REMARK   15  A    between atoms: N_37  and  C_38
REMARK   16  A    between atoms: C_38  and  C_39
REMARK   17  A    between atoms: C_38  and  C_43
REMARK   18  A    between atoms: C_39  and  C_40
REMARK   19  A    between atoms: C_40  and  C_41
REMARK   20  A    between atoms: C_40  and  C_42
REMARK   21  A    between atoms: N_45  and  C_46
REMARK   22  A    between atoms: C_46  and  C_47
REMARK   23  A    between atoms: C_53  and  C_54
REMARK   24  A    between atoms: C_54  and  C_55
REMARK   25  A    between atoms: C_61  and  C_62
REMARK   26  A    between atoms: C_62  and  C_63
REMARK   27  A    between atoms: C_63  and  C_64
REMARK                            x       y       z     vdW  Elec       q    Type
REMARK                         _______ _______ _______ _____ _____    ______ ____
ROOT
ATOM      1  C   UNL     1      -5.279   6.234 131.100  0.00  0.00    +0.000 C 
ATOM      2  N   UNL     1      -5.631   5.036 129.611  0.00  0.00    +0.000 N 
ATOM      3  C   UNL     1      -6.346   4.046 128.796  0.00  0.00    +0.000 C 
ATOM      4  O   UNL     1      -5.542   3.319 128.146  0.00  0.00    +0.000 OA
ATOM      5  C   UNL     1      -7.985   3.660 128.475  0.00  0.00    +0.000 C 
ATOM      6  N   UNL     1      -8.212   3.213 127.018  0.00  0.00    +0.000 N 
ATOM      7  C   UNL     1      -8.375   2.012 126.368  0.00  0.00    +0.000 C 
ATOM      8  O   UNL     1      -8.782   2.052 125.196  0.00  0.00    +0.000 OA
ATOM      9  C   UNL     1      -8.126   0.618 126.960  0.00  0.00    +0.000 C 
ATOM     10  C   UNL     1      -7.581   0.543 128.340  0.00  0.00    +0.000 C 
ATOM     11  C   UNL     1      -7.337  -0.851 128.909  0.00  0.00    +0.000 C 
ATOM     12  S   UNL     1      -7.367  -0.676 130.678  0.00  0.00    +0.000 S 
ATOM     13  C   UNL     1      -6.228  -1.829 131.592  0.00  0.00    +0.000 C 
ATOM     14  C   UNL     1      -5.802  -1.274 133.093  0.00  0.00    +0.000 C 
ATOM     15  N   UNL     1      -4.608  -0.410 133.133  0.00  0.00    +0.000 N 
ATOM     16  C   UNL     1      -4.527   0.837 132.687  0.00  0.00    +0.000 C 
ATOM     17  O   UNL     1      -3.454   1.494 132.976  0.00  0.00    +0.000 OA
ATOM     18  C   UNL     1      -5.545   1.301 131.770  0.00  0.00    +0.000 C 
ATOM     19  N   UNL     1      -5.980   2.558 132.019  0.00  0.00    +0.000 N 
ATOM     20  C   UNL     1      -5.403   3.637 131.520  0.00  0.00    +0.000 C 
ATOM     21  O   UNL     1      -6.286   4.500 131.511  0.00  0.00    +0.000 OA
ATOM     22  C   UNL     1      -3.772   3.964 131.385  0.00  0.00    +0.000 C 
ATOM     23  N   UNL     1      -3.330   5.074 130.484  0.00  0.00    +0.000 N 
ATOM     24  C   UNL     1      -3.922   6.341 130.487  0.00  0.00    +0.000 C 
ATOM     25  O   UNL     1      -3.656   7.208 129.677  0.00  0.00    +0.000 OA
ATOM     26  H   UNL     1      -4.767   4.542 129.380  0.00  0.00    +0.000 HD
ATOM     27  H   UNL     1      -8.470   3.974 126.396  0.00  0.00    +0.000 HD
ATOM     28  H   UNL     1      -3.857  -0.653 133.777  0.00  0.00    +0.000 HD
ATOM     29  H   UNL     1      -6.975   2.519 131.866  0.00  0.00    +0.000 HD
ATOM     30  H   UNL     1      -3.214   4.858 129.502  0.00  0.00    +0.000 HD
ENDROOT
BRANCH  14  31
ATOM     31  C   UNL     1      -5.567  -2.456 134.031  0.00  0.00    +0.000 C 
ATOM     32  O   UNL     1      -5.406  -3.584 133.554  0.00  0.00    +0.000 OA
ATOM     33  N   UNL     1      -5.512  -2.196 135.398  0.00  0.00    +0.000 N 
BRANCH  33  34
ATOM     34  C   UNL     1      -5.471  -3.399 136.313  0.00  0.00    +0.000 C 
BRANCH  34  35
ATOM     35  C   UNL     1      -4.117  -4.247 136.377  0.00  0.00    +0.000 C 
ATOM     36  O   UNL     1      -4.017  -5.382 135.909  0.00  0.00    +0.000 OA
ATOM     37  N   UNL     1      -2.948  -3.590 136.727  0.00  0.00    +0.000 N 
ATOM     38  H   UNL     1      -2.962  -2.762 137.315  0.00  0.00    +0.000 HD
BRANCH  37  39
ATOM     39  C   UNL     1      -1.614  -4.082 136.267  0.00  0.00    +0.000 C 
BRANCH  39  40
ATOM     40  C   UNL     1      -0.577  -3.795 137.385  0.00  0.00    +0.000 C 
ATOM     41  O   UNL     1       0.325  -4.591 137.644  0.00  0.00    +0.000 OA
ATOM     42  N   UNL     1      -0.747  -2.615 138.079  0.00  0.00    +0.000 N 
ATOM     43  H   UNL     1      -1.508  -2.005 137.835  0.00  0.00    +0.000 HD
BRANCH  42  44
ATOM     44  C   UNL     1       0.161  -2.221 139.153  0.00  0.00    +0.000 C 
BRANCH  44  45
ATOM     45  C   UNL     1       0.944  -0.917 138.930  0.00  0.00    +0.000 C 
ATOM     46  N   UNL     1       0.665  -0.178 137.815  0.00  0.00    +0.000 N 
ATOM     47  O   UNL     1       1.801  -0.520 139.715  0.00  0.00    +0.000 OA
ATOM     48  H   UNL     1      -0.008  -0.402 137.105  0.00  0.00    +0.000 HD
ATOM     49  H   UNL     1       1.195   0.676 137.684  0.00  0.00    +0.000 HD
ENDBRANCH  44  45
ENDBRANCH  42  44
ENDBRANCH  39  40
BRANCH  39  50
ATOM     50  C   UNL     1      -1.086  -3.441 134.930  0.00  0.00    +0.000 C 
BRANCH  50  51
ATOM     51  C   UNL     1       0.173  -2.583 135.055  0.00  0.00    +0.000 C 
ATOM     52  C   UNL     1       1.328  -3.250 134.364  0.00  0.00    +0.000 C 
ATOM     53  C   UNL     1       0.165  -1.259 134.313  0.00  0.00    +0.000 C 
ENDBRANCH  50  51
ENDBRANCH  39  50
ENDBRANCH  37  39
ENDBRANCH  34  35
ENDBRANCH  33  34
BRANCH  33  54
ATOM     54  C   UNL     1      -5.737  -0.873 136.011  0.00  0.00    +0.000 C 
BRANCH  54  55
ATOM     55  C   UNL     1      -4.691  -0.127 136.764  0.00  0.00    +0.000 C 
BRANCH  55  56
ATOM     56  C   UNL     1      -3.309  -0.226 136.158  0.00  0.00    +0.000 C 
BRANCH  56  57
ATOM     57  O   UNL     1      -2.371  -0.496 137.160  0.00  0.00    +0.000 OA
ATOM     58  H   UNL     1      -2.373   0.305 137.712  0.00  0.00    +0.000 HD
ENDBRANCH  56  57
ENDBRANCH  55  56
ENDBRANCH  54  55
ENDBRANCH  33  54
ENDBRANCH  14  31
BRANCH   1  59
ATOM     59  C   UNL     1      -4.856   6.069 133.014  0.00  0.00    +0.000 C 
ATOM     60  C   UNL     1      -4.250   6.749 134.372  0.00  0.00    +0.000 C 
BRANCH  59  62
ATOM     61  C   UNL     1      -6.588   6.036 135.310  0.00  0.00    +0.000 C 
ATOM     62  C   UNL     1      -6.077   6.051 133.882  0.00  0.00    +0.000 C 
ENDBRANCH  59  62
ENDBRANCH   1  59
BRANCH  18  63
ATOM     63  C   UNL     1      -5.359   1.395 130.290  0.00  0.00    +0.000 C 
BRANCH  63  64
ATOM     64  C   UNL     1      -4.193   0.778 129.677  0.00  0.00    +0.000 C 
ATOM     65  N   UNL     1      -3.505   1.556 128.845  0.00  0.00    +0.000 N 
ATOM     66  O   UNL     1      -3.823  -0.380 129.919  0.00  0.00    +0.000 OA
ATOM     67  H   UNL     1      -3.673   2.548 128.881  0.00  0.00    +0.000 HD
ATOM     68  H   UNL     1      -2.529   1.329 128.809  0.00  0.00    +0.000 HD
ENDBRANCH  63  64
ENDBRANCH  18  63
BRANCH   5  69
ATOM     69  C   UNL     1      -9.196   2.933 129.315  0.00  0.00    +0.000 C 
BRANCH  69  70
ATOM     70  C   UNL     1      -9.428   3.187 130.774  0.00  0.00    +0.000 A 
ATOM     71  C   UNL     1      -9.675   4.434 131.151  0.00  0.00    +0.000 A 
ATOM     72  C   UNL     1      -9.660   4.827 132.552  0.00  0.00    +0.000 A 
ATOM     73  C   UNL     1      -9.402   4.058 133.644  0.00  0.00    +0.000 A 
ATOM     74  C   UNL     1      -9.422   2.778 133.265  0.00  0.00    +0.000 A 
ATOM     75  C   UNL     1      -9.465   2.361 131.866  0.00  0.00    +0.000 A 
BRANCH  73  76
ATOM     76  O   UNL     1      -8.895   4.294 134.889  0.00  0.00    +0.000 OA
ATOM     77  H   UNL     1      -9.418   4.456 135.695  0.00  0.00    +0.000 HD
ENDBRANCH  73  76
ENDBRANCH  69  70
ENDBRANCH   5  69
BRANCH  22  78
ATOM     78  C   UNL     1      -2.915   3.992 132.648  0.00  0.00    +0.000 C 
BRANCH  78  79
ATOM     79  C   UNL     1      -1.420   4.146 132.586  0.00  0.00    +0.000 C 
BRANCH  79  80
ATOM     80  C   UNL     1      -1.089   5.607 132.854  0.00  0.00    +0.000 C 
ATOM     81  N   UNL     1      -1.036   6.057 134.152  0.00  0.00    +0.000 N 
ATOM     82  O   UNL     1      -0.903   6.388 131.929  0.00  0.00    +0.000 OA
ATOM     83  H   UNL     1      -1.063   5.481 134.985  0.00  0.00    +0.000 HD
ATOM     84  H   UNL     1      -0.718   7.000 134.311  0.00  0.00    +0.000 HD
ENDBRANCH  79  80
ENDBRANCH  78  79
ENDBRANCH  22  78
TORSDOF 23
ENDMDL
MODEL 6
REMARK VINA RESULT:      -6.8      4.075      9.013
REMARK  Name = CHEMBL3354579
REMARK  27 active torsions:
REMARK  status: ('A' for Active; 'I' for Inactive)
REMARK    1  A    between atoms: C_1  and  C_2
REMARK    2  A    between atoms: C_2  and  C_3
REMARK    3  A    between atoms: C_3  and  C_4
REMARK    4  A    between atoms: C_3  and  C_5
REMARK    5  A    between atoms: C_9  and  C_10
REMARK    6  A    between atoms: C_10  and  C_11
REMARK    7  A    between atoms: C_14  and  O_15
REMARK    8  A    between atoms: C_26  and  C_27
REMARK    9  A    between atoms: N_29  and  C_30
REMARK   10  A    between atoms: N_29  and  C_34
REMARK   11  A    between atoms: C_30  and  C_31
REMARK   12  A    between atoms: C_31  and  C_32
REMARK   13  A    between atoms: C_32  and  O_33
REMARK   14  A    between atoms: C_34  and  C_35
REMARK   15  A    between atoms: N_37  and  C_38
REMARK   16  A    between atoms: C_38  and  C_39
REMARK   17  A    between atoms: C_38  and  C_43
REMARK   18  A    between atoms: C_39  and  C_40
REMARK   19  A    between atoms: C_40  and  C_41
REMARK   20  A    between atoms: C_40  and  C_42
REMARK   21  A    between atoms: N_45  and  C_46
REMARK   22  A    between atoms: C_46  and  C_47
REMARK   23  A    between atoms: C_53  and  C_54
REMARK   24  A    between atoms: C_54  and  C_55
REMARK   25  A    between atoms: C_61  and  C_62
REMARK   26  A    between atoms: C_62  and  C_63
REMARK   27  A    between atoms: C_63  and  C_64
REMARK                            x       y       z     vdW  Elec       q    Type
REMARK                         _______ _______ _______ _____ _____    ______ ____
ROOT
ATOM      1  C   UNL     1      -5.474  -0.467 134.425  0.00  0.00    +0.000 C 
ATOM      2  N   UNL     1      -4.670   1.292 134.621  0.00  0.00    +0.000 N 
ATOM      3  C   UNL     1      -4.592   2.756 134.684  0.00  0.00    +0.000 C 
ATOM      4  O   UNL     1      -3.469   3.174 134.277  0.00  0.00    +0.000 OA
ATOM      5  C   UNL     1      -5.614   4.028 135.207  0.00  0.00    +0.000 C 
ATOM      6  N   UNL     1      -4.833   5.182 135.866  0.00  0.00    +0.000 N 
ATOM      7  C   UNL     1      -4.399   6.428 135.478  0.00  0.00    +0.000 C 
ATOM      8  O   UNL     1      -3.998   7.192 136.370  0.00  0.00    +0.000 OA
ATOM      9  C   UNL     1      -4.386   6.980 134.046  0.00  0.00    +0.000 C 
ATOM     10  C   UNL     1      -4.803   6.067 132.951  0.00  0.00    +0.000 C 
ATOM     11  C   UNL     1      -4.780   6.632 131.535  0.00  0.00    +0.000 C 
ATOM     12  S   UNL     1      -5.916   5.646 130.588  0.00  0.00    +0.000 S 
ATOM     13  C   UNL     1      -5.442   5.412 128.805  0.00  0.00    +0.000 C 
ATOM     14  C   UNL     1      -6.111   4.060 128.123  0.00  0.00    +0.000 C 
ATOM     15  N   UNL     1      -5.323   2.821 128.270  0.00  0.00    +0.000 N 
ATOM     16  C   UNL     1      -5.151   2.130 129.389  0.00  0.00    +0.000 C 
ATOM     17  O   UNL     1      -4.584   0.976 129.283  0.00  0.00    +0.000 OA
ATOM     18  C   UNL     1      -5.438   2.785 130.646  0.00  0.00    +0.000 C 
ATOM     19  N   UNL     1      -6.096   2.006 131.536  0.00  0.00    +0.000 N 
ATOM     20  C   UNL     1      -5.484   1.204 132.389  0.00  0.00    +0.000 C 
ATOM     21  O   UNL     1      -6.279   1.059 133.323  0.00  0.00    +0.000 OA
ATOM     22  C   UNL     1      -4.178   0.203 132.106  0.00  0.00    +0.000 C 
ATOM     23  N   UNL     1      -3.427  -0.352 133.275  0.00  0.00    +0.000 N 
ATOM     24  C   UNL     1      -4.057  -0.935 134.380  0.00  0.00    +0.000 C 
ATOM     25  O   UNL     1      -3.467  -1.275 135.387  0.00  0.00    +0.000 OA
ATOM     26  H   UNL     1      -3.791   1.307 134.100  0.00  0.00    +0.000 HD
ATOM     27  H   UNL     1      -4.751   5.092 136.874  0.00  0.00    +0.000 HD
ATOM     28  H   UNL     1      -5.104   2.285 127.432  0.00  0.00    +0.000 HD
ATOM     29  H   UNL     1      -6.769   2.622 131.965  0.00  0.00    +0.000 HD
ATOM     30  H   UNL     1      -2.704   0.228 133.681  0.00  0.00    +0.000 HD
ENDROOT
BRANCH  14  31
ATOM     31  C   UNL     1      -6.349   4.299 126.633  0.00  0.00    +0.000 C 
ATOM     32  O   UNL     1      -7.406   4.822 126.266  0.00  0.00    +0.000 OA
ATOM     33  N   UNL     1      -5.334   3.941 125.750  0.00  0.00    +0.000 N 
BRANCH  33  34
ATOM     34  C   UNL     1      -5.666   4.007 124.276  0.00  0.00    +0.000 C 
BRANCH  34  35
ATOM     35  C   UNL     1      -6.614   2.870 123.670  0.00  0.00    +0.000 C 
ATOM     36  O   UNL     1      -6.535   2.489 122.501  0.00  0.00    +0.000 OA
ATOM     37  N   UNL     1      -7.361   2.103 124.548  0.00  0.00    +0.000 N 
ATOM     38  H   UNL     1      -7.653   2.465 125.452  0.00  0.00    +0.000 HD
BRANCH  37  39
ATOM     39  C   UNL     1      -7.786   0.714 124.197  0.00  0.00    +0.000 C 
BRANCH  39  40
ATOM     40  C   UNL     1      -8.394   0.056 125.464  0.00  0.00    +0.000 C 
ATOM     41  O   UNL     1      -9.578  -0.273 125.512  0.00  0.00    +0.000 OA
ATOM     42  N   UNL     1      -7.534  -0.109 126.531  0.00  0.00    +0.000 N 
ATOM     43  H   UNL     1      -6.578   0.188 126.444  0.00  0.00    +0.000 HD
BRANCH  42  44
ATOM     44  C   UNL     1      -7.976  -0.720 127.782  0.00  0.00    +0.000 C 
BRANCH  44  45
ATOM     45  C   UNL     1      -8.118   0.229 128.983  0.00  0.00    +0.000 C 
ATOM     46  N   UNL     1      -8.590   1.491 128.758  0.00  0.00    +0.000 N 
ATOM     47  O   UNL     1      -7.826  -0.108 130.128  0.00  0.00    +0.000 OA
ATOM     48  H   UNL     1      -8.857   1.877 127.870  0.00  0.00    +0.000 HD
ATOM     49  H   UNL     1      -8.672   2.102 129.562  0.00  0.00    +0.000 HD
ENDBRANCH  44  45
ENDBRANCH  42  44
ENDBRANCH  39  40
BRANCH  39  50
ATOM     50  C   UNL     1      -6.642  -0.222 123.657  0.00  0.00    +0.000 C 
BRANCH  50  51
ATOM     51  C   UNL     1      -7.103  -1.466 122.897  0.00  0.00    +0.000 C 
ATOM     52  C   UNL     1      -5.939  -2.111 122.201  0.00  0.00    +0.000 C 
ATOM     53  C   UNL     1      -7.574  -2.636 123.740  0.00  0.00    +0.000 C 
ENDBRANCH  50  51
ENDBRANCH  39  50
ENDBRANCH  37  39
ENDBRANCH  34  35
ENDBRANCH  33  34
BRANCH  33  54
ATOM     54  C   UNL     1      -4.075   3.280 126.141  0.00  0.00    +0.000 C 
BRANCH  54  55
ATOM     55  C   UNL     1      -2.778   3.999 126.282  0.00  0.00    +0.000 C 
BRANCH  55  56
ATOM     56  C   UNL     1      -1.565   3.098 126.211  0.00  0.00    +0.000 C 
BRANCH  56  57
ATOM     57  O   UNL     1      -1.518   2.279 127.344  0.00  0.00    +0.000 OA
ATOM     58  H   UNL     1      -0.679   1.795 127.256  0.00  0.00    +0.000 HD
ENDBRANCH  56  57
ENDBRANCH  55  56
ENDBRANCH  54  55
ENDBRANCH  33  54
ENDBRANCH  14  31
BRANCH   1  59
ATOM     59  C   UNL     1      -6.304  -1.520 132.986  0.00  0.00    +0.000 C 
ATOM     60  C   UNL     1      -6.315  -2.885 132.085  0.00  0.00    +0.000 C 
BRANCH  59  62
ATOM     61  C   UNL     1      -8.370  -3.187 134.091  0.00  0.00    +0.000 C 
ATOM     62  C   UNL     1      -7.644  -2.071 133.364  0.00  0.00    +0.000 C 
ENDBRANCH  59  62
ENDBRANCH   1  59
BRANCH  18  63
ATOM     63  C   UNL     1      -4.394   3.360 131.549  0.00  0.00    +0.000 C 
BRANCH  63  64
ATOM     64  C   UNL     1      -3.103   3.739 130.995  0.00  0.00    +0.000 C 
ATOM     65  N   UNL     1      -2.172   4.066 131.887  0.00  0.00    +0.000 N 
ATOM     66  O   UNL     1      -2.850   3.736 129.781  0.00  0.00    +0.000 OA
ATOM     67  H   UNL     1      -2.325   3.803 132.847  0.00  0.00    +0.000 HD
ATOM     68  H   UNL     1      -1.240   3.869 131.575  0.00  0.00    +0.000 HD
ENDBRANCH  63  64
ENDBRANCH  18  63
BRANCH   5  69
ATOM     69  C   UNL     1      -6.975   4.742 134.625  0.00  0.00    +0.000 C 
BRANCH  69  70
ATOM     70  C   UNL     1      -7.857   4.083 133.607  0.00  0.00    +0.000 A 
ATOM     71  C   UNL     1      -8.028   4.701 132.447  0.00  0.00    +0.000 A 
ATOM     72  C   UNL     1      -9.052   4.283 131.501  0.00  0.00    +0.000 A 
ATOM     73  C   UNL     1      -9.954   3.271 131.622  0.00  0.00    +0.000 A 
ATOM     74  C   UNL     1      -9.590   2.512 132.658  0.00  0.00    +0.000 A 
ATOM     75  C   UNL     1      -8.547   2.899 133.603  0.00  0.00    +0.000 A 
BRANCH  73  76
ATOM     76  O   UNL     1     -11.205   3.035 131.131  0.00  0.00    +0.000 OA
ATOM     77  H   UNL     1     -11.797   2.312 131.407  0.00  0.00    +0.000 HD
ENDBRANCH  73  76
ENDBRANCH  69  70
ENDBRANCH   5  69
BRANCH  22  78
ATOM     78  C   UNL     1      -4.295  -0.884 131.042  0.00  0.00    +0.000 C 
BRANCH  78  79
ATOM     79  C   UNL     1      -3.163  -1.830 130.749  0.00  0.00    +0.000 C 
BRANCH  79  80
ATOM     80  C   UNL     1      -3.506  -2.592 129.477  0.00  0.00    +0.000 C 
ATOM     81  N   UNL     1      -4.447  -2.075 128.618  0.00  0.00    +0.000 N 
ATOM     82  O   UNL     1      -2.979  -3.669 129.228  0.00  0.00    +0.000 OA
ATOM     83  H   UNL     1      -4.858  -1.150 128.668  0.00  0.00    +0.000 HD
ATOM     84  H   UNL     1      -4.586  -2.542 127.736  0.00  0.00    +0.000 HD
ENDBRANCH  79  80
ENDBRANCH  78  79
ENDBRANCH  22  78
TORSDOF 23
ENDMDL
MODEL 7
REMARK VINA RESULT:      -6.8      3.841      8.097
REMARK  Name = CHEMBL3354579
REMARK  27 active torsions:
REMARK  status: ('A' for Active; 'I' for Inactive)
REMARK    1  A    between atoms: C_1  and  C_2
REMARK    2  A    between atoms: C_2  and  C_3
REMARK    3  A    between atoms: C_3  and  C_4
REMARK    4  A    between atoms: C_3  and  C_5
REMARK    5  A    between atoms: C_9  and  C_10
REMARK    6  A    between atoms: C_10  and  C_11
REMARK    7  A    between atoms: C_14  and  O_15
REMARK    8  A    between atoms: C_26  and  C_27
REMARK    9  A    between atoms: N_29  and  C_30
REMARK   10  A    between atoms: N_29  and  C_34
REMARK   11  A    between atoms: C_30  and  C_31
REMARK   12  A    between atoms: C_31  and  C_32
REMARK   13  A    between atoms: C_32  and  O_33
REMARK   14  A    between atoms: C_34  and  C_35
REMARK   15  A    between atoms: N_37  and  C_38
REMARK   16  A    between atoms: C_38  and  C_39
REMARK   17  A    between atoms: C_38  and  C_43
REMARK   18  A    between atoms: C_39  and  C_40
REMARK   19  A    between atoms: C_40  and  C_41
REMARK   20  A    between atoms: C_40  and  C_42
REMARK   21  A    between atoms: N_45  and  C_46
REMARK   22  A    between atoms: C_46  and  C_47
REMARK   23  A    between atoms: C_53  and  C_54
REMARK   24  A    between atoms: C_54  and  C_55
REMARK   25  A    between atoms: C_61  and  C_62
REMARK   26  A    between atoms: C_62  and  C_63
REMARK   27  A    between atoms: C_63  and  C_64
REMARK                            x       y       z     vdW  Elec       q    Type
REMARK                         _______ _______ _______ _____ _____    ______ ____
ROOT
ATOM      1  C   UNL     1      -4.907  -0.079 137.065  0.00  0.00    +0.000 C 
ATOM      2  N   UNL     1      -4.168   1.628 136.501  0.00  0.00    +0.000 N 
ATOM      3  C   UNL     1      -4.146   3.046 136.122  0.00  0.00    +0.000 C 
ATOM      4  O   UNL     1      -3.223   3.285 135.292  0.00  0.00    +0.000 OA
ATOM      5  C   UNL     1      -5.023   4.455 136.551  0.00  0.00    +0.000 C 
ATOM      6  N   UNL     1      -4.136   5.715 136.587  0.00  0.00    +0.000 N 
ATOM      7  C   UNL     1      -3.902   6.781 135.750  0.00  0.00    +0.000 C 
ATOM      8  O   UNL     1      -3.287   7.749 136.225  0.00  0.00    +0.000 OA
ATOM      9  C   UNL     1      -4.351   6.904 134.288  0.00  0.00    +0.000 C 
ATOM     10  C   UNL     1      -5.036   5.736 133.677  0.00  0.00    +0.000 C 
ATOM     11  C   UNL     1      -5.471   5.876 132.222  0.00  0.00    +0.000 C 
ATOM     12  S   UNL     1      -6.792   4.710 131.985  0.00  0.00    +0.000 S 
ATOM     13  C   UNL     1      -6.871   3.961 130.285  0.00  0.00    +0.000 C 
ATOM     14  C   UNL     1      -7.648   2.499 130.249  0.00  0.00    +0.000 C 
ATOM     15  N   UNL     1      -6.793   1.322 130.492  0.00  0.00    +0.000 N 
ATOM     16  C   UNL     1      -6.256   0.970 131.653  0.00  0.00    +0.000 C 
ATOM     17  O   UNL     1      -5.692  -0.190 131.708  0.00  0.00    +0.000 OA
ATOM     18  C   UNL     1      -6.179   1.965 132.699  0.00  0.00    +0.000 C 
ATOM     19  N   UNL     1      -6.497   1.498 133.928  0.00  0.00    +0.000 N 
ATOM     20  C   UNL     1      -5.616   0.945 134.744  0.00  0.00    +0.000 C 
ATOM     21  O   UNL     1      -6.082   1.103 135.877  0.00  0.00    +0.000 OA
ATOM     22  C   UNL     1      -4.411  -0.147 134.371  0.00  0.00    +0.000 C 
ATOM     23  N   UNL     1      -3.314  -0.379 135.362  0.00  0.00    +0.000 N 
ATOM     24  C   UNL     1      -3.549  -0.599 136.723  0.00  0.00    +0.000 C 
ATOM     25  O   UNL     1      -2.665  -0.664 137.555  0.00  0.00    +0.000 OA
ATOM     26  H   UNL     1      -3.491   1.459 135.755  0.00  0.00    +0.000 HD
ATOM     27  H   UNL     1      -3.747   5.911 137.504  0.00  0.00    +0.000 HD
ATOM     28  H   UNL     1      -6.814   0.562 129.814  0.00  0.00    +0.000 HD
ATOM     29  H   UNL     1      -7.037   2.237 134.351  0.00  0.00    +0.000 HD
ATOM     30  H   UNL     1      -2.531   0.261 135.347  0.00  0.00    +0.000 HD
ENDROOT
BRANCH  14  31
ATOM     31  C   UNL     1      -8.339   2.316 128.899  0.00  0.00    +0.000 C 
ATOM     32  O   UNL     1      -9.571   2.247 128.855  0.00  0.00    +0.000 OA
ATOM     33  N   UNL     1      -7.537   2.270 127.762  0.00  0.00    +0.000 N 
BRANCH  33  34
ATOM     34  C   UNL     1      -8.221   1.898 126.466  0.00  0.00    +0.000 C 
BRANCH  34  35
ATOM     35  C   UNL     1      -8.896   0.451 126.364  0.00  0.00    +0.000 C 
ATOM     36  O   UNL     1      -9.900   0.229 125.685  0.00  0.00    +0.000 OA
ATOM     37  N   UNL     1      -8.183  -0.640 126.834  0.00  0.00    +0.000 N 
ATOM     38  H   UNL     1      -7.491  -0.542 127.572  0.00  0.00    +0.000 HD
BRANCH  37  39
ATOM     39  C   UNL     1      -8.413  -2.011 126.288  0.00  0.00    +0.000 C 
BRANCH  39  40
ATOM     40  C   UNL     1      -8.311  -3.025 127.457  0.00  0.00    +0.000 C 
ATOM     41  O   UNL     1      -8.960  -4.071 127.460  0.00  0.00    +0.000 OA
ATOM     42  N   UNL     1      -7.475  -2.669 128.496  0.00  0.00    +0.000 N 
ATOM     43  H   UNL     1      -6.977  -1.797 128.450  0.00  0.00    +0.000 HD
BRANCH  42  44
ATOM     44  C   UNL     1      -7.285  -3.535 129.656  0.00  0.00    +0.000 C 
BRANCH  44  45
ATOM     45  C   UNL     1      -5.827  -3.852 130.029  0.00  0.00    +0.000 C 
ATOM     46  N   UNL     1      -5.596  -4.801 130.984  0.00  0.00    +0.000 N 
ATOM     47  O   UNL     1      -4.873  -3.286 129.501  0.00  0.00    +0.000 OA
ATOM     48  H   UNL     1      -6.291  -5.324 131.484  0.00  0.00    +0.000 HD
ATOM     49  H   UNL     1      -4.628  -4.992 131.218  0.00  0.00    +0.000 HD
ENDBRANCH  44  45
ENDBRANCH  42  44
ENDBRANCH  39  40
BRANCH  39  50
ATOM     50  C   UNL     1      -7.413  -2.460 125.159  0.00  0.00    +0.000 C 
BRANCH  50  51
ATOM     51  C   UNL     1      -8.030  -2.711 123.783  0.00  0.00    +0.000 C 
ATOM     52  C   UNL     1      -9.375  -3.366 123.927  0.00  0.00    +0.000 C 
ATOM     53  C   UNL     1      -8.430  -1.483 122.988  0.00  0.00    +0.000 C 
ENDBRANCH  50  51
ENDBRANCH  39  50
ENDBRANCH  37  39
ENDBRANCH  34  35
ENDBRANCH  33  34
BRANCH  33  54
ATOM     54  C   UNL     1      -6.062   2.311 127.774  0.00  0.00    +0.000 C 
BRANCH  54  55
ATOM     55  C   UNL     1      -5.243   2.760 126.614  0.00  0.00    +0.000 C 
BRANCH  55  56
ATOM     56  C   UNL     1      -3.794   2.333 126.682  0.00  0.00    +0.000 C 
BRANCH  56  57
ATOM     57  O   UNL     1      -3.394   2.232 128.019  0.00  0.00    +0.000 OA
ATOM     58  H   UNL     1      -3.362   1.275 128.189  0.00  0.00    +0.000 HD
ENDBRANCH  56  57
ENDBRANCH  55  56
ENDBRANCH  54  55
ENDBRANCH  33  54
ENDBRANCH  14  31
BRANCH   1  59
ATOM     59  C   UNL     1      -6.082  -1.462 136.305  0.00  0.00    +0.000 C 
ATOM     60  C   UNL     1      -6.295  -3.022 135.863  0.00  0.00    +0.000 C 
BRANCH  59  62
ATOM     61  C   UNL     1      -8.313  -2.844 137.481  0.00  0.00    +0.000 C 
ATOM     62  C   UNL     1      -7.204  -1.842 137.221  0.00  0.00    +0.000 C 
ENDBRANCH  59  62
ENDBRANCH   1  59
BRANCH  18  63
ATOM     63  C   UNL     1      -4.940   2.728 133.040  0.00  0.00    +0.000 C 
BRANCH  63  64
ATOM     64  C   UNL     1      -3.791   2.655 132.150  0.00  0.00    +0.000 C 
ATOM     65  N   UNL     1      -2.636   2.341 132.732  0.00  0.00    +0.000 N 
ATOM     66  O   UNL     1      -3.859   2.837 130.926  0.00  0.00    +0.000 OA
ATOM     67  H   UNL     1      -2.667   1.944 133.657  0.00  0.00    +0.000 HD
ATOM     68  H   UNL     1      -2.007   1.854 132.122  0.00  0.00    +0.000 HD
ENDBRANCH  63  64
ENDBRANCH  18  63
BRANCH   5  69
ATOM     69  C   UNL     1      -6.530   5.030 136.235  0.00  0.00    +0.000 C 
BRANCH  69  70
ATOM     70  C   UNL     1      -7.215   6.021 137.128  0.00  0.00    +0.000 A 
ATOM     71  C   UNL     1      -8.156   6.786 136.592  0.00  0.00    +0.000 A 
ATOM     72  C   UNL     1      -8.697   7.940 137.294  0.00  0.00    +0.000 A 
ATOM     73  C   UNL     1      -8.360   8.416 138.524  0.00  0.00    +0.000 A 
ATOM     74  C   UNL     1      -7.620   7.492 139.140  0.00  0.00    +0.000 A 
ATOM     75  C   UNL     1      -7.091   6.312 138.461  0.00  0.00    +0.000 A 
BRANCH  73  76
ATOM     76  O   UNL     1      -8.378   9.645 139.116  0.00  0.00    +0.000 OA
ATOM     77  H   UNL     1      -9.174  10.127 139.403  0.00  0.00    +0.000 HD
ENDBRANCH  73  76
ENDBRANCH  69  70
ENDBRANCH   5  69
BRANCH  22  78
ATOM     78  C   UNL     1      -4.792  -1.486 133.745  0.00  0.00    +0.000 C 
BRANCH  78  79
ATOM     79  C   UNL     1      -3.773  -2.566 133.503  0.00  0.00    +0.000 C 
BRANCH  79  80
ATOM     80  C   UNL     1      -2.695  -1.996 132.593  0.00  0.00    +0.000 C 
ATOM     81  N   UNL     1      -2.949  -1.870 131.248  0.00  0.00    +0.000 N 
ATOM     82  O   UNL     1      -1.598  -1.682 133.039  0.00  0.00    +0.000 OA
ATOM     83  H   UNL     1      -3.847  -1.992 130.795  0.00  0.00    +0.000 HD
ATOM     84  H   UNL     1      -2.261  -1.399 130.681  0.00  0.00    +0.000 HD
ENDBRANCH  79  80
ENDBRANCH  78  79
ENDBRANCH  22  78
TORSDOF 23
ENDMDL
MODEL 8
REMARK VINA RESULT:      -6.8      4.281     10.885
REMARK  Name = CHEMBL3354579
REMARK  27 active torsions:
REMARK  status: ('A' for Active; 'I' for Inactive)
REMARK    1  A    between atoms: C_1  and  C_2
REMARK    2  A    between atoms: C_2  and  C_3
REMARK    3  A    between atoms: C_3  and  C_4
REMARK    4  A    between atoms: C_3  and  C_5
REMARK    5  A    between atoms: C_9  and  C_10
REMARK    6  A    between atoms: C_10  and  C_11
REMARK    7  A    between atoms: C_14  and  O_15
REMARK    8  A    between atoms: C_26  and  C_27
REMARK    9  A    between atoms: N_29  and  C_30
REMARK   10  A    between atoms: N_29  and  C_34
REMARK   11  A    between atoms: C_30  and  C_31
REMARK   12  A    between atoms: C_31  and  C_32
REMARK   13  A    between atoms: C_32  and  O_33
REMARK   14  A    between atoms: C_34  and  C_35
REMARK   15  A    between atoms: N_37  and  C_38
REMARK   16  A    between atoms: C_38  and  C_39
REMARK   17  A    between atoms: C_38  and  C_43
REMARK   18  A    between atoms: C_39  and  C_40
REMARK   19  A    between atoms: C_40  and  C_41
REMARK   20  A    between atoms: C_40  and  C_42
REMARK   21  A    between atoms: N_45  and  C_46
REMARK   22  A    between atoms: C_46  and  C_47
REMARK   23  A    between atoms: C_53  and  C_54
REMARK   24  A    between atoms: C_54  and  C_55
REMARK   25  A    between atoms: C_61  and  C_62
REMARK   26  A    between atoms: C_62  and  C_63
REMARK   27  A    between atoms: C_63  and  C_64
REMARK                            x       y       z     vdW  Elec       q    Type
REMARK                         _______ _______ _______ _____ _____    ______ ____
ROOT
ATOM      1  C   UNL     1      -6.814  -0.836 131.499  0.00  0.00    +0.000 C 
ATOM      2  N   UNL     1      -7.874   0.758 131.838  0.00  0.00    +0.000 N 
ATOM      3  C   UNL     1      -8.474   2.074 131.592  0.00  0.00    +0.000 C 
ATOM      4  O   UNL     1      -8.636   2.715 132.670  0.00  0.00    +0.000 OA
ATOM      5  C   UNL     1      -9.045   2.937 130.225  0.00  0.00    +0.000 C 
ATOM      6  N   UNL     1     -10.288   3.791 130.542  0.00  0.00    +0.000 N 
ATOM      7  C   UNL     1     -10.534   5.121 130.797  0.00  0.00    +0.000 C 
ATOM      8  O   UNL     1     -11.717   5.492 130.774  0.00  0.00    +0.000 OA
ATOM      9  C   UNL     1      -9.481   6.199 131.083  0.00  0.00    +0.000 C 
ATOM     10  C   UNL     1      -8.062   5.771 131.176  0.00  0.00    +0.000 C 
ATOM     11  C   UNL     1      -7.031   6.857 131.464  0.00  0.00    +0.000 C 
ATOM     12  S   UNL     1      -5.478   6.241 130.857  0.00  0.00    +0.000 S 
ATOM     13  C   UNL     1      -3.991   6.785 131.833  0.00  0.00    +0.000 C 
ATOM     14  C   UNL     1      -2.695   5.768 131.670  0.00  0.00    +0.000 C 
ATOM     15  N   UNL     1      -2.644   4.647 132.627  0.00  0.00    +0.000 N 
ATOM     16  C   UNL     1      -3.435   3.582 132.628  0.00  0.00    +0.000 C 
ATOM     17  O   UNL     1      -3.120   2.621 133.430  0.00  0.00    +0.000 OA
ATOM     18  C   UNL     1      -4.672   3.650 131.883  0.00  0.00    +0.000 C 
ATOM     19  N   UNL     1      -4.958   2.527 131.185  0.00  0.00    +0.000 N 
ATOM     20  C   UNL     1      -5.621   1.505 131.696  0.00  0.00    +0.000 C 
ATOM     21  O   UNL     1      -6.125   0.929 130.725  0.00  0.00    +0.000 OA
ATOM     22  C   UNL     1      -5.450   0.817 133.207  0.00  0.00    +0.000 C 
ATOM     23  N   UNL     1      -6.524  -0.095 133.711  0.00  0.00    +0.000 N 
ATOM     24  C   UNL     1      -7.076  -1.124 132.941  0.00  0.00    +0.000 C 
ATOM     25  O   UNL     1      -8.031  -1.787 133.293  0.00  0.00    +0.000 OA
ATOM     26  H   UNL     1      -7.713   1.056 132.802  0.00  0.00    +0.000 HD
ATOM     27  H   UNL     1     -11.165   3.311 130.365  0.00  0.00    +0.000 HD
ATOM     28  H   UNL     1      -1.793   4.513 133.170  0.00  0.00    +0.000 HD
ATOM     29  H   UNL     1      -5.329   2.858 130.309  0.00  0.00    +0.000 HD
ATOM     30  H   UNL     1      -7.323   0.332 134.162  0.00  0.00    +0.000 HD
ENDROOT
BRANCH  14  31
ATOM     31  C   UNL     1      -1.397   6.564 131.799  0.00  0.00    +0.000 C 
ATOM     32  O   UNL     1      -0.575   6.534 130.879  0.00  0.00    +0.000 OA
ATOM     33  N   UNL     1      -1.217   7.325 132.952  0.00  0.00    +0.000 N 
BRANCH  33  34
ATOM     34  C   UNL     1       0.148   7.947 133.144  0.00  0.00    +0.000 C 
BRANCH  34  35
ATOM     35  C   UNL     1       0.216   9.488 133.566  0.00  0.00    +0.000 C 
ATOM     36  O   UNL     1      -0.212  10.396 132.852  0.00  0.00    +0.000 OA
ATOM     37  N   UNL     1       0.518   9.794 134.884  0.00  0.00    +0.000 N 
ATOM     38  H   UNL     1       1.076   9.169 135.458  0.00  0.00    +0.000 HD
BRANCH  37  39
ATOM     39  C   UNL     1       0.051  11.067 135.511  0.00  0.00    +0.000 C 
BRANCH  39  40
ATOM     40  C   UNL     1       1.287  11.815 136.074  0.00  0.00    +0.000 C 
ATOM     41  O   UNL     1       2.299  11.210 136.428  0.00  0.00    +0.000 OA
ATOM     42  N   UNL     1       1.171  13.187 136.176  0.00  0.00    +0.000 N 
ATOM     43  H   UNL     1       0.318  13.631 135.884  0.00  0.00    +0.000 HD
BRANCH  42  44
ATOM     44  C   UNL     1       2.262  14.012 136.685  0.00  0.00    +0.000 C 
BRANCH  44  45
ATOM     45  C   UNL     1       1.935  15.496 136.917  0.00  0.00    +0.000 C 
ATOM     46  N   UNL     1       1.300  16.181 135.921  0.00  0.00    +0.000 N 
ATOM     47  O   UNL     1       2.221  16.079 137.960  0.00  0.00    +0.000 OA
ATOM     48  H   UNL     1       1.021  15.813 135.030  0.00  0.00    +0.000 HD
ATOM     49  H   UNL     1       1.096  17.159 136.092  0.00  0.00    +0.000 HD
ENDBRANCH  44  45
ENDBRANCH  42  44
ENDBRANCH  39  40
BRANCH  39  50
ATOM     50  C   UNL     1      -0.994  10.897 136.676  0.00  0.00    +0.000 C 
BRANCH  50  51
ATOM     51  C   UNL     1      -2.419  11.351 136.364  0.00  0.00    +0.000 C 
ATOM     52  C   UNL     1      -2.499  11.894 134.965  0.00  0.00    +0.000 C 
ATOM     53  C   UNL     1      -3.472  10.262 136.273  0.00  0.00    +0.000 C 
ENDBRANCH  50  51
ENDBRANCH  39  50
ENDBRANCH  37  39
ENDBRANCH  34  35
ENDBRANCH  33  34
BRANCH  33  54
ATOM     54  C   UNL     1      -2.155   7.360 134.090  0.00  0.00    +0.000 C 
BRANCH  54  55
ATOM     55  C   UNL     1      -1.769   7.009 135.485  0.00  0.00    +0.000 C 
BRANCH  55  56
ATOM     56  C   UNL     1      -2.810   6.199 136.225  0.00  0.00    +0.000 C 
BRANCH  56  57
ATOM     57  O   UNL     1      -3.071   5.015 135.527  0.00  0.00    +0.000 OA
ATOM     58  H   UNL     1      -2.220   4.787 135.115  0.00  0.00    +0.000 HD
ENDBRANCH  56  57
ENDBRANCH  55  56
ENDBRANCH  54  55
ENDBRANCH  33  54
ENDBRANCH  14  31
BRANCH   1  59
ATOM     59  C   UNL     1      -4.908  -1.288 131.327  0.00  0.00    +0.000 C 
ATOM     60  C   UNL     1      -3.623  -2.145 131.868  0.00  0.00    +0.000 C 
BRANCH  59  62
ATOM     61  C   UNL     1      -4.741  -2.190 128.601  0.00  0.00    +0.000 C 
ATOM     62  C   UNL     1      -4.610  -2.109 130.111  0.00  0.00    +0.000 C 
ENDBRANCH  59  62
ENDBRANCH   1  59
BRANCH  18  63
ATOM     63  C   UNL     1      -6.010   3.900 132.501  0.00  0.00    +0.000 C 
BRANCH  63  64
ATOM     64  C   UNL     1      -6.096   4.177 133.927  0.00  0.00    +0.000 C 
ATOM     65  N   UNL     1      -5.966   5.457 134.270  0.00  0.00    +0.000 N 
ATOM     66  O   UNL     1      -6.306   3.307 134.784  0.00  0.00    +0.000 OA
ATOM     67  H   UNL     1      -6.066   6.151 133.547  0.00  0.00    +0.000 HD
ATOM     68  H   UNL     1      -6.466   5.694 135.106  0.00  0.00    +0.000 HD
ENDBRANCH  63  64
ENDBRANCH  18  63
BRANCH   5  69
ATOM     69  C   UNL     1      -8.340   3.706 128.955  0.00  0.00    +0.000 C 
BRANCH  69  70
ATOM     70  C   UNL     1      -7.386   3.016 128.027  0.00  0.00    +0.000 A 
ATOM     71  C   UNL     1      -7.883   2.122 127.184  0.00  0.00    +0.000 A 
ATOM     72  C   UNL     1      -7.025   1.221 126.429  0.00  0.00    +0.000 A 
ATOM     73  C   UNL     1      -5.668   1.128 126.451  0.00  0.00    +0.000 A 
ATOM     74  C   UNL     1      -5.188   2.198 127.090  0.00  0.00    +0.000 A 
ATOM     75  C   UNL     1      -6.034   3.130 127.830  0.00  0.00    +0.000 A 
BRANCH  73  76
ATOM     76  O   UNL     1      -4.769   0.127 126.225  0.00  0.00    +0.000 OA
ATOM     77  H   UNL     1      -3.819   0.157 126.439  0.00  0.00    +0.000 HD
ENDBRANCH  73  76
ENDBRANCH  69  70
ENDBRANCH   5  69
BRANCH  22  78
ATOM     78  C   UNL     1      -4.095   0.243 133.610  0.00  0.00    +0.000 C 
BRANCH  78  79
ATOM     79  C   UNL     1      -3.851  -0.320 134.984  0.00  0.00    +0.000 C 
BRANCH  79  80
ATOM     80  C   UNL     1      -4.309   0.714 136.002  0.00  0.00    +0.000 C 
ATOM     81  N   UNL     1      -3.636   1.910 136.093  0.00  0.00    +0.000 N 
ATOM     82  O   UNL     1      -5.243   0.480 136.758  0.00  0.00    +0.000 OA
ATOM     83  H   UNL     1      -2.930   2.249 135.451  0.00  0.00    +0.000 HD
ATOM     84  H   UNL     1      -4.015   2.618 136.702  0.00  0.00    +0.000 HD
ENDBRANCH  79  80
ENDBRANCH  78  79
ENDBRANCH  22  78
TORSDOF 23
ENDMDL
MODEL 9
REMARK VINA RESULT:      -6.7      2.623      4.059
REMARK  Name = CHEMBL3354579
REMARK  27 active torsions:
REMARK  status: ('A' for Active; 'I' for Inactive)
REMARK    1  A    between atoms: C_1  and  C_2
REMARK    2  A    between atoms: C_2  and  C_3
REMARK    3  A    between atoms: C_3  and  C_4
REMARK    4  A    between atoms: C_3  and  C_5
REMARK    5  A    between atoms: C_9  and  C_10
REMARK    6  A    between atoms: C_10  and  C_11
REMARK    7  A    between atoms: C_14  and  O_15
REMARK    8  A    between atoms: C_26  and  C_27
REMARK    9  A    between atoms: N_29  and  C_30
REMARK   10  A    between atoms: N_29  and  C_34
REMARK   11  A    between atoms: C_30  and  C_31
REMARK   12  A    between atoms: C_31  and  C_32
REMARK   13  A    between atoms: C_32  and  O_33
REMARK   14  A    between atoms: C_34  and  C_35
REMARK   15  A    between atoms: N_37  and  C_38
REMARK   16  A    between atoms: C_38  and  C_39
REMARK   17  A    between atoms: C_38  and  C_43
REMARK   18  A    between atoms: C_39  and  C_40
REMARK   19  A    between atoms: C_40  and  C_41
REMARK   20  A    between atoms: C_40  and  C_42
REMARK   21  A    between atoms: N_45  and  C_46
REMARK   22  A    between atoms: C_46  and  C_47
REMARK   23  A    between atoms: C_53  and  C_54
REMARK   24  A    between atoms: C_54  and  C_55
REMARK   25  A    between atoms: C_61  and  C_62
REMARK   26  A    between atoms: C_62  and  C_63
REMARK   27  A    between atoms: C_63  and  C_64
REMARK                            x       y       z     vdW  Elec       q    Type
REMARK                         _______ _______ _______ _____ _____    ______ ____
ROOT
ATOM      1  C   UNL     1      -5.202   6.399 131.255  0.00  0.00    +0.000 C 
ATOM      2  N   UNL     1      -5.578   5.281 129.710  0.00  0.00    +0.000 N 
ATOM      3  C   UNL     1      -6.306   4.334 128.857  0.00  0.00    +0.000 C 
ATOM      4  O   UNL     1      -5.512   3.646 128.153  0.00  0.00    +0.000 OA
ATOM      5  C   UNL     1      -7.950   3.960 128.546  0.00  0.00    +0.000 C 
ATOM      6  N   UNL     1      -8.204   3.592 127.072  0.00  0.00    +0.000 N 
ATOM      7  C   UNL     1      -8.376   2.426 126.361  0.00  0.00    +0.000 C 
ATOM      8  O   UNL     1      -8.805   2.528 125.201  0.00  0.00    +0.000 OA
ATOM      9  C   UNL     1      -8.112   1.004 126.872  0.00  0.00    +0.000 C 
ATOM     10  C   UNL     1      -7.540   0.856 128.235  0.00  0.00    +0.000 C 
ATOM     11  C   UNL     1      -7.282  -0.565 128.724  0.00  0.00    +0.000 C 
ATOM     12  S   UNL     1      -7.278  -0.486 130.500  0.00  0.00    +0.000 S 
ATOM     13  C   UNL     1      -6.119  -1.682 131.328  0.00  0.00    +0.000 C 
ATOM     14  C   UNL     1      -5.666  -1.208 132.848  0.00  0.00    +0.000 C 
ATOM     15  N   UNL     1      -4.473  -0.343 132.912  0.00  0.00    +0.000 N 
ATOM     16  C   UNL     1      -4.405   0.927 132.532  0.00  0.00    +0.000 C 
ATOM     17  O   UNL     1      -3.328   1.571 132.836  0.00  0.00    +0.000 OA
ATOM     18  C   UNL     1      -5.441   1.436 131.662  0.00  0.00    +0.000 C 
ATOM     19  N   UNL     1      -5.874   2.676 131.987  0.00  0.00    +0.000 N 
ATOM     20  C   UNL     1      -5.310   3.782 131.536  0.00  0.00    +0.000 C 
ATOM     21  O   UNL     1      -6.196   4.641 131.591  0.00  0.00    +0.000 OA
ATOM     22  C   UNL     1      -3.683   4.122 131.388  0.00  0.00    +0.000 C 
ATOM     23  N   UNL     1      -3.261   5.281 130.540  0.00  0.00    +0.000 N 
ATOM     24  C   UNL     1      -3.856   6.544 130.623  0.00  0.00    +0.000 C 
ATOM     25  O   UNL     1      -3.609   7.454 129.856  0.00  0.00    +0.000 OA
ATOM     26  H   UNL     1      -4.717   4.804 129.436  0.00  0.00    +0.000 HD
ATOM     27  H   UNL     1      -8.475   4.384 126.497  0.00  0.00    +0.000 HD
ATOM     28  H   UNL     1      -3.709  -0.617 133.528  0.00  0.00    +0.000 HD
ATOM     29  H   UNL     1      -6.872   2.641 131.850  0.00  0.00    +0.000 HD
ATOM     30  H   UNL     1      -3.164   5.118 129.546  0.00  0.00    +0.000 HD
ENDROOT
BRANCH  14  31
ATOM     31  C   UNL     1      -5.410  -2.438 133.716  0.00  0.00    +0.000 C 
ATOM     32  O   UNL     1      -5.016  -3.482 133.186  0.00  0.00    +0.000 OA
ATOM     33  N   UNL     1      -5.603  -2.313 135.090  0.00  0.00    +0.000 N 
BRANCH  33  34
ATOM     34  C   UNL     1      -5.531  -3.586 135.902  0.00  0.00    +0.000 C 
BRANCH  34  35
ATOM     35  C   UNL     1      -6.820  -4.532 135.929  0.00  0.00    +0.000 C 
ATOM     36  O   UNL     1      -6.835  -5.655 135.422  0.00  0.00    +0.000 OA
ATOM     37  N   UNL     1      -7.864  -4.193 136.775  0.00  0.00    +0.000 N 
ATOM     38  H   UNL     1      -8.035  -3.228 137.044  0.00  0.00    +0.000 HD
BRANCH  37  39
ATOM     39  C   UNL     1      -8.793  -5.231 137.315  0.00  0.00    +0.000 C 
BRANCH  39  40
ATOM     40  C   UNL     1     -10.180  -4.573 137.541  0.00  0.00    +0.000 C 
ATOM     41  O   UNL     1     -11.215  -5.238 137.535  0.00  0.00    +0.000 OA
ATOM     42  N   UNL     1     -10.178  -3.205 137.720  0.00  0.00    +0.000 N 
ATOM     43  H   UNL     1      -9.305  -2.707 137.704  0.00  0.00    +0.000 HD
BRANCH  42  44
ATOM     44  C   UNL     1     -11.415  -2.462 137.947  0.00  0.00    +0.000 C 
BRANCH  44  45
ATOM     45  C   UNL     1     -12.024  -2.579 139.353  0.00  0.00    +0.000 C 
ATOM     46  N   UNL     1     -13.015  -3.498 139.555  0.00  0.00    +0.000 N 
ATOM     47  O   UNL     1     -11.650  -1.882 140.294  0.00  0.00    +0.000 OA
ATOM     48  H   UNL     1     -13.401  -4.117 138.866  0.00  0.00    +0.000 HD
ATOM     49  H   UNL     1     -13.406  -3.556 140.488  0.00  0.00    +0.000 HD
ENDBRANCH  44  45
ENDBRANCH  42  44
ENDBRANCH  39  40
BRANCH  39  50
ATOM     50  C   UNL     1      -8.340  -5.900 138.666  0.00  0.00    +0.000 C 
BRANCH  50  51
ATOM     51  C   UNL     1      -7.397  -5.069 139.537  0.00  0.00    +0.000 C 
ATOM     52  C   UNL     1      -8.168  -4.374 140.623  0.00  0.00    +0.000 C 
ATOM     53  C   UNL     1      -6.405  -5.842 140.386  0.00  0.00    +0.000 C 
ENDBRANCH  50  51
ENDBRANCH  39  50
ENDBRANCH  37  39
ENDBRANCH  34  35
ENDBRANCH  33  34
BRANCH  33  54
ATOM     54  C   UNL     1      -6.107  -1.098 135.759  0.00  0.00    +0.000 C 
BRANCH  54  55
ATOM     55  C   UNL     1      -5.232  -0.131 136.477  0.00  0.00    +0.000 C 
BRANCH  55  56
ATOM     56  C   UNL     1      -3.774  -0.532 136.513  0.00  0.00    +0.000 C 
BRANCH  56  57
ATOM     57  O   UNL     1      -3.063   0.184 135.544  0.00  0.00    +0.000 OA
ATOM     58  H   UNL     1      -2.134  -0.063 135.696  0.00  0.00    +0.000 HD
ENDBRANCH  56  57
ENDBRANCH  55  56
ENDBRANCH  54  55
ENDBRANCH  33  54
ENDBRANCH  14  31
BRANCH   1  59
ATOM     59  C   UNL     1      -4.742   6.132 133.149  0.00  0.00    +0.000 C 
ATOM     60  C   UNL     1      -4.127   6.745 134.534  0.00  0.00    +0.000 C 
BRANCH  59  62
ATOM     61  C   UNL     1      -6.436   6.001 135.469  0.00  0.00    +0.000 C 
ATOM     62  C   UNL     1      -5.946   6.036 134.034  0.00  0.00    +0.000 C 
ENDBRANCH  59  62
ENDBRANCH   1  59
BRANCH  18  63
ATOM     63  C   UNL     1      -5.284   1.610 130.186  0.00  0.00    +0.000 C 
BRANCH  63  64
ATOM     64  C   UNL     1      -4.156   0.987 129.511  0.00  0.00    +0.000 C 
ATOM     65  N   UNL     1      -3.503   1.765 128.651  0.00  0.00    +0.000 N 
ATOM     66  O   UNL     1      -3.786  -0.177 129.725  0.00  0.00    +0.000 OA
ATOM     67  H   UNL     1      -3.659   2.758 128.702  0.00  0.00    +0.000 HD
ATOM     68  H   UNL     1      -2.533   1.529 128.563  0.00  0.00    +0.000 HD
ENDBRANCH  63  64
ENDBRANCH  18  63
BRANCH   5  69
ATOM     69  C   UNL     1      -9.143   3.184 129.368  0.00  0.00    +0.000 C 
BRANCH  69  70
ATOM     70  C   UNL     1      -9.370   3.386 130.836  0.00  0.00    +0.000 A 
ATOM     71  C   UNL     1      -9.641   4.615 131.255  0.00  0.00    +0.000 A 
ATOM     72  C   UNL     1      -9.625   4.963 132.668  0.00  0.00    +0.000 A 
ATOM     73  C   UNL     1      -9.344   4.164 133.733  0.00  0.00    +0.000 A 
ATOM     74  C   UNL     1      -9.339   2.897 133.313  0.00  0.00    +0.000 A 
ATOM     75  C   UNL     1      -9.383   2.525 131.901  0.00  0.00    +0.000 A 
BRANCH  73  76
ATOM     76  O   UNL     1      -8.833   4.371 134.981  0.00  0.00    +0.000 OA
ATOM     77  H   UNL     1      -8.534   5.226 135.339  0.00  0.00    +0.000 HD
ENDBRANCH  73  76
ENDBRANCH  69  70
ENDBRANCH   5  69
BRANCH  22  78
ATOM     78  C   UNL     1      -2.802   4.084 132.634  0.00  0.00    +0.000 C 
BRANCH  78  79
ATOM     79  C   UNL     1      -1.309   4.243 132.552  0.00  0.00    +0.000 C 
BRANCH  79  80
ATOM     80  C   UNL     1      -0.973   5.690 132.882  0.00  0.00    +0.000 C 
ATOM     81  N   UNL     1      -0.421   6.490 131.909  0.00  0.00    +0.000 N 
ATOM     82  O   UNL     1      -1.157   6.137 134.007  0.00  0.00    +0.000 OA
ATOM     83  H   UNL     1      -0.330   6.260 130.926  0.00  0.00    +0.000 HD
ATOM     84  H   UNL     1      -0.299   7.469 132.117  0.00  0.00    +0.000 HD
ENDBRANCH  79  80
ENDBRANCH  78  79
ENDBRANCH  22  78
TORSDOF 23
ENDMDL
