MODEL 1
REMARK VINA RESULT:      -9.0      0.000      0.000
REMARK  Name = CHEMBL194431
REMARK  11 active torsions:
REMARK  status: ('A' for Active; 'I' for Inactive)
REMARK    1  A    between atoms: C_1  and  C_2
REMARK    2  A    between atoms: C_2  and  C_3
REMARK    3  A    between atoms: C_2  and  C_4
REMARK    4  A    between atoms: C_4  and  C_5
REMARK    5  A    between atoms: C_8  and  C_9
REMARK    6  A    between atoms: N_20  and  C_21
REMARK    7  A    between atoms: C_21  and  C_22
REMARK    8  A    between atoms: C_21  and  C_28
REMARK    9  A    between atoms: N_24  and  C_25
REMARK   10  A    between atoms: C_25  and  C_26
REMARK   11  A    between atoms: C_25  and  C_27
REMARK                            x       y       z     vdW  Elec       q    Type
REMARK                         _______ _______ _______ _____ _____    ______ ____
ROOT
ATOM      1  C   UNL     1      -7.681  -0.484 124.940  0.00  0.00    +0.000 C 
ATOM      2  C   UNL     1      -8.917  -0.554 124.016  0.00  0.00    +0.000 C 
ATOM      3  N   UNL     1      -8.889   0.599 123.118  0.00  0.00    +0.000 NA
ATOM      4  C   UNL     1      -8.946   1.863 123.890  0.00  0.00    +0.000 C 
ATOM      5  C   UNL     1      -8.182   1.854 125.222  0.00  0.00    +0.000 C 
ATOM      6  O   UNL     1      -8.010   2.937 125.790  0.00  0.00    +0.000 OA
ATOM      7  N   UNL     1      -7.750   0.694 125.800  0.00  0.00    +0.000 N 
ATOM      8  H   UNL     1      -9.661   0.559 122.455  0.00  0.00    +0.000 HD
ENDROOT
BRANCH   4   9
ATOM      9  C   UNL     1      -8.352   3.032 123.083  0.00  0.00    +0.000 C 
ATOM     10  C   UNL     1      -6.792   3.060 123.005  0.00  0.00    +0.000 C 
ATOM     11  C   UNL     1      -6.572   3.716 121.684  0.00  0.00    +0.000 A 
ATOM     12  C   UNL     1      -5.373   4.183 121.189  0.00  0.00    +0.000 A 
ATOM     13  C   UNL     1      -5.373   4.772 119.928  0.00  0.00    +0.000 A 
ATOM     14  C   UNL     1      -6.551   4.835 119.166  0.00  0.00    +0.000 A 
ATOM     15  C   UNL     1      -7.742   4.291 119.646  0.00  0.00    +0.000 A 
ATOM     16  C   UNL     1      -7.737   3.742 120.914  0.00  0.00    +0.000 A 
ATOM     17  C   UNL     1      -8.857   3.050 121.612  0.00  0.00    +0.000 C 
ENDBRANCH   4   9
BRANCH   1  18
ATOM     18  C   UNL     1      -6.401  -0.497 124.059  0.00  0.00    +0.000 C 
BRANCH  18  20
ATOM     19  C   UNL     1      -6.542  -2.874 124.788  0.00  0.00    +0.000 C 
ATOM     20  C   UNL     1      -5.862  -1.912 123.816  0.00  0.00    +0.000 C 
ATOM     21  C   UNL     1      -6.000  -2.342 122.359  0.00  0.00    +0.000 C 
ENDBRANCH  18  20
ENDBRANCH   1  18
BRANCH   7  22
ATOM     22  C   UNL     1      -7.072   0.713 127.150  0.00  0.00    +0.000 C 
BRANCH  22  23
ATOM     23  C   UNL     1      -5.830   1.651 127.267  0.00  0.00    +0.000 A 
ATOM     24  C   UNL     1      -4.790   1.674 126.320  0.00  0.00    +0.000 A 
ATOM     25  C   UNL     1      -3.691   2.518 126.434  0.00  0.00    +0.000 A 
ATOM     26  C   UNL     1      -3.684   3.503 127.403  0.00  0.00    +0.000 A 
ATOM     27  C   UNL     1      -4.740   3.585 128.305  0.00  0.00    +0.000 A 
ATOM     28  C   UNL     1      -5.761   2.627 128.287  0.00  0.00    +0.000 A 
ENDBRANCH  22  23
BRANCH  22  29
ATOM     29  C   UNL     1      -6.827  -0.725 127.746  0.00  0.00    +0.000 C 
ATOM     30  O   UNL     1      -5.745  -1.310 127.754  0.00  0.00    +0.000 OA
ATOM     31  N   UNL     1      -7.904  -1.398 128.306  0.00  0.00    +0.000 N 
ATOM     32  H   UNL     1      -8.838  -1.051 128.168  0.00  0.00    +0.000 HD
BRANCH  31  33
ATOM     33  C   UNL     1      -7.674  -2.763 128.789  0.00  0.00    +0.000 C 
ATOM     34  C   UNL     1      -7.746  -2.740 130.307  0.00  0.00    +0.000 C 
ATOM     35  C   UNL     1      -8.669  -3.799 128.287  0.00  0.00    +0.000 C 
ENDBRANCH  31  33
ENDBRANCH  22  29
ENDBRANCH   7  22
TORSDOF 7
ENDMDL
MODEL 2
REMARK VINA RESULT:      -8.8      3.817      6.052
REMARK  Name = CHEMBL194431
REMARK  11 active torsions:
REMARK  status: ('A' for Active; 'I' for Inactive)
REMARK    1  A    between atoms: C_1  and  C_2
REMARK    2  A    between atoms: C_2  and  C_3
REMARK    3  A    between atoms: C_2  and  C_4
REMARK    4  A    between atoms: C_4  and  C_5
REMARK    5  A    between atoms: C_8  and  C_9
REMARK    6  A    between atoms: N_20  and  C_21
REMARK    7  A    between atoms: C_21  and  C_22
REMARK    8  A    between atoms: C_21  and  C_28
REMARK    9  A    between atoms: N_24  and  C_25
REMARK   10  A    between atoms: C_25  and  C_26
REMARK   11  A    between atoms: C_25  and  C_27
REMARK                            x       y       z     vdW  Elec       q    Type
REMARK                         _______ _______ _______ _____ _____    ______ ____
ROOT
ATOM      1  C   UNL     1      -5.959   3.594 128.781  0.00  0.00    +0.000 C 
ATOM      2  C   UNL     1      -5.905   2.226 128.067  0.00  0.00    +0.000 C 
ATOM      3  N   UNL     1      -5.953   2.456 126.625  0.00  0.00    +0.000 NA
ATOM      4  C   UNL     1      -7.214   3.138 126.248  0.00  0.00    +0.000 C 
ATOM      5  C   UNL     1      -7.722   4.182 127.252  0.00  0.00    +0.000 C 
ATOM      6  O   UNL     1      -8.634   4.931 126.888  0.00  0.00    +0.000 OA
ATOM      7  N   UNL     1      -7.235   4.256 128.527  0.00  0.00    +0.000 N 
ATOM      8  H   UNL     1      -5.865   1.578 126.115  0.00  0.00    +0.000 HD
ENDROOT
BRANCH   4   9
ATOM      9  C   UNL     1      -7.059   3.892 124.914  0.00  0.00    +0.000 C 
ATOM     10  C   UNL     1      -5.585   4.140 124.461  0.00  0.00    +0.000 C 
ATOM     11  C   UNL     1      -5.728   4.149 122.976  0.00  0.00    +0.000 A 
ATOM     12  C   UNL     1      -4.770   4.532 122.061  0.00  0.00    +0.000 A 
ATOM     13  C   UNL     1      -5.098   4.473 120.710  0.00  0.00    +0.000 A 
ATOM     14  C   UNL     1      -6.349   3.986 120.297  0.00  0.00    +0.000 A 
ATOM     15  C   UNL     1      -7.281   3.532 121.228  0.00  0.00    +0.000 A 
ATOM     16  C   UNL     1      -6.957   3.629 122.567  0.00  0.00    +0.000 A 
ATOM     17  C   UNL     1      -7.754   3.154 123.734  0.00  0.00    +0.000 C 
ENDBRANCH   4   9
BRANCH   1  18
ATOM     18  C   UNL     1      -4.747   4.447 128.314  0.00  0.00    +0.000 C 
BRANCH  18  20
ATOM     19  C   UNL     1      -2.710   5.493 129.290  0.00  0.00    +0.000 C 
ATOM     20  C   UNL     1      -3.482   4.185 129.140  0.00  0.00    +0.000 C 
ATOM     21  C   UNL     1      -3.791   3.519 130.478  0.00  0.00    +0.000 C 
ENDBRANCH  18  20
ENDBRANCH   1  18
BRANCH   7  22
ATOM     22  C   UNL     1      -7.813   5.242 129.515  0.00  0.00    +0.000 C 
BRANCH  22  23
ATOM     23  C   UNL     1      -6.969   5.475 130.806  0.00  0.00    +0.000 A 
ATOM     24  C   UNL     1      -7.002   4.610 131.916  0.00  0.00    +0.000 A 
ATOM     25  C   UNL     1      -6.242   4.828 133.058  0.00  0.00    +0.000 A 
ATOM     26  C   UNL     1      -5.278   5.819 133.059  0.00  0.00    +0.000 A 
ATOM     27  C   UNL     1      -5.138   6.641 131.946  0.00  0.00    +0.000 A 
ATOM     28  C   UNL     1      -6.020   6.521 130.864  0.00  0.00    +0.000 A 
ENDBRANCH  22  23
BRANCH  22  29
ATOM     29  C   UNL     1      -9.345   5.011 129.803  0.00  0.00    +0.000 C 
ATOM     30  O   UNL     1      -9.884   3.911 129.909  0.00  0.00    +0.000 OA
ATOM     31  N   UNL     1     -10.163   6.124 129.947  0.00  0.00    +0.000 N 
ATOM     32  H   UNL     1      -9.818   7.034 129.694  0.00  0.00    +0.000 HD
BRANCH  31  33
ATOM     33  C   UNL     1     -11.597   5.890 130.142  0.00  0.00    +0.000 C 
ATOM     34  C   UNL     1     -11.994   6.505 131.473  0.00  0.00    +0.000 C 
ATOM     35  C   UNL     1     -12.496   6.479 129.064  0.00  0.00    +0.000 C 
ENDBRANCH  31  33
ENDBRANCH  22  29
ENDBRANCH   7  22
TORSDOF 7
ENDMDL
MODEL 3
REMARK VINA RESULT:      -8.6      1.779      3.285
REMARK  Name = CHEMBL194431
REMARK  11 active torsions:
REMARK  status: ('A' for Active; 'I' for Inactive)
REMARK    1  A    between atoms: C_1  and  C_2
REMARK    2  A    between atoms: C_2  and  C_3
REMARK    3  A    between atoms: C_2  and  C_4
REMARK    4  A    between atoms: C_4  and  C_5
REMARK    5  A    between atoms: C_8  and  C_9
REMARK    6  A    between atoms: N_20  and  C_21
REMARK    7  A    between atoms: C_21  and  C_22
REMARK    8  A    between atoms: C_21  and  C_28
REMARK    9  A    between atoms: N_24  and  C_25
REMARK   10  A    between atoms: C_25  and  C_26
REMARK   11  A    between atoms: C_25  and  C_27
REMARK                            x       y       z     vdW  Elec       q    Type
REMARK                         _______ _______ _______ _____ _____    ______ ____
ROOT
ATOM      1  C   UNL     1      -7.774  -0.295 124.911  0.00  0.00    +0.000 C 
ATOM      2  C   UNL     1      -8.979  -0.371 123.948  0.00  0.00    +0.000 C 
ATOM      3  N   UNL     1      -8.897   0.753 123.017  0.00  0.00    +0.000 NA
ATOM      4  C   UNL     1      -8.955   2.041 123.749  0.00  0.00    +0.000 C 
ATOM      5  C   UNL     1      -8.238   2.059 125.106  0.00  0.00    +0.000 C 
ATOM      6  O   UNL     1      -8.064   3.155 125.647  0.00  0.00    +0.000 OA
ATOM      7  N   UNL     1      -7.850   0.909 125.734  0.00  0.00    +0.000 N 
ATOM      8  H   UNL     1      -9.647   0.707 122.329  0.00  0.00    +0.000 HD
ENDROOT
BRANCH   4   9
ATOM      9  C   UNL     1      -8.311   3.174 122.928  0.00  0.00    +0.000 C 
ATOM     10  C   UNL     1      -6.753   3.126 122.841  0.00  0.00    +0.000 C 
ATOM     11  C   UNL     1      -6.510   3.760 121.513  0.00  0.00    +0.000 A 
ATOM     12  C   UNL     1      -5.292   4.165 121.007  0.00  0.00    +0.000 A 
ATOM     13  C   UNL     1      -5.272   4.743 119.741  0.00  0.00    +0.000 A 
ATOM     14  C   UNL     1      -6.450   4.856 118.986  0.00  0.00    +0.000 A 
ATOM     15  C   UNL     1      -7.663   4.374 119.477  0.00  0.00    +0.000 A 
ATOM     16  C   UNL     1      -7.676   3.836 120.750  0.00  0.00    +0.000 A 
ATOM     17  C   UNL     1      -8.824   3.204 121.460  0.00  0.00    +0.000 C 
ENDBRANCH   4   9
BRANCH   1  18
ATOM     18  C   UNL     1      -6.465  -0.360 124.077  0.00  0.00    +0.000 C 
BRANCH  18  20
ATOM     19  C   UNL     1      -6.707  -2.713 124.852  0.00  0.00    +0.000 C 
ATOM     20  C   UNL     1      -5.934  -1.788 123.915  0.00  0.00    +0.000 C 
ATOM     21  C   UNL     1      -5.961  -2.256 122.463  0.00  0.00    +0.000 C 
ENDBRANCH  18  20
ENDBRANCH   1  18
BRANCH   7  22
ATOM     22  C   UNL     1      -7.217   0.957 127.105  0.00  0.00    +0.000 C 
BRANCH  22  23
ATOM     23  C   UNL     1      -6.767  -0.418 127.688  0.00  0.00    +0.000 A 
ATOM     24  C   UNL     1      -5.420  -0.815 127.772  0.00  0.00    +0.000 A 
ATOM     25  C   UNL     1      -5.032  -2.042 128.298  0.00  0.00    +0.000 A 
ATOM     26  C   UNL     1      -5.965  -2.840 128.931  0.00  0.00    +0.000 A 
ATOM     27  C   UNL     1      -7.298  -2.444 128.961  0.00  0.00    +0.000 A 
ATOM     28  C   UNL     1      -7.708  -1.288 128.285  0.00  0.00    +0.000 A 
ENDBRANCH  22  23
BRANCH  22  29
ATOM     29  C   UNL     1      -8.024   1.838 128.133  0.00  0.00    +0.000 C 
ATOM     30  O   UNL     1      -9.247   1.825 128.265  0.00  0.00    +0.000 OA
ATOM     31  N   UNL     1      -7.317   2.703 128.958  0.00  0.00    +0.000 N 
ATOM     32  H   UNL     1      -6.346   2.887 128.773  0.00  0.00    +0.000 HD
BRANCH  31  33
ATOM     33  C   UNL     1      -8.089   3.566 129.856  0.00  0.00    +0.000 C 
ATOM     34  C   UNL     1      -7.974   3.001 131.261  0.00  0.00    +0.000 C 
ATOM     35  C   UNL     1      -7.638   5.020 129.895  0.00  0.00    +0.000 C 
ENDBRANCH  31  33
ENDBRANCH  22  29
ENDBRANCH   7  22
TORSDOF 7
ENDMDL
MODEL 4
REMARK VINA RESULT:      -8.5      6.024      9.569
REMARK  Name = CHEMBL194431
REMARK  11 active torsions:
REMARK  status: ('A' for Active; 'I' for Inactive)
REMARK    1  A    between atoms: C_1  and  C_2
REMARK    2  A    between atoms: C_2  and  C_3
REMARK    3  A    between atoms: C_2  and  C_4
REMARK    4  A    between atoms: C_4  and  C_5
REMARK    5  A    between atoms: C_8  and  C_9
REMARK    6  A    between atoms: N_20  and  C_21
REMARK    7  A    between atoms: C_21  and  C_22
REMARK    8  A    between atoms: C_21  and  C_28
REMARK    9  A    between atoms: N_24  and  C_25
REMARK   10  A    between atoms: C_25  and  C_26
REMARK   11  A    between atoms: C_25  and  C_27
REMARK                            x       y       z     vdW  Elec       q    Type
REMARK                         _______ _______ _______ _____ _____    ______ ____
ROOT
ATOM      1  C   UNL     1      -8.973   2.672 131.781  0.00  0.00    +0.000 C 
ATOM      2  C   UNL     1     -10.017   1.536 131.852  0.00  0.00    +0.000 C 
ATOM      3  N   UNL     1      -9.307   0.261 131.931  0.00  0.00    +0.000 NA
ATOM      4  C   UNL     1      -8.466   0.056 130.729  0.00  0.00    +0.000 C 
ATOM      5  C   UNL     1      -7.798   1.321 130.171  0.00  0.00    +0.000 C 
ATOM      6  O   UNL     1      -6.918   1.175 129.318  0.00  0.00    +0.000 OA
ATOM      7  N   UNL     1      -8.190   2.574 130.552  0.00  0.00    +0.000 N 
ATOM      8  H   UNL     1      -9.964  -0.511 132.035  0.00  0.00    +0.000 HD
ENDROOT
BRANCH   4   9
ATOM      9  C   UNL     1      -7.314  -0.924 131.019  0.00  0.00    +0.000 C 
ATOM     10  C   UNL     1      -7.345  -1.582 132.435  0.00  0.00    +0.000 C 
ATOM     11  C   UNL     1      -6.687  -2.893 132.168  0.00  0.00    +0.000 A 
ATOM     12  C   UNL     1      -6.263  -3.807 133.110  0.00  0.00    +0.000 A 
ATOM     13  C   UNL     1      -5.664  -4.979 132.658  0.00  0.00    +0.000 A 
ATOM     14  C   UNL     1      -5.550  -5.242 131.283  0.00  0.00    +0.000 A 
ATOM     15  C   UNL     1      -6.052  -4.346 130.341  0.00  0.00    +0.000 A 
ATOM     16  C   UNL     1      -6.611  -3.169 130.801  0.00  0.00    +0.000 A 
ATOM     17  C   UNL     1      -7.265  -2.097 129.999  0.00  0.00    +0.000 C 
ENDBRANCH   4   9
BRANCH   1  18
ATOM     18  C   UNL     1      -8.084   2.610 133.053  0.00  0.00    +0.000 C 
BRANCH  18  20
ATOM     19  C   UNL     1      -7.120   4.198 134.710  0.00  0.00    +0.000 C 
ATOM     20  C   UNL     1      -8.416   3.713 134.064  0.00  0.00    +0.000 C 
ATOM     21  C   UNL     1      -9.230   4.844 133.443  0.00  0.00    +0.000 C 
ENDBRANCH  18  20
ENDBRANCH   1  18
BRANCH   7  22
ATOM     22  C   UNL     1      -7.567   3.798 129.924  0.00  0.00    +0.000 C 
BRANCH  22  23
ATOM     23  C   UNL     1      -6.551   4.572 130.821  0.00  0.00    +0.000 A 
ATOM     24  C   UNL     1      -5.365   3.998 131.314  0.00  0.00    +0.000 A 
ATOM     25  C   UNL     1      -4.467   4.699 132.108  0.00  0.00    +0.000 A 
ATOM     26  C   UNL     1      -4.629   6.060 132.285  0.00  0.00    +0.000 A 
ATOM     27  C   UNL     1      -5.737   6.696 131.735  0.00  0.00    +0.000 A 
ATOM     28  C   UNL     1      -6.724   5.951 131.076  0.00  0.00    +0.000 A 
ENDBRANCH  22  23
BRANCH  22  29
ATOM     29  C   UNL     1      -8.615   4.737 129.214  0.00  0.00    +0.000 C 
ATOM     30  O   UNL     1      -8.607   5.024 128.018  0.00  0.00    +0.000 OA
ATOM     31  N   UNL     1      -9.630   5.292 129.982  0.00  0.00    +0.000 N 
ATOM     32  H   UNL     1      -9.583   5.240 130.985  0.00  0.00    +0.000 HD
BRANCH  31  33
ATOM     33  C   UNL     1     -10.552   6.219 129.320  0.00  0.00    +0.000 C 
ATOM     34  C   UNL     1     -11.938   5.992 129.898  0.00  0.00    +0.000 C 
ATOM     35  C   UNL     1     -10.210   7.693 129.484  0.00  0.00    +0.000 C 
ENDBRANCH  31  33
ENDBRANCH  22  29
ENDBRANCH   7  22
TORSDOF 7
ENDMDL
MODEL 5
REMARK VINA RESULT:      -8.5      5.506      8.329
REMARK  Name = CHEMBL194431
REMARK  11 active torsions:
REMARK  status: ('A' for Active; 'I' for Inactive)
REMARK    1  A    between atoms: C_1  and  C_2
REMARK    2  A    between atoms: C_2  and  C_3
REMARK    3  A    between atoms: C_2  and  C_4
REMARK    4  A    between atoms: C_4  and  C_5
REMARK    5  A    between atoms: C_8  and  C_9
REMARK    6  A    between atoms: N_20  and  C_21
REMARK    7  A    between atoms: C_21  and  C_22
REMARK    8  A    between atoms: C_21  and  C_28
REMARK    9  A    between atoms: N_24  and  C_25
REMARK   10  A    between atoms: C_25  and  C_26
REMARK   11  A    between atoms: C_25  and  C_27
REMARK                            x       y       z     vdW  Elec       q    Type
REMARK                         _______ _______ _______ _____ _____    ______ ____
ROOT
ATOM      1  C   UNL     1      -7.018   3.890 130.473  0.00  0.00    +0.000 C 
ATOM      2  C   UNL     1      -8.073   3.630 131.571  0.00  0.00    +0.000 C 
ATOM      3  N   UNL     1      -9.221   4.499 131.322  0.00  0.00    +0.000 NA
ATOM      4  C   UNL     1      -8.819   5.925 131.380  0.00  0.00    +0.000 C 
ATOM      5  C   UNL     1      -7.428   6.238 130.811  0.00  0.00    +0.000 C 
ATOM      6  O   UNL     1      -7.138   7.424 130.629  0.00  0.00    +0.000 OA
ATOM      7  N   UNL     1      -6.511   5.256 130.562  0.00  0.00    +0.000 N 
ATOM      8  H   UNL     1      -9.964   4.318 131.997  0.00  0.00    +0.000 HD
ENDROOT
BRANCH   4   9
ATOM      9  C   UNL     1      -9.798   6.809 130.585  0.00  0.00    +0.000 C 
ATOM     10  C   UNL     1      -9.699   6.677 129.032  0.00  0.00    +0.000 C 
ATOM     11  C   UNL     1     -11.100   6.976 128.618  0.00  0.00    +0.000 A 
ATOM     12  C   UNL     1     -11.547   7.201 127.333  0.00  0.00    +0.000 A 
ATOM     13  C   UNL     1     -12.901   7.469 127.151  0.00  0.00    +0.000 A 
ATOM     14  C   UNL     1     -13.787   7.455 128.239  0.00  0.00    +0.000 A 
ATOM     15  C   UNL     1     -13.337   7.151 129.523  0.00  0.00    +0.000 A 
ATOM     16  C   UNL     1     -11.985   6.922 129.697  0.00  0.00    +0.000 A 
ATOM     17  C   UNL     1     -11.282   6.521 130.949  0.00  0.00    +0.000 C 
ENDBRANCH   4   9
BRANCH   1  18
ATOM     18  C   UNL     1      -7.656   3.586 129.090  0.00  0.00    +0.000 C 
BRANCH  18  20
ATOM     19  C   UNL     1      -7.370   2.057 127.146  0.00  0.00    +0.000 C 
ATOM     20  C   UNL     1      -7.487   2.122 128.667  0.00  0.00    +0.000 C 
ATOM     21  C   UNL     1      -6.323   1.442 129.382  0.00  0.00    +0.000 C 
ENDBRANCH  18  20
ENDBRANCH   1  18
BRANCH   7  22
ATOM     22  C   UNL     1      -5.123   5.605 130.077  0.00  0.00    +0.000 C 
BRANCH  22  23
ATOM     23  C   UNL     1      -4.577   4.728 128.909  0.00  0.00    +0.000 A 
ATOM     24  C   UNL     1      -4.866   4.981 127.555  0.00  0.00    +0.000 A 
ATOM     25  C   UNL     1      -4.369   4.193 126.523  0.00  0.00    +0.000 A 
ATOM     26  C   UNL     1      -3.412   3.234 126.795  0.00  0.00    +0.000 A 
ATOM     27  C   UNL     1      -3.019   3.012 128.111  0.00  0.00    +0.000 A 
ATOM     28  C   UNL     1      -3.646   3.695 129.161  0.00  0.00    +0.000 A 
ENDBRANCH  22  23
BRANCH  22  29
ATOM     29  C   UNL     1      -4.086   5.805 131.247  0.00  0.00    +0.000 C 
ATOM     30  O   UNL     1      -4.070   5.158 132.293  0.00  0.00    +0.000 OA
ATOM     31  N   UNL     1      -3.111   6.783 131.104  0.00  0.00    +0.000 N 
ATOM     32  H   UNL     1      -3.184   7.456 130.360  0.00  0.00    +0.000 HD
BRANCH  31  33
ATOM     33  C   UNL     1      -2.201   7.004 132.231  0.00  0.00    +0.000 C 
ATOM     34  C   UNL     1      -0.806   6.588 131.795  0.00  0.00    +0.000 C 
ATOM     35  C   UNL     1      -2.129   8.441 132.728  0.00  0.00    +0.000 C 
ENDBRANCH  31  33
ENDBRANCH  22  29
ENDBRANCH   7  22
TORSDOF 7
ENDMDL
MODEL 6
REMARK VINA RESULT:      -8.3      2.829      7.714
REMARK  Name = CHEMBL194431
REMARK  11 active torsions:
REMARK  status: ('A' for Active; 'I' for Inactive)
REMARK    1  A    between atoms: C_1  and  C_2
REMARK    2  A    between atoms: C_2  and  C_3
REMARK    3  A    between atoms: C_2  and  C_4
REMARK    4  A    between atoms: C_4  and  C_5
REMARK    5  A    between atoms: C_8  and  C_9
REMARK    6  A    between atoms: N_20  and  C_21
REMARK    7  A    between atoms: C_21  and  C_22
REMARK    8  A    between atoms: C_21  and  C_28
REMARK    9  A    between atoms: N_24  and  C_25
REMARK   10  A    between atoms: C_25  and  C_26
REMARK   11  A    between atoms: C_25  and  C_27
REMARK                            x       y       z     vdW  Elec       q    Type
REMARK                         _______ _______ _______ _____ _____    ______ ____
ROOT
ATOM      1  C   UNL     1      -6.504   0.537 126.595  0.00  0.00    +0.000 C 
ATOM      2  C   UNL     1      -5.338   1.116 127.426  0.00  0.00    +0.000 C 
ATOM      3  N   UNL     1      -5.897   1.835 128.569  0.00  0.00    +0.000 NA
ATOM      4  C   UNL     1      -6.754   2.954 128.112  0.00  0.00    +0.000 C 
ATOM      5  C   UNL     1      -7.579   2.677 126.848  0.00  0.00    +0.000 C 
ATOM      6  O   UNL     1      -8.467   3.483 126.556  0.00  0.00    +0.000 OA
ATOM      7  N   UNL     1      -7.315   1.613 126.032  0.00  0.00    +0.000 N 
ATOM      8  H   UNL     1      -5.155   2.186 129.173  0.00  0.00    +0.000 HD
ENDROOT
BRANCH   4   9
ATOM      9  C   UNL     1      -7.778   3.345 129.194  0.00  0.00    +0.000 C 
ATOM     10  C   UNL     1      -8.124   2.217 130.217  0.00  0.00    +0.000 C 
ATOM     11  C   UNL     1      -8.452   3.012 131.436  0.00  0.00    +0.000 A 
ATOM     12  C   UNL     1      -9.027   2.537 132.596  0.00  0.00    +0.000 A 
ATOM     13  C   UNL     1      -9.259   3.442 133.627  0.00  0.00    +0.000 A 
ATOM     14  C   UNL     1      -8.866   4.785 133.504  0.00  0.00    +0.000 A 
ATOM     15  C   UNL     1      -8.218   5.237 132.355  0.00  0.00    +0.000 A 
ATOM     16  C   UNL     1      -8.026   4.337 131.325  0.00  0.00    +0.000 A 
ATOM     17  C   UNL     1      -7.308   4.564 130.039  0.00  0.00    +0.000 C 
ENDBRANCH   4   9
BRANCH   1  18
ATOM     18  C   UNL     1      -7.334  -0.416 127.499  0.00  0.00    +0.000 C 
BRANCH  18  20
ATOM     19  C   UNL     1      -7.879  -2.829 127.775  0.00  0.00    +0.000 C 
ATOM     20  C   UNL     1      -6.743  -1.829 127.573  0.00  0.00    +0.000 C 
ATOM     21  C   UNL     1      -5.871  -2.156 126.365  0.00  0.00    +0.000 C 
ENDBRANCH  18  20
ENDBRANCH   1  18
BRANCH   7  22
ATOM     22  C   UNL     1      -8.094   1.413 124.752  0.00  0.00    +0.000 C 
BRANCH  22  23
ATOM     23  C   UNL     1      -8.117  -0.045 124.198  0.00  0.00    +0.000 A 
ATOM     24  C   UNL     1      -7.127  -0.559 123.340  0.00  0.00    +0.000 A 
ATOM     25  C   UNL     1      -7.158  -1.861 122.856  0.00  0.00    +0.000 A 
ATOM     26  C   UNL     1      -8.082  -2.757 123.362  0.00  0.00    +0.000 A 
ATOM     27  C   UNL     1      -9.023  -2.321 124.289  0.00  0.00    +0.000 A 
ATOM     28  C   UNL     1      -9.089  -0.968 124.645  0.00  0.00    +0.000 A 
ENDBRANCH  22  23
BRANCH  22  29
ATOM     29  C   UNL     1      -7.774   2.496 123.652  0.00  0.00    +0.000 C 
ATOM     30  O   UNL     1      -8.619   3.118 123.010  0.00  0.00    +0.000 OA
ATOM     31  N   UNL     1      -6.444   2.780 123.374  0.00  0.00    +0.000 N 
ATOM     32  H   UNL     1      -5.720   2.182 123.733  0.00  0.00    +0.000 HD
BRANCH  31  33
ATOM     33  C   UNL     1      -6.165   3.735 122.298  0.00  0.00    +0.000 C 
ATOM     34  C   UNL     1      -5.007   4.613 122.741  0.00  0.00    +0.000 C 
ATOM     35  C   UNL     1      -5.795   3.109 120.961  0.00  0.00    +0.000 C 
ENDBRANCH  31  33
ENDBRANCH  22  29
ENDBRANCH   7  22
TORSDOF 7
ENDMDL
MODEL 7
REMARK VINA RESULT:      -8.3      7.349      9.410
REMARK  Name = CHEMBL194431
REMARK  11 active torsions:
REMARK  status: ('A' for Active; 'I' for Inactive)
REMARK    1  A    between atoms: C_1  and  C_2
REMARK    2  A    between atoms: C_2  and  C_3
REMARK    3  A    between atoms: C_2  and  C_4
REMARK    4  A    between atoms: C_4  and  C_5
REMARK    5  A    between atoms: C_8  and  C_9
REMARK    6  A    between atoms: N_20  and  C_21
REMARK    7  A    between atoms: C_21  and  C_22
REMARK    8  A    between atoms: C_21  and  C_28
REMARK    9  A    between atoms: N_24  and  C_25
REMARK   10  A    between atoms: C_25  and  C_26
REMARK   11  A    between atoms: C_25  and  C_27
REMARK                            x       y       z     vdW  Elec       q    Type
REMARK                         _______ _______ _______ _____ _____    ______ ____
ROOT
ATOM      1  C   UNL     1      -6.231   4.503 131.492  0.00  0.00    +0.000 C 
ATOM      2  C   UNL     1      -7.207   3.400 131.026  0.00  0.00    +0.000 C 
ATOM      3  N   UNL     1      -8.463   4.033 130.630  0.00  0.00    +0.000 NA
ATOM      4  C   UNL     1      -9.071   4.749 131.777  0.00  0.00    +0.000 C 
ATOM      5  C   UNL     1      -8.077   5.443 132.719  0.00  0.00    +0.000 C 
ATOM      6  O   UNL     1      -8.532   6.232 133.551  0.00  0.00    +0.000 OA
ATOM      7  N   UNL     1      -6.739   5.165 132.690  0.00  0.00    +0.000 N 
ATOM      8  H   UNL     1      -9.116   3.341 130.264  0.00  0.00    +0.000 HD
ENDROOT
BRANCH   4   9
ATOM      9  C   UNL     1     -10.023   5.859 131.294  0.00  0.00    +0.000 C 
ATOM     10  C   UNL     1      -9.398   6.877 130.287  0.00  0.00    +0.000 C 
ATOM     11  C   UNL     1     -10.593   7.275 129.488  0.00  0.00    +0.000 A 
ATOM     12  C   UNL     1     -10.666   8.312 128.581  0.00  0.00    +0.000 A 
ATOM     13  C   UNL     1     -11.880   8.528 127.934  0.00  0.00    +0.000 A 
ATOM     14  C   UNL     1     -12.974   7.678 128.161  0.00  0.00    +0.000 A 
ATOM     15  C   UNL     1     -12.865   6.587 129.023  0.00  0.00    +0.000 A 
ATOM     16  C   UNL     1     -11.667   6.405 129.687  0.00  0.00    +0.000 A 
ATOM     17  C   UNL     1     -11.291   5.288 130.599  0.00  0.00    +0.000 C 
ENDBRANCH   4   9
BRANCH   1  18
ATOM     18  C   UNL     1      -6.007   5.496 130.319  0.00  0.00    +0.000 C 
BRANCH  18  20
ATOM     19  C   UNL     1      -4.029   6.280 129.025  0.00  0.00    +0.000 C 
ATOM     20  C   UNL     1      -4.876   5.060 129.379  0.00  0.00    +0.000 C 
ATOM     21  C   UNL     1      -4.054   3.912 129.955  0.00  0.00    +0.000 C 
ENDBRANCH  18  20
ENDBRANCH   1  18
BRANCH   7  22
ATOM     22  C   UNL     1      -5.799   5.805 133.685  0.00  0.00    +0.000 C 
BRANCH  22  23
ATOM     23  C   UNL     1      -4.282   5.723 133.328  0.00  0.00    +0.000 A 
ATOM     24  C   UNL     1      -3.528   4.540 133.435  0.00  0.00    +0.000 A 
ATOM     25  C   UNL     1      -2.178   4.480 133.110  0.00  0.00    +0.000 A 
ATOM     26  C   UNL     1      -1.576   5.557 132.488  0.00  0.00    +0.000 A 
ATOM     27  C   UNL     1      -2.308   6.720 132.270  0.00  0.00    +0.000 A 
ATOM     28  C   UNL     1      -3.620   6.830 132.751  0.00  0.00    +0.000 A 
ENDBRANCH  22  23
BRANCH  22  29
ATOM     29  C   UNL     1      -6.112   5.414 135.179  0.00  0.00    +0.000 C 
ATOM     30  O   UNL     1      -6.196   4.263 135.604  0.00  0.00    +0.000 OA
ATOM     31  N   UNL     1      -6.312   6.435 136.099  0.00  0.00    +0.000 N 
ATOM     32  H   UNL     1      -6.433   7.380 135.778  0.00  0.00    +0.000 HD
BRANCH  31  33
ATOM     33  C   UNL     1      -6.674   6.054 137.467  0.00  0.00    +0.000 C 
ATOM     34  C   UNL     1      -5.601   6.589 138.400  0.00  0.00    +0.000 C 
ATOM     35  C   UNL     1      -8.019   6.578 137.947  0.00  0.00    +0.000 C 
ENDBRANCH  31  33
ENDBRANCH  22  29
ENDBRANCH   7  22
TORSDOF 7
ENDMDL
MODEL 8
REMARK VINA RESULT:      -8.3      2.879      6.343
REMARK  Name = CHEMBL194431
REMARK  11 active torsions:
REMARK  status: ('A' for Active; 'I' for Inactive)
REMARK    1  A    between atoms: C_1  and  C_2
REMARK    2  A    between atoms: C_2  and  C_3
REMARK    3  A    between atoms: C_2  and  C_4
REMARK    4  A    between atoms: C_4  and  C_5
REMARK    5  A    between atoms: C_8  and  C_9
REMARK    6  A    between atoms: N_20  and  C_21
REMARK    7  A    between atoms: C_21  and  C_22
REMARK    8  A    between atoms: C_21  and  C_28
REMARK    9  A    between atoms: N_24  and  C_25
REMARK   10  A    between atoms: C_25  and  C_26
REMARK   11  A    between atoms: C_25  and  C_27
REMARK                            x       y       z     vdW  Elec       q    Type
REMARK                         _______ _______ _______ _____ _____    ______ ____
ROOT
ATOM      1  C   UNL     1      -7.808   0.457 127.058  0.00  0.00    +0.000 C 
ATOM      2  C   UNL     1      -8.416   1.664 127.806  0.00  0.00    +0.000 C 
ATOM      3  N   UNL     1      -7.328   2.553 128.209  0.00  0.00    +0.000 NA
ATOM      4  C   UNL     1      -6.394   1.852 129.122  0.00  0.00    +0.000 C 
ATOM      5  C   UNL     1      -6.153   0.370 128.805  0.00  0.00    +0.000 C 
ATOM      6  O   UNL     1      -5.224  -0.197 129.387  0.00  0.00    +0.000 OA
ATOM      7  N   UNL     1      -6.963  -0.328 127.954  0.00  0.00    +0.000 N 
ATOM      8  H   UNL     1      -7.695   3.390 128.659  0.00  0.00    +0.000 HD
ENDROOT
BRANCH   4   9
ATOM      9  C   UNL     1      -5.002   2.510 129.100  0.00  0.00    +0.000 C 
ATOM     10  C   UNL     1      -4.748   3.486 127.908  0.00  0.00    +0.000 C 
ATOM     11  C   UNL     1      -3.782   4.448 128.512  0.00  0.00    +0.000 A 
ATOM     12  C   UNL     1      -3.057   5.412 127.843  0.00  0.00    +0.000 A 
ATOM     13  C   UNL     1      -2.199   6.216 128.588  0.00  0.00    +0.000 A 
ATOM     14  C   UNL     1      -2.120   6.080 129.984  0.00  0.00    +0.000 A 
ATOM     15  C   UNL     1      -2.914   5.153 130.657  0.00  0.00    +0.000 A 
ATOM     16  C   UNL     1      -3.735   4.336 129.903  0.00  0.00    +0.000 A 
ATOM     17  C   UNL     1      -4.713   3.324 130.393  0.00  0.00    +0.000 C 
ENDBRANCH   4   9
BRANCH   1  18
ATOM     18  C   UNL     1      -7.030   0.980 125.820  0.00  0.00    +0.000 C 
BRANCH  18  20
ATOM     19  C   UNL     1      -7.168   0.783 123.342  0.00  0.00    +0.000 C 
ATOM     20  C   UNL     1      -7.931   1.195 124.598  0.00  0.00    +0.000 C 
ATOM     21  C   UNL     1      -9.274   0.485 124.737  0.00  0.00    +0.000 C 
ENDBRANCH  18  20
ENDBRANCH   1  18
BRANCH   7  22
ATOM     22  C   UNL     1      -6.747  -1.806 127.724  0.00  0.00    +0.000 C 
BRANCH  22  23
ATOM     23  C   UNL     1      -7.353  -2.379 126.406  0.00  0.00    +0.000 A 
ATOM     24  C   UNL     1      -8.721  -2.669 126.249  0.00  0.00    +0.000 A 
ATOM     25  C   UNL     1      -9.249  -3.176 125.068  0.00  0.00    +0.000 A 
ATOM     26  C   UNL     1      -8.458  -3.237 123.937  0.00  0.00    +0.000 A 
ATOM     27  C   UNL     1      -7.119  -2.869 124.016  0.00  0.00    +0.000 A 
ATOM     28  C   UNL     1      -6.554  -2.517 125.249  0.00  0.00    +0.000 A 
ENDBRANCH  22  23
BRANCH  22  29
ATOM     29  C   UNL     1      -7.061  -2.686 128.993  0.00  0.00    +0.000 C 
ATOM     30  O   UNL     1      -8.190  -2.978 129.386  0.00  0.00    +0.000 OA
ATOM     31  N   UNL     1      -5.996  -3.177 129.735  0.00  0.00    +0.000 N 
ATOM     32  H   UNL     1      -5.068  -2.827 129.569  0.00  0.00    +0.000 HD
BRANCH  31  33
ATOM     33  C   UNL     1      -6.308  -3.932 130.952  0.00  0.00    +0.000 C 
ATOM     34  C   UNL     1      -5.450  -5.186 130.957  0.00  0.00    +0.000 C 
ATOM     35  C   UNL     1      -6.057  -3.186 132.254  0.00  0.00    +0.000 C 
ENDBRANCH  31  33
ENDBRANCH  22  29
ENDBRANCH   7  22
TORSDOF 7
ENDMDL
MODEL 9
REMARK VINA RESULT:      -8.1      3.466      6.776
REMARK  Name = CHEMBL194431
REMARK  11 active torsions:
REMARK  status: ('A' for Active; 'I' for Inactive)
REMARK    1  A    between atoms: C_1  and  C_2
REMARK    2  A    between atoms: C_2  and  C_3
REMARK    3  A    between atoms: C_2  and  C_4
REMARK    4  A    between atoms: C_4  and  C_5
REMARK    5  A    between atoms: C_8  and  C_9
REMARK    6  A    between atoms: N_20  and  C_21
REMARK    7  A    between atoms: C_21  and  C_22
REMARK    8  A    between atoms: C_21  and  C_28
REMARK    9  A    between atoms: N_24  and  C_25
REMARK   10  A    between atoms: C_25  and  C_26
REMARK   11  A    between atoms: C_25  and  C_27
REMARK                            x       y       z     vdW  Elec       q    Type
REMARK                         _______ _______ _______ _____ _____    ______ ____
ROOT
ATOM      1  C   UNL     1      -7.344   2.080 129.553  0.00  0.00    +0.000 C 
ATOM      2  C   UNL     1      -8.553   2.576 128.729  0.00  0.00    +0.000 C 
ATOM      3  N   UNL     1      -8.758   1.656 127.612  0.00  0.00    +0.000 NA
ATOM      4  C   UNL     1      -7.565   1.628 126.733  0.00  0.00    +0.000 C 
ATOM      5  C   UNL     1      -6.214   1.736 127.455  0.00  0.00    +0.000 C 
ATOM      6  O   UNL     1      -5.195   1.494 126.803  0.00  0.00    +0.000 OA
ATOM      7  N   UNL     1      -6.121   2.140 128.758  0.00  0.00    +0.000 N 
ATOM      8  H   UNL     1      -9.582   1.920 127.074  0.00  0.00    +0.000 HD
ENDROOT
BRANCH   4   9
ATOM      9  C   UNL     1      -7.499   0.315 125.932  0.00  0.00    +0.000 C 
ATOM     10  C   UNL     1      -8.164  -0.918 126.622  0.00  0.00    +0.000 C 
ATOM     11  C   UNL     1      -8.607  -1.716 125.443  0.00  0.00    +0.000 A 
ATOM     12  C   UNL     1      -9.079  -3.012 125.458  0.00  0.00    +0.000 A 
ATOM     13  C   UNL     1      -9.440  -3.589 124.244  0.00  0.00    +0.000 A 
ATOM     14  C   UNL     1      -9.377  -2.850 123.052  0.00  0.00    +0.000 A 
ATOM     15  C   UNL     1      -8.970  -1.517 123.059  0.00  0.00    +0.000 A 
ATOM     16  C   UNL     1      -8.579  -0.967 124.265  0.00  0.00    +0.000 A 
ATOM     17  C   UNL     1      -8.170   0.441 124.534  0.00  0.00    +0.000 C 
ENDBRANCH   4   9
BRANCH   1  18
ATOM     18  C   UNL     1      -7.647   0.645 130.065  0.00  0.00    +0.000 C 
BRANCH  18  20
ATOM     19  C   UNL     1      -9.404   0.840 131.818  0.00  0.00    +0.000 C 
ATOM     20  C   UNL     1      -7.916   0.596 131.573  0.00  0.00    +0.000 C 
ATOM     21  C   UNL     1      -7.413  -0.695 132.211  0.00  0.00    +0.000 C 
ENDBRANCH  18  20
ENDBRANCH   1  18
BRANCH   7  22
ATOM     22  C   UNL     1      -4.772   2.313 129.415  0.00  0.00    +0.000 C 
BRANCH  22  23
ATOM     23  C   UNL     1      -4.430   1.281 130.534  0.00  0.00    +0.000 A 
ATOM     24  C   UNL     1      -4.117  -0.065 130.272  0.00  0.00    +0.000 A 
ATOM     25  C   UNL     1      -3.811  -0.973 131.279  0.00  0.00    +0.000 A 
ATOM     26  C   UNL     1      -3.623  -0.522 132.572  0.00  0.00    +0.000 A 
ATOM     27  C   UNL     1      -3.826   0.823 132.865  0.00  0.00    +0.000 A 
ATOM     28  C   UNL     1      -4.296   1.698 131.878  0.00  0.00    +0.000 A 
ENDBRANCH  22  23
BRANCH  22  29
ATOM     29  C   UNL     1      -4.463   3.804 129.823  0.00  0.00    +0.000 C 
ATOM     30  O   UNL     1      -5.298   4.609 130.232  0.00  0.00    +0.000 OA
ATOM     31  N   UNL     1      -3.156   4.259 129.716  0.00  0.00    +0.000 N 
ATOM     32  H   UNL     1      -2.474   3.708 129.223  0.00  0.00    +0.000 HD
BRANCH  31  33
ATOM     33  C   UNL     1      -2.901   5.667 130.030  0.00  0.00    +0.000 C 
ATOM     34  C   UNL     1      -2.062   5.720 131.295  0.00  0.00    +0.000 C 
ATOM     35  C   UNL     1      -2.167   6.445 128.947  0.00  0.00    +0.000 C 
ENDBRANCH  31  33
ENDBRANCH  22  29
ENDBRANCH   7  22
TORSDOF 7
ENDMDL
