MODEL 1
REMARK VINA RESULT:      -8.8      0.000      0.000
REMARK  Name = CHEMBL2037509
REMARK  11 active torsions:
REMARK  status: ('A' for Active; 'I' for Inactive)
REMARK    1  A    between atoms: CD1_1  and  CG1_2
REMARK    2  A    between atoms: CG1_2  and  CB_3
REMARK    3  A    between atoms: CB_3  and  CG2_4
REMARK    4  A    between atoms: CB_3  and  CA_5
REMARK    5  A    between atoms: C_9  and  C_10
REMARK    6  A    between atoms: N_21  and  C_22
REMARK    7  A    between atoms: C_22  and  C_23
REMARK    8  A    between atoms: C_22  and  C_27
REMARK    9  A    between atoms: N_25  and  C_26
REMARK   10  A    between atoms: C_30  and  C_31
REMARK   11  A    between atoms: C_33  and  C_34
REMARK                            x       y       z     vdW  Elec       q    Type
REMARK                         _______ _______ _______ _____ _____    ______ ____
ROOT
ATOM      1  CA  ILE A   2      -7.274  -0.699 128.816  0.00  0.00    +0.000 C 
ATOM      2  C   ILE A   2      -7.795  -0.341 130.217  0.00  0.00    +0.000 C 
ATOM      3  O   ILE A   2      -7.491  -0.876 131.274  0.00  0.00    +0.000 OA
ATOM      4  N   UNK A   1      -8.538   0.781 130.265  0.00  0.00    +0.000 N 
ATOM      5  C   UNK A   1      -8.085   1.832 129.401  0.00  0.00    +0.000 C 
ATOM      6  C   UNK A   1      -8.356   1.388 127.981  0.00  0.00    +0.000 C 
ATOM      7  O   UNK A   1      -8.713   2.264 127.207  0.00  0.00    +0.000 OA
ATOM      8  N   ILE A   2      -8.089   0.018 127.712  0.00  0.00    +0.000 N 
ATOM      9  H   UNK A   1      -8.792   0.992 131.221  0.00  0.00    +0.000 HD
ENDROOT
BRANCH   5  10
ATOM     10  C   UNK A   1      -8.731   3.188 129.707  0.00  0.00    +0.000 C 
ATOM     11  C   UNK A   1      -7.603   4.150 130.118  0.00  0.00    +0.000 C 
ATOM     12  C   UNK A   1      -7.680   4.079 131.614  0.00  0.00    +0.000 A 
ATOM     13  C   UNK A   1      -6.691   4.396 132.527  0.00  0.00    +0.000 A 
ATOM     14  C   UNK A   1      -6.967   4.237 133.886  0.00  0.00    +0.000 A 
ATOM     15  C   UNK A   1      -8.219   3.766 134.313  0.00  0.00    +0.000 A 
ATOM     16  C   UNK A   1      -9.199   3.413 133.386  0.00  0.00    +0.000 A 
ATOM     17  C   UNK A   1      -8.906   3.553 132.039  0.00  0.00    +0.000 A 
ATOM     18  C   UNK A   1      -9.764   3.197 130.866  0.00  0.00    +0.000 C 
ENDBRANCH   5  10
BRANCH   1  19
ATOM     19  CB  ILE A   2      -7.372  -2.202 128.694  0.00  0.00    +0.000 C 
ATOM     20  CG2 ILE A   2      -5.991  -2.834 129.019  0.00  0.00    +0.000 C 
BRANCH  19  22
ATOM     21  CD1 ILE A   2      -9.185  -4.137 128.364  0.00  0.00    +0.000 C 
ATOM     22  CG1 ILE A   2      -8.496  -3.087 129.270  0.00  0.00    +0.000 C 
ENDBRANCH  19  22
ENDBRANCH   1  19
BRANCH   8  23
ATOM     23  C   UNK A   0      -8.537  -0.667 126.356  0.00  0.00    +0.000 C 
BRANCH  23  24
ATOM     24  C   UNK A   0      -7.355  -1.548 125.750  0.00  0.00    +0.000 A 
ATOM     25  C   UNK A   0      -6.041  -0.991 125.706  0.00  0.00    +0.000 A 
ATOM     26  C   UNK A   0      -5.044  -1.547 124.880  0.00  0.00    +0.000 A 
ATOM     27  C   UNK A   0      -5.326  -2.706 124.189  0.00  0.00    +0.000 A 
ATOM     28  C   UNK A   0      -4.386  -3.418 123.287  0.00  0.00    +0.000 C 
ATOM     29  N   UNK A   0      -6.498  -3.318 124.305  0.00  0.00    +0.000 NA
ATOM     30  C   UNK A   0      -7.478  -2.759 125.043  0.00  0.00    +0.000 A 
ATOM     31  C   UNK A   0      -8.637  -3.669 124.987  0.00  0.00    +0.000 C 
ENDBRANCH  23  24
BRANCH  23  32
ATOM     32  C   UNK A   0      -9.296   0.308 125.204  0.00  0.00    +0.000 C 
ATOM     33  O   UNK A   0     -10.484   0.433 125.105  0.00  0.00    +0.000 OA
ATOM     34  N   UNK A   0      -8.727   1.046 124.186  0.00  0.00    +0.000 N 
ATOM     35  C   UNK A   0      -9.564   1.351 123.022  0.00  0.00    +0.000 C 
ATOM     36  H   UNK A   0      -7.757   1.110 123.991  0.00  0.00    +0.000 HD
ENDBRANCH  23  32
ENDBRANCH   8  23
TORSDOF 6
ENDMDL
MODEL 2
REMARK VINA RESULT:      -8.7      3.574      6.869
REMARK  Name = CHEMBL2037509
REMARK  11 active torsions:
REMARK  status: ('A' for Active; 'I' for Inactive)
REMARK    1  A    between atoms: CD1_1  and  CG1_2
REMARK    2  A    between atoms: CG1_2  and  CB_3
REMARK    3  A    between atoms: CB_3  and  CG2_4
REMARK    4  A    between atoms: CB_3  and  CA_5
REMARK    5  A    between atoms: C_9  and  C_10
REMARK    6  A    between atoms: N_21  and  C_22
REMARK    7  A    between atoms: C_22  and  C_23
REMARK    8  A    between atoms: C_22  and  C_27
REMARK    9  A    between atoms: N_25  and  C_26
REMARK   10  A    between atoms: C_30  and  C_31
REMARK   11  A    between atoms: C_33  and  C_34
REMARK                            x       y       z     vdW  Elec       q    Type
REMARK                         _______ _______ _______ _____ _____    ______ ____
ROOT
ATOM      1  CA  ILE A   2      -7.480  -1.528 124.867  0.00  0.00    +0.000 C 
ATOM      2  C   ILE A   2      -7.713  -1.009 123.439  0.00  0.00    +0.000 C 
ATOM      3  O   ILE A   2      -7.948  -1.678 122.442  0.00  0.00    +0.000 OA
ATOM      4  N   UNK A   1      -7.817   0.331 123.342  0.00  0.00    +0.000 N 
ATOM      5  C   UNK A   1      -8.512   0.953 124.431  0.00  0.00    +0.000 C 
ATOM      6  C   UNK A   1      -7.624   0.837 125.649  0.00  0.00    +0.000 C 
ATOM      7  O   UNK A   1      -7.631   1.796 126.408  0.00  0.00    +0.000 OA
ATOM      8  N   ILE A   2      -6.949  -0.405 125.794  0.00  0.00    +0.000 N 
ATOM      9  H   UNK A   1      -8.033   0.596 122.390  0.00  0.00    +0.000 HD
ENDROOT
BRANCH   5  10
ATOM     10  C   UNK A   1      -8.902   2.408 124.146  0.00  0.00    +0.000 C 
ATOM     11  C   UNK A   1      -8.855   2.605 122.622  0.00  0.00    +0.000 C 
ATOM     12  C   UNK A   1      -7.498   3.217 122.441  0.00  0.00    +0.000 A 
ATOM     13  C   UNK A   1      -6.730   3.247 121.292  0.00  0.00    +0.000 A 
ATOM     14  C   UNK A   1      -5.475   3.855 121.348  0.00  0.00    +0.000 A 
ATOM     15  C   UNK A   1      -5.005   4.422 122.543  0.00  0.00    +0.000 A 
ATOM     16  C   UNK A   1      -5.770   4.355 123.709  0.00  0.00    +0.000 A 
ATOM     17  C   UNK A   1      -7.003   3.729 123.647  0.00  0.00    +0.000 A 
ATOM     18  C   UNK A   1      -7.973   3.488 124.761  0.00  0.00    +0.000 C 
ENDBRANCH   5  10
BRANCH   1  19
ATOM     19  CB  ILE A   2      -6.496  -2.669 124.753  0.00  0.00    +0.000 C 
ATOM     20  CG2 ILE A   2      -7.274  -4.000 124.573  0.00  0.00    +0.000 C 
BRANCH  19  22
ATOM     21  CD1 ILE A   2      -4.467  -4.018 123.655  0.00  0.00    +0.000 C 
ATOM     22  CG1 ILE A   2      -5.226  -2.687 123.879  0.00  0.00    +0.000 C 
ENDBRANCH  19  22
ENDBRANCH   1  19
BRANCH   8  23
ATOM     23  C   UNK A   0      -5.806  -0.613 126.870  0.00  0.00    +0.000 C 
BRANCH  23  24
ATOM     24  C   UNK A   0      -6.342  -1.466 128.106  0.00  0.00    +0.000 A 
ATOM     25  C   UNK A   0      -7.629  -1.160 128.640  0.00  0.00    +0.000 A 
ATOM     26  C   UNK A   0      -8.010  -1.608 129.921  0.00  0.00    +0.000 A 
ATOM     27  C   UNK A   0      -7.155  -2.441 130.612  0.00  0.00    +0.000 A 
ATOM     28  C   UNK A   0      -7.410  -3.005 131.961  0.00  0.00    +0.000 C 
ATOM     29  N   UNK A   0      -6.003  -2.845 130.091  0.00  0.00    +0.000 NA
ATOM     30  C   UNK A   0      -5.604  -2.370 128.894  0.00  0.00    +0.000 A 
ATOM     31  C   UNK A   0      -4.310  -3.004 128.584  0.00  0.00    +0.000 C 
ENDBRANCH  23  24
BRANCH  23  32
ATOM     32  C   UNK A   0      -4.918   0.747 127.335  0.00  0.00    +0.000 C 
ATOM     33  O   UNK A   0      -4.813   1.127 128.466  0.00  0.00    +0.000 OA
ATOM     34  N   UNK A   0      -4.245   1.652 126.541  0.00  0.00    +0.000 N 
ATOM     35  C   UNK A   0      -4.028   2.997 127.083  0.00  0.00    +0.000 C 
ATOM     36  H   UNK A   0      -4.184   1.620 125.552  0.00  0.00    +0.000 HD
ENDBRANCH  23  32
ENDBRANCH   8  23
TORSDOF 6
ENDMDL
MODEL 3
REMARK VINA RESULT:      -8.7      2.840      7.810
REMARK  Name = CHEMBL2037509
REMARK  11 active torsions:
REMARK  status: ('A' for Active; 'I' for Inactive)
REMARK    1  A    between atoms: CD1_1  and  CG1_2
REMARK    2  A    between atoms: CG1_2  and  CB_3
REMARK    3  A    between atoms: CB_3  and  CG2_4
REMARK    4  A    between atoms: CB_3  and  CA_5
REMARK    5  A    between atoms: C_9  and  C_10
REMARK    6  A    between atoms: N_21  and  C_22
REMARK    7  A    between atoms: C_22  and  C_23
REMARK    8  A    between atoms: C_22  and  C_27
REMARK    9  A    between atoms: N_25  and  C_26
REMARK   10  A    between atoms: C_30  and  C_31
REMARK   11  A    between atoms: C_33  and  C_34
REMARK                            x       y       z     vdW  Elec       q    Type
REMARK                         _______ _______ _______ _____ _____    ______ ____
ROOT
ATOM      1  CA  ILE A   2      -7.244   2.072 131.550  0.00  0.00    +0.000 C 
ATOM      2  C   ILE A   2      -6.284   0.872 131.548  0.00  0.00    +0.000 C 
ATOM      3  O   ILE A   2      -5.649   0.435 132.498  0.00  0.00    +0.000 OA
ATOM      4  N   UNK A   1      -6.286   0.158 130.405  0.00  0.00    +0.000 N 
ATOM      5  C   UNK A   1      -7.576   0.019 129.794  0.00  0.00    +0.000 C 
ATOM      6  C   UNK A   1      -7.966   1.381 129.265  0.00  0.00    +0.000 C 
ATOM      7  O   UNK A   1      -8.570   1.387 128.202  0.00  0.00    +0.000 OA
ATOM      8  N   ILE A   2      -7.643   2.477 130.110  0.00  0.00    +0.000 N 
ATOM      9  H   UNK A   1      -5.684  -0.649 130.496  0.00  0.00    +0.000 HD
ENDROOT
BRANCH   5  10
ATOM     10  C   UNK A   1      -7.614  -1.052 128.698  0.00  0.00    +0.000 C 
ATOM     11  C   UNK A   1      -8.025  -2.375 129.365  0.00  0.00    +0.000 C 
ATOM     12  C   UNK A   1      -6.692  -3.028 129.580  0.00  0.00    +0.000 A 
ATOM     13  C   UNK A   1      -6.378  -4.028 130.482  0.00  0.00    +0.000 A 
ATOM     14  C   UNK A   1      -5.059  -4.482 130.534  0.00  0.00    +0.000 A 
ATOM     15  C   UNK A   1      -4.077  -3.935 129.693  0.00  0.00    +0.000 A 
ATOM     16  C   UNK A   1      -4.394  -2.901 128.812  0.00  0.00    +0.000 A 
ATOM     17  C   UNK A   1      -5.701  -2.442 128.784  0.00  0.00    +0.000 A 
ATOM     18  C   UNK A   1      -6.269  -1.321 127.972  0.00  0.00    +0.000 C 
ENDBRANCH   5  10
BRANCH   1  19
ATOM     19  CB  ILE A   2      -6.527   3.193 132.266  0.00  0.00    +0.000 C 
ATOM     20  CG2 ILE A   2      -7.082   3.316 133.711  0.00  0.00    +0.000 C 
BRANCH  19  22
ATOM     21  CD1 ILE A   2      -4.311   3.986 131.000  0.00  0.00    +0.000 C 
ATOM     22  CG1 ILE A   2      -5.004   3.437 132.272  0.00  0.00    +0.000 C 
ENDBRANCH  19  22
ENDBRANCH   1  19
BRANCH   8  23
ATOM     23  C   UNK A   0      -7.762   3.976 129.612  0.00  0.00    +0.000 C 
BRANCH  23  24
ATOM     24  C   UNK A   0      -8.970   4.719 130.339  0.00  0.00    +0.000 A 
ATOM     25  C   UNK A   0     -10.280   4.164 130.228  0.00  0.00    +0.000 A 
ATOM     26  C   UNK A   0     -11.423   4.932 130.527  0.00  0.00    +0.000 A 
ATOM     27  C   UNK A   0     -11.252   6.204 131.032  0.00  0.00    +0.000 A 
ATOM     28  C   UNK A   0     -12.347   7.135 131.403  0.00  0.00    +0.000 C 
ATOM     29  N   UNK A   0     -10.045   6.706 131.264  0.00  0.00    +0.000 NA
ATOM     30  C   UNK A   0      -8.947   6.001 130.922  0.00  0.00    +0.000 A 
ATOM     31  C   UNK A   0      -7.775   6.806 131.310  0.00  0.00    +0.000 C 
ENDBRANCH  23  24
BRANCH  23  32
ATOM     32  C   UNK A   0      -7.721   4.249 127.945  0.00  0.00    +0.000 C 
ATOM     33  O   UNK A   0      -8.508   4.932 127.356  0.00  0.00    +0.000 OA
ATOM     34  N   UNK A   0      -6.865   3.715 127.004  0.00  0.00    +0.000 N 
ATOM     35  C   UNK A   0      -7.338   3.652 125.617  0.00  0.00    +0.000 C 
ATOM     36  H   UNK A   0      -6.125   3.081 127.188  0.00  0.00    +0.000 HD
ENDBRANCH  23  32
ENDBRANCH   8  23
TORSDOF 6
ENDMDL
MODEL 4
REMARK VINA RESULT:      -8.6      3.287      8.533
REMARK  Name = CHEMBL2037509
REMARK  11 active torsions:
REMARK  status: ('A' for Active; 'I' for Inactive)
REMARK    1  A    between atoms: CD1_1  and  CG1_2
REMARK    2  A    between atoms: CG1_2  and  CB_3
REMARK    3  A    between atoms: CB_3  and  CG2_4
REMARK    4  A    between atoms: CB_3  and  CA_5
REMARK    5  A    between atoms: C_9  and  C_10
REMARK    6  A    between atoms: N_21  and  C_22
REMARK    7  A    between atoms: C_22  and  C_23
REMARK    8  A    between atoms: C_22  and  C_27
REMARK    9  A    between atoms: N_25  and  C_26
REMARK   10  A    between atoms: C_30  and  C_31
REMARK   11  A    between atoms: C_33  and  C_34
REMARK                            x       y       z     vdW  Elec       q    Type
REMARK                         _______ _______ _______ _____ _____    ______ ____
ROOT
ATOM      1  CA  ILE A   2      -8.533   2.513 130.136  0.00  0.00    +0.000 C 
ATOM      2  C   ILE A   2      -7.565   1.342 129.900  0.00  0.00    +0.000 C 
ATOM      3  O   ILE A   2      -7.708   0.184 130.264  0.00  0.00    +0.000 OA
ATOM      4  N   UNK A   1      -6.541   1.624 129.070  0.00  0.00    +0.000 N 
ATOM      5  C   UNK A   1      -6.887   2.475 127.969  0.00  0.00    +0.000 C 
ATOM      6  C   UNK A   1      -7.160   3.849 128.539  0.00  0.00    +0.000 C 
ATOM      7  O   UNK A   1      -6.790   4.793 127.855  0.00  0.00    +0.000 OA
ATOM      8  N   ILE A   2      -7.881   3.867 129.763  0.00  0.00    +0.000 N 
ATOM      9  H   UNK A   1      -5.984   0.795 128.910  0.00  0.00    +0.000 HD
ENDROOT
BRANCH   5  10
ATOM     10  C   UNK A   1      -5.813   2.514 126.876  0.00  0.00    +0.000 C 
ATOM     11  C   UNK A   1      -6.541   2.552 125.521  0.00  0.00    +0.000 C 
ATOM     12  C   UNK A   1      -6.508   1.106 125.124  0.00  0.00    +0.000 A 
ATOM     13  C   UNK A   1      -7.335   0.459 124.225  0.00  0.00    +0.000 A 
ATOM     14  C   UNK A   1      -7.145  -0.908 124.015  0.00  0.00    +0.000 A 
ATOM     15  C   UNK A   1      -6.140  -1.607 124.703  0.00  0.00    +0.000 A 
ATOM     16  C   UNK A   1      -5.334  -0.954 125.636  0.00  0.00    +0.000 A 
ATOM     17  C   UNK A   1      -5.546   0.397 125.852  0.00  0.00    +0.000 A 
ATOM     18  C   UNK A   1      -4.853   1.295 126.828  0.00  0.00    +0.000 C 
ENDBRANCH   5  10
BRANCH   1  19
ATOM     19  CB  ILE A   2      -8.917   2.462 131.597  0.00  0.00    +0.000 C 
ATOM     20  CG2 ILE A   2     -10.208   1.614 131.758  0.00  0.00    +0.000 C 
BRANCH  19  22
ATOM     21  CD1 ILE A   2      -7.752   3.270 133.862  0.00  0.00    +0.000 C 
ATOM     22  CG1 ILE A   2      -7.964   2.186 132.776  0.00  0.00    +0.000 C 
ENDBRANCH  19  22
ENDBRANCH   1  19
BRANCH   8  23
ATOM     23  C   UNK A   0      -8.045   5.193 130.614  0.00  0.00    +0.000 C 
BRANCH  23  24
ATOM     24  C   UNK A   0      -9.427   5.912 130.278  0.00  0.00    +0.000 A 
ATOM     25  C   UNK A   0      -9.669   6.333 128.936  0.00  0.00    +0.000 A 
ATOM     26  C   UNK A   0     -10.678   7.272 128.640  0.00  0.00    +0.000 A 
ATOM     27  C   UNK A   0     -11.502   7.702 129.658  0.00  0.00    +0.000 A 
ATOM     28  C   UNK A   0     -12.612   8.676 129.511  0.00  0.00    +0.000 C 
ATOM     29  N   UNK A   0     -11.383   7.235 130.896  0.00  0.00    +0.000 NA
ATOM     30  C   UNK A   0     -10.381   6.386 131.199  0.00  0.00    +0.000 A 
ATOM     31  C   UNK A   0     -10.519   6.043 132.627  0.00  0.00    +0.000 C 
ENDBRANCH  23  24
BRANCH  23  32
ATOM     32  C   UNK A   0      -6.734   6.258 130.657  0.00  0.00    +0.000 C 
ATOM     33  O   UNK A   0      -6.837   7.451 130.689  0.00  0.00    +0.000 OA
ATOM     34  N   UNK A   0      -5.386   5.970 130.602  0.00  0.00    +0.000 N 
ATOM     35  C   UNK A   0      -4.489   7.022 130.113  0.00  0.00    +0.000 C 
ATOM     36  H   UNK A   0      -4.990   5.064 130.535  0.00  0.00    +0.000 HD
ENDBRANCH  23  32
ENDBRANCH   8  23
TORSDOF 6
ENDMDL
MODEL 5
REMARK VINA RESULT:      -8.6      2.269      4.434
REMARK  Name = CHEMBL2037509
REMARK  11 active torsions:
REMARK  status: ('A' for Active; 'I' for Inactive)
REMARK    1  A    between atoms: CD1_1  and  CG1_2
REMARK    2  A    between atoms: CG1_2  and  CB_3
REMARK    3  A    between atoms: CB_3  and  CG2_4
REMARK    4  A    between atoms: CB_3  and  CA_5
REMARK    5  A    between atoms: C_9  and  C_10
REMARK    6  A    between atoms: N_21  and  C_22
REMARK    7  A    between atoms: C_22  and  C_23
REMARK    8  A    between atoms: C_22  and  C_27
REMARK    9  A    between atoms: N_25  and  C_26
REMARK   10  A    between atoms: C_30  and  C_31
REMARK   11  A    between atoms: C_33  and  C_34
REMARK                            x       y       z     vdW  Elec       q    Type
REMARK                         _______ _______ _______ _____ _____    ______ ____
ROOT
ATOM      1  CA  ILE A   2      -7.513   2.297 127.895  0.00  0.00    +0.000 C 
ATOM      2  C   ILE A   2      -7.270   3.141 129.157  0.00  0.00    +0.000 C 
ATOM      3  O   ILE A   2      -7.202   4.360 129.226  0.00  0.00    +0.000 OA
ATOM      4  N   UNK A   1      -7.295   2.442 130.309  0.00  0.00    +0.000 N 
ATOM      5  C   UNK A   1      -8.276   1.397 130.348  0.00  0.00    +0.000 C 
ATOM      6  C   UNK A   1      -7.818   0.322 129.388  0.00  0.00    +0.000 C 
ATOM      7  O   UNK A   1      -8.032  -0.831 129.736  0.00  0.00    +0.000 OA
ATOM      8  N   ILE A   2      -7.264   0.793 128.167  0.00  0.00    +0.000 N 
ATOM      9  H   UNK A   1      -7.193   3.066 131.098  0.00  0.00    +0.000 HD
ENDROOT
BRANCH   5  10
ATOM     10  C   UNK A   1      -8.510   0.840 131.757  0.00  0.00    +0.000 C 
ATOM     11  C   UNK A   1      -9.635   1.673 132.396  0.00  0.00    +0.000 C 
ATOM     12  C   UNK A   1      -8.852   2.660 133.209  0.00  0.00    +0.000 A 
ATOM     13  C   UNK A   1      -9.271   3.892 133.675  0.00  0.00    +0.000 A 
ATOM     14  C   UNK A   1      -8.367   4.669 134.401  0.00  0.00    +0.000 A 
ATOM     15  C   UNK A   1      -7.064   4.209 134.650  0.00  0.00    +0.000 A 
ATOM     16  C   UNK A   1      -6.636   2.981 134.145  0.00  0.00    +0.000 A 
ATOM     17  C   UNK A   1      -7.534   2.229 133.406  0.00  0.00    +0.000 A 
ATOM     18  C   UNK A   1      -7.298   0.918 132.724  0.00  0.00    +0.000 C 
ENDBRANCH   5  10
BRANCH   1  19
ATOM     19  CB  ILE A   2      -6.580   2.835 126.835  0.00  0.00    +0.000 C 
ATOM     20  CG2 ILE A   2      -7.337   3.873 125.965  0.00  0.00    +0.000 C 
BRANCH  19  22
ATOM     21  CD1 ILE A   2      -3.954   2.449 126.521  0.00  0.00    +0.000 C 
ATOM     22  CG1 ILE A   2      -5.128   3.304 127.058  0.00  0.00    +0.000 C 
ENDBRANCH  19  22
ENDBRANCH   1  19
BRANCH   8  23
ATOM     23  C   UNK A   0      -6.522  -0.178 127.159  0.00  0.00    +0.000 C 
BRANCH  23  24
ATOM     24  C   UNK A   0      -7.563  -0.859 126.162  0.00  0.00    +0.000 A 
ATOM     25  C   UNK A   0      -8.367  -1.935 126.644  0.00  0.00    +0.000 A 
ATOM     26  C   UNK A   0      -9.031  -2.802 125.754  0.00  0.00    +0.000 A 
ATOM     27  C   UNK A   0      -8.975  -2.533 124.403  0.00  0.00    +0.000 A 
ATOM     28  C   UNK A   0      -9.624  -3.341 123.339  0.00  0.00    +0.000 C 
ATOM     29  N   UNK A   0      -8.338  -1.469 123.930  0.00  0.00    +0.000 NA
ATOM     30  C   UNK A   0      -7.649  -0.670 124.769  0.00  0.00    +0.000 A 
ATOM     31  C   UNK A   0      -7.069   0.416 123.959  0.00  0.00    +0.000 C 
ENDBRANCH  23  24
BRANCH  23  32
ATOM     32  C   UNK A   0      -5.409  -1.271 127.806  0.00  0.00    +0.000 C 
ATOM     33  O   UNK A   0      -5.255  -2.390 127.408  0.00  0.00    +0.000 OA
ATOM     34  N   UNK A   0      -4.569  -1.109 128.889  0.00  0.00    +0.000 N 
ATOM     35  C   UNK A   0      -4.119  -2.319 129.584  0.00  0.00    +0.000 C 
ATOM     36  H   UNK A   0      -4.498  -0.294 129.450  0.00  0.00    +0.000 HD
ENDBRANCH  23  32
ENDBRANCH   8  23
TORSDOF 6
ENDMDL
MODEL 6
REMARK VINA RESULT:      -8.5      3.771      6.320
REMARK  Name = CHEMBL2037509
REMARK  11 active torsions:
REMARK  status: ('A' for Active; 'I' for Inactive)
REMARK    1  A    between atoms: CD1_1  and  CG1_2
REMARK    2  A    between atoms: CG1_2  and  CB_3
REMARK    3  A    between atoms: CB_3  and  CG2_4
REMARK    4  A    between atoms: CB_3  and  CA_5
REMARK    5  A    between atoms: C_9  and  C_10
REMARK    6  A    between atoms: N_21  and  C_22
REMARK    7  A    between atoms: C_22  and  C_23
REMARK    8  A    between atoms: C_22  and  C_27
REMARK    9  A    between atoms: N_25  and  C_26
REMARK   10  A    between atoms: C_30  and  C_31
REMARK   11  A    between atoms: C_33  and  C_34
REMARK                            x       y       z     vdW  Elec       q    Type
REMARK                         _______ _______ _______ _____ _____    ______ ____
ROOT
ATOM      1  CA  ILE A   2      -6.009   3.141 132.176  0.00  0.00    +0.000 C 
ATOM      2  C   ILE A   2      -5.331   4.296 132.931  0.00  0.00    +0.000 C 
ATOM      3  O   ILE A   2      -4.900   4.274 134.076  0.00  0.00    +0.000 OA
ATOM      4  N   UNK A   1      -5.060   5.375 132.172  0.00  0.00    +0.000 N 
ATOM      5  C   UNK A   1      -4.634   5.071 130.837  0.00  0.00    +0.000 C 
ATOM      6  C   UNK A   1      -5.835   4.518 130.103  0.00  0.00    +0.000 C 
ATOM      7  O   UNK A   1      -5.937   4.840 128.928  0.00  0.00    +0.000 OA
ATOM      8  N   ILE A   2      -6.653   3.634 130.856  0.00  0.00    +0.000 N 
ATOM      9  H   UNK A   1      -4.558   6.066 132.714  0.00  0.00    +0.000 HD
ENDROOT
BRANCH   5  10
ATOM     10  C   UNK A   1      -4.024   6.274 130.108  0.00  0.00    +0.000 C 
ATOM     11  C   UNK A   1      -2.520   5.996 129.946  0.00  0.00    +0.000 C 
ATOM     12  C   UNK A   1      -1.949   6.753 131.108  0.00  0.00    +0.000 A 
ATOM     13  C   UNK A   1      -0.725   6.562 131.720  0.00  0.00    +0.000 A 
ATOM     14  C   UNK A   1      -0.395   7.370 132.810  0.00  0.00    +0.000 A 
ATOM     15  C   UNK A   1      -1.286   8.351 133.271  0.00  0.00    +0.000 A 
ATOM     16  C   UNK A   1      -2.535   8.513 132.671  0.00  0.00    +0.000 A 
ATOM     17  C   UNK A   1      -2.861   7.691 131.606  0.00  0.00    +0.000 A 
ATOM     18  C   UNK A   1      -4.146   7.638 130.839  0.00  0.00    +0.000 C 
ENDBRANCH   5  10
BRANCH   1  19
ATOM     19  CB  ILE A   2      -7.040   2.561 133.117  0.00  0.00    +0.000 C 
ATOM     20  CG2 ILE A   2      -6.439   1.323 133.834  0.00  0.00    +0.000 C 
BRANCH  19  22
ATOM     21  CD1 ILE A   2      -9.373   3.719 133.715  0.00  0.00    +0.000 C 
ATOM     22  CG1 ILE A   2      -7.918   3.358 134.103  0.00  0.00    +0.000 C 
ENDBRANCH  19  22
ENDBRANCH   1  19
BRANCH   8  23
ATOM     23  C   UNK A   0      -8.068   3.154 130.328  0.00  0.00    +0.000 C 
BRANCH  23  24
ATOM     24  C   UNK A   0      -7.902   2.101 129.144  0.00  0.00    +0.000 A 
ATOM     25  C   UNK A   0      -8.139   2.535 127.805  0.00  0.00    +0.000 A 
ATOM     26  C   UNK A   0      -8.361   1.607 126.768  0.00  0.00    +0.000 A 
ATOM     27  C   UNK A   0      -8.242   0.262 127.047  0.00  0.00    +0.000 A 
ATOM     28  C   UNK A   0      -8.436  -0.838 126.069  0.00  0.00    +0.000 C 
ATOM     29  N   UNK A   0      -7.901  -0.172 128.254  0.00  0.00    +0.000 NA
ATOM     30  C   UNK A   0      -7.748   0.707 129.265  0.00  0.00    +0.000 A 
ATOM     31  C   UNK A   0      -7.363  -0.068 130.460  0.00  0.00    +0.000 C 
ENDBRANCH  23  24
BRANCH  23  32
ATOM     32  C   UNK A   0      -9.222   4.344 130.003  0.00  0.00    +0.000 C 
ATOM     33  O   UNK A   0     -10.399   4.137 129.929  0.00  0.00    +0.000 OA
ATOM     34  N   UNK A   0      -9.028   5.680 129.716  0.00  0.00    +0.000 N 
ATOM     35  C   UNK A   0     -10.074   6.367 128.953  0.00  0.00    +0.000 C 
ATOM     36  H   UNK A   0      -8.150   6.140 129.668  0.00  0.00    +0.000 HD
ENDBRANCH  23  32
ENDBRANCH   8  23
TORSDOF 6
ENDMDL
MODEL 7
REMARK VINA RESULT:      -8.5      2.952      5.062
REMARK  Name = CHEMBL2037509
REMARK  11 active torsions:
REMARK  status: ('A' for Active; 'I' for Inactive)
REMARK    1  A    between atoms: CD1_1  and  CG1_2
REMARK    2  A    between atoms: CG1_2  and  CB_3
REMARK    3  A    between atoms: CB_3  and  CG2_4
REMARK    4  A    between atoms: CB_3  and  CA_5
REMARK    5  A    between atoms: C_9  and  C_10
REMARK    6  A    between atoms: N_21  and  C_22
REMARK    7  A    between atoms: C_22  and  C_23
REMARK    8  A    between atoms: C_22  and  C_27
REMARK    9  A    between atoms: N_25  and  C_26
REMARK   10  A    between atoms: C_30  and  C_31
REMARK   11  A    between atoms: C_33  and  C_34
REMARK                            x       y       z     vdW  Elec       q    Type
REMARK                         _______ _______ _______ _____ _____    ______ ____
ROOT
ATOM      1  CA  ILE A   2      -5.843   3.837 127.565  0.00  0.00    +0.000 C 
ATOM      2  C   ILE A   2      -5.699   3.702 129.089  0.00  0.00    +0.000 C 
ATOM      3  O   ILE A   2      -4.945   4.334 129.816  0.00  0.00    +0.000 OA
ATOM      4  N   UNK A   1      -6.622   2.911 129.669  0.00  0.00    +0.000 N 
ATOM      5  C   UNK A   1      -7.934   3.013 129.100  0.00  0.00    +0.000 C 
ATOM      6  C   UNK A   1      -7.871   2.393 127.723  0.00  0.00    +0.000 C 
ATOM      7  O   UNK A   1      -8.859   1.760 127.377  0.00  0.00    +0.000 OA
ATOM      8  N   ILE A   2      -6.698   2.687 126.977  0.00  0.00    +0.000 N 
ATOM      9  H   UNK A   1      -6.508   2.919 130.674  0.00  0.00    +0.000 HD
ENDROOT
BRANCH   5  10
ATOM     10  C   UNK A   1      -9.021   2.368 129.967  0.00  0.00    +0.000 C 
ATOM     11  C   UNK A   1      -9.968   3.490 130.425  0.00  0.00    +0.000 C 
ATOM     12  C   UNK A   1      -9.434   3.792 131.794  0.00  0.00    +0.000 A 
ATOM     13  C   UNK A   1      -9.601   4.951 132.529  0.00  0.00    +0.000 A 
ATOM     14  C   UNK A   1      -8.996   5.032 133.785  0.00  0.00    +0.000 A 
ATOM     15  C   UNK A   1      -8.238   3.963 134.286  0.00  0.00    +0.000 A 
ATOM     16  C   UNK A   1      -8.043   2.811 133.523  0.00  0.00    +0.000 A 
ATOM     17  C   UNK A   1      -8.629   2.750 132.270  0.00  0.00    +0.000 A 
ATOM     18  C   UNK A   1      -8.524   1.656 131.254  0.00  0.00    +0.000 C 
ENDBRANCH   5  10
BRANCH   1  19
ATOM     19  CB  ILE A   2      -4.442   3.835 127.001  0.00  0.00    +0.000 C 
ATOM     20  CG2 ILE A   2      -3.868   5.277 127.049  0.00  0.00    +0.000 C 
BRANCH  19  22
ATOM     21  CD1 ILE A   2      -1.931   2.973 126.689  0.00  0.00    +0.000 C 
ATOM     22  CG1 ILE A   2      -3.329   2.822 127.338  0.00  0.00    +0.000 C 
ENDBRANCH  19  22
ENDBRANCH   1  19
BRANCH   8  23
ATOM     23  C   UNK A   0      -6.360   1.935 125.624  0.00  0.00    +0.000 C 
BRANCH  23  24
ATOM     24  C   UNK A   0      -7.137   2.597 124.400  0.00  0.00    +0.000 A 
ATOM     25  C   UNK A   0      -8.442   2.117 124.080  0.00  0.00    +0.000 A 
ATOM     26  C   UNK A   0      -9.030   2.389 122.828  0.00  0.00    +0.000 A 
ATOM     27  C   UNK A   0      -8.364   3.218 121.950  0.00  0.00    +0.000 A 
ATOM     28  C   UNK A   0      -8.848   3.609 120.602  0.00  0.00    +0.000 C 
ATOM     29  N   UNK A   0      -7.204   3.782 122.267  0.00  0.00    +0.000 NA
ATOM     30  C   UNK A   0      -6.607   3.476 123.437  0.00  0.00    +0.000 A 
ATOM     31  C   UNK A   0      -5.358   4.258 123.504  0.00  0.00    +0.000 C 
ENDBRANCH  23  24
BRANCH  23  32
ATOM     32  C   UNK A   0      -6.442   0.248 125.630  0.00  0.00    +0.000 C 
ATOM     33  O   UNK A   0      -5.510  -0.472 125.410  0.00  0.00    +0.000 OA
ATOM     34  N   UNK A   0      -7.544  -0.563 125.814  0.00  0.00    +0.000 N 
ATOM     35  C   UNK A   0      -7.491  -1.915 125.250  0.00  0.00    +0.000 C 
ATOM     36  H   UNK A   0      -8.470  -0.250 125.981  0.00  0.00    +0.000 HD
ENDBRANCH  23  32
ENDBRANCH   8  23
TORSDOF 6
ENDMDL
MODEL 8
REMARK VINA RESULT:      -8.5      2.813      4.975
REMARK  Name = CHEMBL2037509
REMARK  11 active torsions:
REMARK  status: ('A' for Active; 'I' for Inactive)
REMARK    1  A    between atoms: CD1_1  and  CG1_2
REMARK    2  A    between atoms: CG1_2  and  CB_3
REMARK    3  A    between atoms: CB_3  and  CG2_4
REMARK    4  A    between atoms: CB_3  and  CA_5
REMARK    5  A    between atoms: C_9  and  C_10
REMARK    6  A    between atoms: N_21  and  C_22
REMARK    7  A    between atoms: C_22  and  C_23
REMARK    8  A    between atoms: C_22  and  C_27
REMARK    9  A    between atoms: N_25  and  C_26
REMARK   10  A    between atoms: C_30  and  C_31
REMARK   11  A    between atoms: C_33  and  C_34
REMARK                            x       y       z     vdW  Elec       q    Type
REMARK                         _______ _______ _______ _____ _____    ______ ____
ROOT
ATOM      1  CA  ILE A   2      -6.119   2.867 127.481  0.00  0.00    +0.000 C 
ATOM      2  C   ILE A   2      -5.949   3.950 128.558  0.00  0.00    +0.000 C 
ATOM      3  O   ILE A   2      -5.463   5.063 128.413  0.00  0.00    +0.000 OA
ATOM      4  N   UNK A   1      -6.549   3.668 129.731  0.00  0.00    +0.000 N 
ATOM      5  C   UNK A   1      -7.812   3.001 129.607  0.00  0.00    +0.000 C 
ATOM      6  C   UNK A   1      -7.529   1.603 129.105  0.00  0.00    +0.000 C 
ATOM      7  O   UNK A   1      -8.236   0.717 129.563  0.00  0.00    +0.000 OA
ATOM      8  N   ILE A   2      -6.522   1.509 128.106  0.00  0.00    +0.000 N 
ATOM      9  H   UNK A   1      -6.452   4.447 130.369  0.00  0.00    +0.000 HD
ENDROOT
BRANCH   5  10
ATOM     10  C   UNK A   1      -8.618   2.986 130.911  0.00  0.00    +0.000 C 
ATOM     11  C   UNK A   1     -10.106   2.912 130.529  0.00  0.00    +0.000 C 
ATOM     12  C   UNK A   1     -10.508   4.354 130.612  0.00  0.00    +0.000 A 
ATOM     13  C   UNK A   1     -11.589   4.966 130.005  0.00  0.00    +0.000 A 
ATOM     14  C   UNK A   1     -11.770   6.336 130.200  0.00  0.00    +0.000 A 
ATOM     15  C   UNK A   1     -10.876   7.073 130.992  0.00  0.00    +0.000 A 
ATOM     16  C   UNK A   1      -9.767   6.456 131.571  0.00  0.00    +0.000 A 
ATOM     17  C   UNK A   1      -9.584   5.101 131.353  0.00  0.00    +0.000 A 
ATOM     18  C   UNK A   1      -8.456   4.235 131.819  0.00  0.00    +0.000 C 
ENDBRANCH   5  10
BRANCH   1  19
ATOM     19  CB  ILE A   2      -4.797   2.775 126.753  0.00  0.00    +0.000 C 
ATOM     20  CG2 ILE A   2      -4.837   3.693 125.502  0.00  0.00    +0.000 C 
BRANCH  19  22
ATOM     21  CD1 ILE A   2      -2.160   3.139 126.522  0.00  0.00    +0.000 C 
ATOM     22  CG1 ILE A   2      -3.399   2.840 127.401  0.00  0.00    +0.000 C 
ENDBRANCH  19  22
ENDBRANCH   1  19
BRANCH   8  23
ATOM     23  C   UNK A   0      -5.935   0.112 127.643  0.00  0.00    +0.000 C 
BRANCH  23  24
ATOM     24  C   UNK A   0      -6.992  -0.676 126.748  0.00  0.00    +0.000 A 
ATOM     25  C   UNK A   0      -7.655  -1.809 127.310  0.00  0.00    +0.000 A 
ATOM     26  C   UNK A   0      -8.312  -2.748 126.490  0.00  0.00    +0.000 A 
ATOM     27  C   UNK A   0      -8.395  -2.500 125.136  0.00  0.00    +0.000 A 
ATOM     28  C   UNK A   0      -9.057  -3.382 124.141  0.00  0.00    +0.000 C 
ATOM     29  N   UNK A   0      -7.897  -1.394 124.597  0.00  0.00    +0.000 NA
ATOM     30  C   UNK A   0      -7.213  -0.522 125.366  0.00  0.00    +0.000 A 
ATOM     31  C   UNK A   0      -6.802   0.594 124.496  0.00  0.00    +0.000 C 
ENDBRANCH  23  24
BRANCH  23  32
ATOM     32  C   UNK A   0      -5.210  -0.857 128.822  0.00  0.00    +0.000 C 
ATOM     33  O   UNK A   0      -5.193  -0.595 129.991  0.00  0.00    +0.000 OA
ATOM     34  N   UNK A   0      -4.490  -2.023 128.659  0.00  0.00    +0.000 N 
ATOM     35  C   UNK A   0      -3.525  -2.375 129.705  0.00  0.00    +0.000 C 
ATOM     36  H   UNK A   0      -4.303  -2.471 127.794  0.00  0.00    +0.000 HD
ENDBRANCH  23  32
ENDBRANCH   8  23
TORSDOF 6
ENDMDL
MODEL 9
REMARK VINA RESULT:      -8.4      3.271      6.409
REMARK  Name = CHEMBL2037509
REMARK  11 active torsions:
REMARK  status: ('A' for Active; 'I' for Inactive)
REMARK    1  A    between atoms: CD1_1  and  CG1_2
REMARK    2  A    between atoms: CG1_2  and  CB_3
REMARK    3  A    between atoms: CB_3  and  CG2_4
REMARK    4  A    between atoms: CB_3  and  CA_5
REMARK    5  A    between atoms: C_9  and  C_10
REMARK    6  A    between atoms: N_21  and  C_22
REMARK    7  A    between atoms: C_22  and  C_23
REMARK    8  A    between atoms: C_22  and  C_27
REMARK    9  A    between atoms: N_25  and  C_26
REMARK   10  A    between atoms: C_30  and  C_31
REMARK   11  A    between atoms: C_33  and  C_34
REMARK                            x       y       z     vdW  Elec       q    Type
REMARK                         _______ _______ _______ _____ _____    ______ ____
ROOT
ATOM      1  CA  ILE A   2      -7.781   2.630 128.562  0.00  0.00    +0.000 C 
ATOM      2  C   ILE A   2      -8.034   4.032 127.987  0.00  0.00    +0.000 C 
ATOM      3  O   ILE A   2      -8.137   4.337 126.806  0.00  0.00    +0.000 OA
ATOM      4  N   UNK A   1      -8.323   4.970 128.910  0.00  0.00    +0.000 N 
ATOM      5  C   UNK A   1      -9.137   4.505 129.995  0.00  0.00    +0.000 C 
ATOM      6  C   UNK A   1      -8.285   3.566 130.819  0.00  0.00    +0.000 C 
ATOM      7  O   UNK A   1      -8.454   3.614 132.029  0.00  0.00    +0.000 OA
ATOM      8  N   ILE A   2      -7.447   2.693 130.073  0.00  0.00    +0.000 N 
ATOM      9  H   UNK A   1      -8.541   5.849 128.459  0.00  0.00    +0.000 HD
ENDROOT
BRANCH   5  10
ATOM     10  C   UNK A   1      -9.719   5.640 130.844  0.00  0.00    +0.000 C 
ATOM     11  C   UNK A   1     -11.249   5.489 130.824  0.00  0.00    +0.000 C 
ATOM     12  C   UNK A   1     -11.633   6.460 129.748  0.00  0.00    +0.000 A 
ATOM     13  C   UNK A   1     -12.798   6.481 129.005  0.00  0.00    +0.000 A 
ATOM     14  C   UNK A   1     -12.945   7.469 128.030  0.00  0.00    +0.000 A 
ATOM     15  C   UNK A   1     -11.933   8.416 127.810  0.00  0.00    +0.000 A 
ATOM     16  C   UNK A   1     -10.744   8.367 128.539  0.00  0.00    +0.000 A 
ATOM     17  C   UNK A   1     -10.600   7.368 129.488  0.00  0.00    +0.000 A 
ATOM     18  C   UNK A   1      -9.411   7.079 130.349  0.00  0.00    +0.000 C 
ENDBRANCH   5  10
BRANCH   1  19
ATOM     19  CB  ILE A   2      -6.642   2.039 127.763  0.00  0.00    +0.000 C 
ATOM     20  CG2 ILE A   2      -7.218   1.127 126.647  0.00  0.00    +0.000 C 
BRANCH  19  22
ATOM     21  CD1 ILE A   2      -4.064   2.712 127.976  0.00  0.00    +0.000 C 
ATOM     22  CG1 ILE A   2      -5.417   2.806 127.227  0.00  0.00    +0.000 C 
ENDBRANCH  19  22
ENDBRANCH   1  19
BRANCH   8  23
ATOM     23  C   UNK A   0      -6.325   1.818 130.769  0.00  0.00    +0.000 C 
BRANCH  23  24
ATOM     24  C   UNK A   0      -6.614   0.264 130.567  0.00  0.00    +0.000 A 
ATOM     25  C   UNK A   0      -5.651  -0.525 129.869  0.00  0.00    +0.000 A 
ATOM     26  C   UNK A   0      -5.988  -1.790 129.348  0.00  0.00    +0.000 A 
ATOM     27  C   UNK A   0      -7.240  -2.303 129.613  0.00  0.00    +0.000 A 
ATOM     28  C   UNK A   0      -7.746  -3.618 129.146  0.00  0.00    +0.000 C 
ATOM     29  N   UNK A   0      -8.117  -1.648 130.364  0.00  0.00    +0.000 NA
ATOM     30  C   UNK A   0      -7.825  -0.411 130.813  0.00  0.00    +0.000 A 
ATOM     31  C   UNK A   0      -8.975   0.043 131.616  0.00  0.00    +0.000 C 
ENDBRANCH  23  24
BRANCH  23  32
ATOM     32  C   UNK A   0      -5.901   2.215 132.355  0.00  0.00    +0.000 C 
ATOM     33  O   UNK A   0      -4.972   2.912 132.649  0.00  0.00    +0.000 OA
ATOM     34  N   UNK A   0      -6.472   1.785 133.536  0.00  0.00    +0.000 N 
ATOM     35  C   UNK A   0      -5.636   1.808 134.740  0.00  0.00    +0.000 C 
ATOM     36  H   UNK A   0      -7.243   1.166 133.613  0.00  0.00    +0.000 HD
ENDBRANCH  23  32
ENDBRANCH   8  23
TORSDOF 6
ENDMDL
