MODEL 1
REMARK VINA RESULT:      -8.6      0.000      0.000
REMARK  Name = CHEMBL30315
REMARK  8 active torsions:
REMARK  status: ('A' for Active; 'I' for Inactive)
REMARK    1  A    between atoms: C_1  and  N_2
REMARK    2  A    between atoms: N_2  and  C_3
REMARK    3  A    between atoms: N_2  and  S_33
REMARK    4  A    between atoms: C_3  and  C_4
REMARK    5  A    between atoms: C_4  and  N_5
REMARK    6  A    between atoms: C_10  and  C_11
REMARK    7  A    between atoms: C_16  and  N_17
REMARK    8  A    between atoms: S_33  and  C_34
REMARK                            x       y       z     vdW  Elec       q    Type
REMARK                         _______ _______ _______ _____ _____    ______ ____
ROOT
ATOM      1  C   UNL     1      -4.796   5.724 130.888  0.00  0.00    +0.000 C 
ATOM      2  O   UNL     1      -4.242   5.125 129.963  0.00  0.00    +0.000 OA
ATOM      3  N   UNL     1      -4.051   6.531 131.818  0.00  0.00    +0.000 N 
ATOM      4  C   UNL     1      -3.169   7.615 131.356  0.00  0.00    +0.000 C 
ATOM      5  C   UNL     1      -1.809   7.680 132.102  0.00  0.00    +0.000 C 
ATOM      6  C   UNL     1      -1.975   7.989 133.863  0.00  0.00    +0.000 C 
ATOM      7  C   UNL     1      -2.850   6.514 134.067  0.00  0.00    +0.000 C 
ATOM      8  C   UNL     1      -4.195   6.472 133.279  0.00  0.00    +0.000 C 
ENDROOT
BRANCH   6   9
ATOM      9  N   UNL     1      -1.615   9.551 134.814  0.00  0.00    +0.000 N 
ATOM     10  C   UNL     1      -0.267   9.153 134.639  0.00  0.00    +0.000 C 
ATOM     11  O   UNL     1       0.280   8.050 134.951  0.00  0.00    +0.000 OA
ATOM     12  O   UNL     1       0.386   9.926 133.794  0.00  0.00    +0.000 OA
ATOM     13  C   UNL     1       1.049  10.697 134.715  0.00  0.00    +0.000 C 
ATOM     14  C   UNL     1       0.086  11.800 134.700  0.00  0.00    +0.000 A 
ATOM     15  C   UNL     1       0.866  13.126 134.657  0.00  0.00    +0.000 A 
ATOM     16  C   UNL     1       0.517  14.312 135.227  0.00  0.00    +0.000 A 
ATOM     17  C   UNL     1      -0.661  14.117 135.906  0.00  0.00    +0.000 A 
ATOM     18  C   UNL     1      -1.539  12.694 135.837  0.00  0.00    +0.000 A 
ATOM     19  C   UNL     1      -1.240  11.366 135.023  0.00  0.00    +0.000 A 
ENDBRANCH   6   9
BRANCH   1  25
ATOM     20  N   UNL     1     -10.520   5.228 130.900  0.00  0.00    +0.000 N 
ATOM     21  C   UNL     1     -10.655   3.874 130.694  0.00  0.00    +0.000 A 
ATOM     22  C   UNL     1      -9.398   3.331 130.584  0.00  0.00    +0.000 A 
ATOM     23  C   UNL     1      -8.447   4.379 130.747  0.00  0.00    +0.000 A 
ATOM     24  C   UNL     1      -7.019   4.425 130.755  0.00  0.00    +0.000 A 
ATOM     25  C   UNL     1      -6.326   5.648 130.951  0.00  0.00    +0.000 A 
ATOM     26  C   UNL     1      -7.098   6.796 131.096  0.00  0.00    +0.000 A 
ATOM     27  C   UNL     1      -8.508   6.784 131.109  0.00  0.00    +0.000 A 
ATOM     28  C   UNL     1      -9.176   5.563 130.933  0.00  0.00    +0.000 A 
BRANCH  20  29
ATOM     29  C   UNL     1     -11.675   6.088 131.150  0.00  0.00    +0.000 C 
BRANCH  29  30
ATOM     30  C   UNL     1     -12.363   6.537 129.849  0.00  0.00    +0.000 C 
BRANCH  30  32
ATOM     31  C   UNL     1     -12.600   8.949 129.253  0.00  0.00    +0.000 C 
ATOM     32  N   UNL     1     -11.742   7.744 129.214  0.00  0.00    +0.000 NA
BRANCH  32  33
ATOM     33  S   UNL     1     -11.029   7.453 127.672  0.00  0.00    +0.000 S 
ATOM     34  C   UNL     1     -12.439   6.992 126.663  0.00  0.00    +0.000 C 
ATOM     35  O   UNL     1     -10.524   8.714 127.174  0.00  0.00    +0.000 OA
ATOM     36  O   UNL     1     -10.169   6.296 127.791  0.00  0.00    +0.000 OA
ENDBRANCH  32  33
ENDBRANCH  30  32
ENDBRANCH  29  30
ENDBRANCH  20  29
ENDBRANCH   1  25
TORSDOF 6
ENDMDL
MODEL 2
REMARK VINA RESULT:      -8.6      1.543      1.962
REMARK  Name = CHEMBL30315
REMARK  8 active torsions:
REMARK  status: ('A' for Active; 'I' for Inactive)
REMARK    1  A    between atoms: C_1  and  N_2
REMARK    2  A    between atoms: N_2  and  C_3
REMARK    3  A    between atoms: N_2  and  S_33
REMARK    4  A    between atoms: C_3  and  C_4
REMARK    5  A    between atoms: C_4  and  N_5
REMARK    6  A    between atoms: C_10  and  C_11
REMARK    7  A    between atoms: C_16  and  N_17
REMARK    8  A    between atoms: S_33  and  C_34
REMARK                            x       y       z     vdW  Elec       q    Type
REMARK                         _______ _______ _______ _____ _____    ______ ____
ROOT
ATOM      1  C   UNL     1      -3.735   5.095 131.975  0.00  0.00    +0.000 C 
ATOM      2  O   UNL     1      -3.344   4.005 131.551  0.00  0.00    +0.000 OA
ATOM      3  N   UNL     1      -2.812   6.134 132.350  0.00  0.00    +0.000 N 
ATOM      4  C   UNL     1      -1.788   6.622 131.413  0.00  0.00    +0.000 C 
ATOM      5  C   UNL     1      -0.395   6.845 132.063  0.00  0.00    +0.000 C 
ATOM      6  C   UNL     1      -0.405   8.082 133.365  0.00  0.00    +0.000 C 
ATOM      7  C   UNL     1      -1.505   7.132 134.298  0.00  0.00    +0.000 C 
ATOM      8  C   UNL     1      -2.880   6.903 133.601  0.00  0.00    +0.000 C 
ENDROOT
BRANCH   6   9
ATOM      9  N   UNL     1       0.267   9.820 133.329  0.00  0.00    +0.000 N 
ATOM     10  C   UNL     1      -1.101  10.177 133.405  0.00  0.00    +0.000 C 
ATOM     11  O   UNL     1      -2.054   9.824 132.644  0.00  0.00    +0.000 OA
ATOM     12  O   UNL     1      -1.428  10.695 134.573  0.00  0.00    +0.000 OA
ATOM     13  C   UNL     1      -1.415  12.017 134.205  0.00  0.00    +0.000 C 
ATOM     14  C   UNL     1      -0.052  12.283 134.671  0.00  0.00    +0.000 A 
ATOM     15  C   UNL     1      -0.049  13.626 135.422  0.00  0.00    +0.000 A 
ATOM     16  C   UNL     1       0.955  14.544 135.474  0.00  0.00    +0.000 A 
ATOM     17  C   UNL     1       1.982  14.082 134.687  0.00  0.00    +0.000 A 
ATOM     18  C   UNL     1       1.991  12.567 133.978  0.00  0.00    +0.000 A 
ATOM     19  C   UNL     1       0.908  11.411 134.064  0.00  0.00    +0.000 A 
ENDBRANCH   6   9
BRANCH   1  25
ATOM     20  N   UNL     1      -9.450   5.676 132.093  0.00  0.00    +0.000 N 
ATOM     21  C   UNL     1      -9.783   4.696 133.000  0.00  0.00    +0.000 A 
ATOM     22  C   UNL     1      -8.626   4.081 133.409  0.00  0.00    +0.000 A 
ATOM     23  C   UNL     1      -7.532   4.711 132.749  0.00  0.00    +0.000 A 
ATOM     24  C   UNL     1      -6.116   4.526 132.787  0.00  0.00    +0.000 A 
ATOM     25  C   UNL     1      -5.250   5.331 132.001  0.00  0.00    +0.000 A 
ATOM     26  C   UNL     1      -5.845   6.276 131.171  0.00  0.00    +0.000 A 
ATOM     27  C   UNL     1      -7.237   6.495 131.122  0.00  0.00    +0.000 A 
ATOM     28  C   UNL     1      -8.075   5.703 131.920  0.00  0.00    +0.000 A 
BRANCH  20  29
ATOM     29  C   UNL     1     -10.452   6.580 131.534  0.00  0.00    +0.000 C 
BRANCH  29  30
ATOM     30  C   UNL     1     -11.188   5.965 130.330  0.00  0.00    +0.000 C 
BRANCH  30  32
ATOM     31  C   UNL     1     -13.071   6.737 128.884  0.00  0.00    +0.000 C 
ATOM     32  N   UNL     1     -11.681   6.972 129.336  0.00  0.00    +0.000 NA
BRANCH  32  33
ATOM     33  S   UNL     1     -10.582   7.302 128.050  0.00  0.00    +0.000 S 
ATOM     34  C   UNL     1     -11.643   7.266 126.603  0.00  0.00    +0.000 C 
ATOM     35  O   UNL     1     -10.105   8.658 128.213  0.00  0.00    +0.000 OA
ATOM     36  O   UNL     1      -9.662   6.190 127.955  0.00  0.00    +0.000 OA
ENDBRANCH  32  33
ENDBRANCH  30  32
ENDBRANCH  29  30
ENDBRANCH  20  29
ENDBRANCH   1  25
TORSDOF 6
ENDMDL
MODEL 3
REMARK VINA RESULT:      -8.6     11.030     13.324
REMARK  Name = CHEMBL30315
REMARK  8 active torsions:
REMARK  status: ('A' for Active; 'I' for Inactive)
REMARK    1  A    between atoms: C_1  and  N_2
REMARK    2  A    between atoms: N_2  and  C_3
REMARK    3  A    between atoms: N_2  and  S_33
REMARK    4  A    between atoms: C_3  and  C_4
REMARK    5  A    between atoms: C_4  and  N_5
REMARK    6  A    between atoms: C_10  and  C_11
REMARK    7  A    between atoms: C_16  and  N_17
REMARK    8  A    between atoms: S_33  and  C_34
REMARK                            x       y       z     vdW  Elec       q    Type
REMARK                         _______ _______ _______ _____ _____    ______ ____
ROOT
ATOM      1  C   UNL     1      -5.367  -2.011 130.144  0.00  0.00    +0.000 C 
ATOM      2  O   UNL     1      -4.561  -1.089 130.290  0.00  0.00    +0.000 OA
ATOM      3  N   UNL     1      -5.763  -2.848 131.245  0.00  0.00    +0.000 N 
ATOM      4  C   UNL     1      -6.314  -2.275 132.484  0.00  0.00    +0.000 C 
ATOM      5  C   UNL     1      -5.766  -2.933 133.779  0.00  0.00    +0.000 C 
ATOM      6  C   UNL     1      -6.154  -4.681 133.911  0.00  0.00    +0.000 C 
ATOM      7  C   UNL     1      -5.248  -5.019 132.480  0.00  0.00    +0.000 C 
ATOM      8  C   UNL     1      -5.808  -4.317 131.205  0.00  0.00    +0.000 C 
ENDROOT
BRANCH   6   9
ATOM      9  N   UNL     1      -7.398  -5.522 135.015  0.00  0.00    +0.000 N 
ATOM     10  C   UNL     1      -6.400  -5.342 136.003  0.00  0.00    +0.000 C 
ATOM     11  O   UNL     1      -5.185  -5.712 135.977  0.00  0.00    +0.000 OA
ATOM     12  O   UNL     1      -6.729  -4.435 136.901  0.00  0.00    +0.000 OA
ATOM     13  C   UNL     1      -7.133  -5.290 137.896  0.00  0.00    +0.000 C 
ATOM     14  C   UNL     1      -8.559  -5.225 137.571  0.00  0.00    +0.000 A 
ATOM     15  C   UNL     1      -9.350  -5.080 138.882  0.00  0.00    +0.000 A 
ATOM     16  C   UNL     1     -10.585  -5.580 139.166  0.00  0.00    +0.000 A 
ATOM     17  C   UNL     1     -11.005  -6.296 138.072  0.00  0.00    +0.000 A 
ATOM     18  C   UNL     1     -10.171  -6.338 136.622  0.00  0.00    +0.000 A 
ATOM     19  C   UNL     1      -8.824  -5.605 136.215  0.00  0.00    +0.000 A 
ENDBRANCH   6   9
BRANCH   1  25
ATOM     20  N   UNL     1      -7.887  -2.853 125.050  0.00  0.00    +0.000 N 
ATOM     21  C   UNL     1      -9.138  -3.262 125.453  0.00  0.00    +0.000 A 
ATOM     22  C   UNL     1      -9.162  -3.273 126.826  0.00  0.00    +0.000 A 
ATOM     23  C   UNL     1      -7.889  -2.837 127.295  0.00  0.00    +0.000 A 
ATOM     24  C   UNL     1      -7.334  -2.627 128.594  0.00  0.00    +0.000 A 
ATOM     25  C   UNL     1      -6.000  -2.170 128.757  0.00  0.00    +0.000 A 
ATOM     26  C   UNL     1      -5.253  -1.974 127.599  0.00  0.00    +0.000 A 
ATOM     27  C   UNL     1      -5.776  -2.156 126.301  0.00  0.00    +0.000 A 
ATOM     28  C   UNL     1      -7.102  -2.590 126.161  0.00  0.00    +0.000 A 
BRANCH  20  29
ATOM     29  C   UNL     1      -7.562  -2.648 123.640  0.00  0.00    +0.000 C 
BRANCH  29  30
ATOM     30  C   UNL     1      -8.646  -1.846 122.900  0.00  0.00    +0.000 C 
BRANCH  30  32
ATOM     31  C   UNL     1      -7.108   0.039 123.456  0.00  0.00    +0.000 C 
ATOM     32  N   UNL     1      -8.415  -0.365 122.894  0.00  0.00    +0.000 NA
BRANCH  32  33
ATOM     33  S   UNL     1      -9.740   0.566 123.486  0.00  0.00    +0.000 S 
ATOM     34  C   UNL     1      -9.135   2.249 123.347  0.00  0.00    +0.000 C 
ATOM     35  O   UNL     1     -10.837   0.414 122.556  0.00  0.00    +0.000 OA
ATOM     36  O   UNL     1      -9.902   0.265 124.892  0.00  0.00    +0.000 OA
ENDBRANCH  32  33
ENDBRANCH  30  32
ENDBRANCH  29  30
ENDBRANCH  20  29
ENDBRANCH   1  25
TORSDOF 6
ENDMDL
MODEL 4
REMARK VINA RESULT:      -8.5      5.236     12.498
REMARK  Name = CHEMBL30315
REMARK  8 active torsions:
REMARK  status: ('A' for Active; 'I' for Inactive)
REMARK    1  A    between atoms: C_1  and  N_2
REMARK    2  A    between atoms: N_2  and  C_3
REMARK    3  A    between atoms: N_2  and  S_33
REMARK    4  A    between atoms: C_3  and  C_4
REMARK    5  A    between atoms: C_4  and  N_5
REMARK    6  A    between atoms: C_10  and  C_11
REMARK    7  A    between atoms: C_16  and  N_17
REMARK    8  A    between atoms: S_33  and  C_34
REMARK                            x       y       z     vdW  Elec       q    Type
REMARK                         _______ _______ _______ _____ _____    ______ ____
ROOT
ATOM      1  C   UNL     1      -3.731   5.087 128.421  0.00  0.00    +0.000 C 
ATOM      2  O   UNL     1      -2.873   5.639 127.729  0.00  0.00    +0.000 OA
ATOM      3  N   UNL     1      -4.738   4.239 127.841  0.00  0.00    +0.000 N 
ATOM      4  C   UNL     1      -4.378   3.094 126.989  0.00  0.00    +0.000 C 
ATOM      5  C   UNL     1      -5.271   2.943 125.728  0.00  0.00    +0.000 C 
ATOM      6  C   UNL     1      -7.002   2.661 126.109  0.00  0.00    +0.000 C 
ATOM      7  C   UNL     1      -7.107   4.193 126.899  0.00  0.00    +0.000 C 
ATOM      8  C   UNL     1      -6.174   4.320 128.142  0.00  0.00    +0.000 C 
ENDROOT
BRANCH   6   9
ATOM      9  N   UNL     1      -7.989   1.086 125.964  0.00  0.00    +0.000 N 
ATOM     10  C   UNL     1      -8.538   1.727 124.827  0.00  0.00    +0.000 C 
ATOM     11  O   UNL     1      -9.098   2.865 124.753  0.00  0.00    +0.000 OA
ATOM     12  O   UNL     1      -8.146   1.179 123.694  0.00  0.00    +0.000 OA
ATOM     13  C   UNL     1      -9.270   0.434 123.442  0.00  0.00    +0.000 C 
ATOM     14  C   UNL     1      -8.750  -0.809 124.015  0.00  0.00    +0.000 A 
ATOM     15  C   UNL     1      -9.104  -1.967 123.066  0.00  0.00    +0.000 A 
ATOM     16  C   UNL     1      -9.401  -3.253 123.401  0.00  0.00    +0.000 A 
ATOM     17  C   UNL     1      -9.375  -3.342 124.771  0.00  0.00    +0.000 A 
ATOM     18  C   UNL     1      -8.875  -2.094 125.767  0.00  0.00    +0.000 A 
ATOM     19  C   UNL     1      -8.345  -0.650 125.380  0.00  0.00    +0.000 A 
ENDBRANCH   6   9
BRANCH   1  25
ATOM     20  N   UNL     1      -3.480   5.501 134.146  0.00  0.00    +0.000 N 
ATOM     21  C   UNL     1      -3.288   4.181 134.485  0.00  0.00    +0.000 A 
ATOM     22  C   UNL     1      -3.260   3.442 133.328  0.00  0.00    +0.000 A 
ATOM     23  C   UNL     1      -3.420   4.334 132.229  0.00  0.00    +0.000 A 
ATOM     24  C   UNL     1      -3.449   4.160 130.811  0.00  0.00    +0.000 A 
ATOM     25  C   UNL     1      -3.623   5.267 129.940  0.00  0.00    +0.000 A 
ATOM     26  C   UNL     1      -3.799   6.515 130.530  0.00  0.00    +0.000 A 
ATOM     27  C   UNL     1      -3.759   6.724 131.925  0.00  0.00    +0.000 A 
ATOM     28  C   UNL     1      -3.567   5.621 132.768  0.00  0.00    +0.000 A 
BRANCH  20  29
ATOM     29  C   UNL     1      -3.467   6.563 135.150  0.00  0.00    +0.000 C 
BRANCH  29  30
ATOM     30  C   UNL     1      -2.063   6.804 135.730  0.00  0.00    +0.000 C 
BRANCH  30  32
ATOM     31  C   UNL     1      -2.310   9.009 134.586  0.00  0.00    +0.000 C 
ATOM     32  N   UNL     1      -1.385   8.031 135.201  0.00  0.00    +0.000 NA
BRANCH  32  33
ATOM     33  S   UNL     1       0.020   7.719 134.254  0.00  0.00    +0.000 S 
ATOM     34  C   UNL     1       0.345   9.309 133.489  0.00  0.00    +0.000 C 
ATOM     35  O   UNL     1       1.111   7.436 135.161  0.00  0.00    +0.000 OA
ATOM     36  O   UNL     1      -0.345   6.788 133.209  0.00  0.00    +0.000 OA
ENDBRANCH  32  33
ENDBRANCH  30  32
ENDBRANCH  29  30
ENDBRANCH  20  29
ENDBRANCH   1  25
TORSDOF 6
ENDMDL
MODEL 5
REMARK VINA RESULT:      -8.4      6.211      8.518
REMARK  Name = CHEMBL30315
REMARK  8 active torsions:
REMARK  status: ('A' for Active; 'I' for Inactive)
REMARK    1  A    between atoms: C_1  and  N_2
REMARK    2  A    between atoms: N_2  and  C_3
REMARK    3  A    between atoms: N_2  and  S_33
REMARK    4  A    between atoms: C_3  and  C_4
REMARK    5  A    between atoms: C_4  and  N_5
REMARK    6  A    between atoms: C_10  and  C_11
REMARK    7  A    between atoms: C_16  and  N_17
REMARK    8  A    between atoms: S_33  and  C_34
REMARK                            x       y       z     vdW  Elec       q    Type
REMARK                         _______ _______ _______ _____ _____    ______ ____
ROOT
ATOM      1  C   UNL     1      -5.807  -2.414 129.815  0.00  0.00    +0.000 C 
ATOM      2  O   UNL     1      -5.720  -3.523 130.347  0.00  0.00    +0.000 OA
ATOM      3  N   UNL     1      -5.299  -1.229 130.452  0.00  0.00    +0.000 N 
ATOM      4  C   UNL     1      -3.901  -1.141 130.903  0.00  0.00    +0.000 C 
ATOM      5  C   UNL     1      -3.730  -0.480 132.297  0.00  0.00    +0.000 C 
ATOM      6  C   UNL     1      -4.302   1.221 132.356  0.00  0.00    +0.000 C 
ATOM      7  C   UNL     1      -5.911   0.722 131.976  0.00  0.00    +0.000 C 
ATOM      8  C   UNL     1      -6.040   0.034 130.583  0.00  0.00    +0.000 C 
ENDROOT
BRANCH   6   9
ATOM      9  N   UNL     1      -3.298   2.790 132.422  0.00  0.00    +0.000 N 
ATOM     10  C   UNL     1      -3.845   3.001 131.133  0.00  0.00    +0.000 C 
ATOM     11  O   UNL     1      -3.804   2.234 130.121  0.00  0.00    +0.000 OA
ATOM     12  O   UNL     1      -4.731   3.976 131.109  0.00  0.00    +0.000 OA
ATOM     13  C   UNL     1      -3.921   4.957 130.595  0.00  0.00    +0.000 C 
ATOM     14  C   UNL     1      -3.573   5.548 131.889  0.00  0.00    +0.000 A 
ATOM     15  C   UNL     1      -3.656   7.079 131.763  0.00  0.00    +0.000 A 
ATOM     16  C   UNL     1      -2.887   8.007 132.397  0.00  0.00    +0.000 A 
ATOM     17  C   UNL     1      -1.966   7.332 133.160  0.00  0.00    +0.000 A 
ATOM     18  C   UNL     1      -1.977   5.671 133.363  0.00  0.00    +0.000 A 
ATOM     19  C   UNL     1      -2.984   4.594 132.780  0.00  0.00    +0.000 A 
ENDBRANCH   6   9
BRANCH   1  25
ATOM     20  N   UNL     1      -8.166  -2.496 124.576  0.00  0.00    +0.000 N 
ATOM     21  C   UNL     1      -9.403  -3.023 124.866  0.00  0.00    +0.000 A 
ATOM     22  C   UNL     1      -9.458  -3.267 126.216  0.00  0.00    +0.000 A 
ATOM     23  C   UNL     1      -8.220  -2.860 126.791  0.00  0.00    +0.000 A 
ATOM     24  C   UNL     1      -7.705  -2.848 128.124  0.00  0.00    +0.000 A 
ATOM     25  C   UNL     1      -6.400  -2.365 128.402  0.00  0.00    +0.000 A 
ATOM     26  C   UNL     1      -5.638  -1.942 127.317  0.00  0.00    +0.000 A 
ATOM     27  C   UNL     1      -6.121  -1.925 125.991  0.00  0.00    +0.000 A 
ATOM     28  C   UNL     1      -7.420  -2.389 125.739  0.00  0.00    +0.000 A 
BRANCH  20  29
ATOM     29  C   UNL     1      -7.819  -2.040 123.232  0.00  0.00    +0.000 C 
BRANCH  29  30
ATOM     30  C   UNL     1      -7.923  -0.512 123.086  0.00  0.00    +0.000 C 
BRANCH  30  32
ATOM     31  C   UNL     1     -10.104   0.592 122.585  0.00  0.00    +0.000 C 
ATOM     32  N   UNL     1      -9.193   0.070 123.627  0.00  0.00    +0.000 NA
BRANCH  32  33
ATOM     33  S   UNL     1      -8.977   1.143 124.958  0.00  0.00    +0.000 S 
ATOM     34  C   UNL     1      -7.200   1.382 124.991  0.00  0.00    +0.000 C 
ATOM     35  O   UNL     1      -9.586   2.409 124.608  0.00  0.00    +0.000 OA
ATOM     36  O   UNL     1      -9.355   0.439 126.164  0.00  0.00    +0.000 OA
ENDBRANCH  32  33
ENDBRANCH  30  32
ENDBRANCH  29  30
ENDBRANCH  20  29
ENDBRANCH   1  25
TORSDOF 6
ENDMDL
MODEL 6
REMARK VINA RESULT:      -8.3      5.229     12.017
REMARK  Name = CHEMBL30315
REMARK  8 active torsions:
REMARK  status: ('A' for Active; 'I' for Inactive)
REMARK    1  A    between atoms: C_1  and  N_2
REMARK    2  A    between atoms: N_2  and  C_3
REMARK    3  A    between atoms: N_2  and  S_33
REMARK    4  A    between atoms: C_3  and  C_4
REMARK    5  A    between atoms: C_4  and  N_5
REMARK    6  A    between atoms: C_10  and  C_11
REMARK    7  A    between atoms: C_16  and  N_17
REMARK    8  A    between atoms: S_33  and  C_34
REMARK                            x       y       z     vdW  Elec       q    Type
REMARK                         _______ _______ _______ _____ _____    ______ ____
ROOT
ATOM      1  C   UNL     1      -3.555   5.131 128.272  0.00  0.00    +0.000 C 
ATOM      2  O   UNL     1      -2.676   5.631 127.566  0.00  0.00    +0.000 OA
ATOM      3  N   UNL     1      -4.565   4.267 127.720  0.00  0.00    +0.000 N 
ATOM      4  C   UNL     1      -4.208   3.072 126.940  0.00  0.00    +0.000 C 
ATOM      5  C   UNL     1      -5.081   2.864 125.673  0.00  0.00    +0.000 C 
ATOM      6  C   UNL     1      -6.823   2.629 126.036  0.00  0.00    +0.000 C 
ATOM      7  C   UNL     1      -6.917   4.204 126.739  0.00  0.00    +0.000 C 
ATOM      8  C   UNL     1      -6.005   4.386 127.990  0.00  0.00    +0.000 C 
ENDROOT
BRANCH   6   9
ATOM      9  N   UNL     1      -7.832   1.064 125.960  0.00  0.00    +0.000 N 
ATOM     10  C   UNL     1      -8.446   1.707 124.857  0.00  0.00    +0.000 C 
ATOM     11  O   UNL     1      -8.998   2.849 124.814  0.00  0.00    +0.000 OA
ATOM     12  O   UNL     1      -8.130   1.151 123.704  0.00  0.00    +0.000 OA
ATOM     13  C   UNL     1      -9.275   0.416 123.527  0.00  0.00    +0.000 C 
ATOM     14  C   UNL     1      -8.732  -0.831 124.071  0.00  0.00    +0.000 A 
ATOM     15  C   UNL     1      -9.156  -1.988 123.151  0.00  0.00    +0.000 A 
ATOM     16  C   UNL     1      -9.443  -3.270 123.509  0.00  0.00    +0.000 A 
ATOM     17  C   UNL     1      -9.333  -3.354 124.875  0.00  0.00    +0.000 A 
ATOM     18  C   UNL     1      -8.759  -2.108 125.832  0.00  0.00    +0.000 A 
ATOM     19  C   UNL     1      -8.241  -0.670 125.407  0.00  0.00    +0.000 A 
ENDBRANCH   6   9
BRANCH   1  25
ATOM     20  N   UNL     1      -3.013   6.312 133.868  0.00  0.00    +0.000 N 
ATOM     21  C   UNL     1      -2.759   7.663 133.816  0.00  0.00    +0.000 A 
ATOM     22  C   UNL     1      -2.754   8.047 132.498  0.00  0.00    +0.000 A 
ATOM     23  C   UNL     1      -3.033   6.899 131.702  0.00  0.00    +0.000 A 
ATOM     24  C   UNL     1      -3.178   6.682 130.297  0.00  0.00    +0.000 A 
ATOM     25  C   UNL     1      -3.470   5.393 129.780  0.00  0.00    +0.000 A 
ATOM     26  C   UNL     1      -3.573   4.352 130.698  0.00  0.00    +0.000 A 
ATOM     27  C   UNL     1      -3.452   4.534 132.092  0.00  0.00    +0.000 A 
ATOM     28  C   UNL     1      -3.182   5.819 132.584  0.00  0.00    +0.000 A 
BRANCH  20  29
ATOM     29  C   UNL     1      -3.175   5.608 135.139  0.00  0.00    +0.000 C 
BRANCH  29  30
ATOM     30  C   UNL     1      -4.571   5.816 135.750  0.00  0.00    +0.000 C 
BRANCH  30  32
ATOM     31  C   UNL     1      -4.742   3.351 135.395  0.00  0.00    +0.000 C 
ATOM     32  N   UNL     1      -5.464   4.615 135.658  0.00  0.00    +0.000 NA
BRANCH  32  33
ATOM     33  S   UNL     1      -6.856   4.835 134.667  0.00  0.00    +0.000 S 
ATOM     34  C   UNL     1      -7.122   3.197 133.986  0.00  0.00    +0.000 C 
ATOM     35  O   UNL     1      -7.973   5.138 135.535  0.00  0.00    +0.000 OA
ATOM     36  O   UNL     1      -6.493   5.717 133.579  0.00  0.00    +0.000 OA
ENDBRANCH  32  33
ENDBRANCH  30  32
ENDBRANCH  29  30
ENDBRANCH  20  29
ENDBRANCH   1  25
TORSDOF 6
ENDMDL
MODEL 7
REMARK VINA RESULT:      -8.2      5.815      7.993
REMARK  Name = CHEMBL30315
REMARK  8 active torsions:
REMARK  status: ('A' for Active; 'I' for Inactive)
REMARK    1  A    between atoms: C_1  and  N_2
REMARK    2  A    between atoms: N_2  and  C_3
REMARK    3  A    between atoms: N_2  and  S_33
REMARK    4  A    between atoms: C_3  and  C_4
REMARK    5  A    between atoms: C_4  and  N_5
REMARK    6  A    between atoms: C_10  and  C_11
REMARK    7  A    between atoms: C_16  and  N_17
REMARK    8  A    between atoms: S_33  and  C_34
REMARK                            x       y       z     vdW  Elec       q    Type
REMARK                         _______ _______ _______ _____ _____    ______ ____
ROOT
ATOM      1  C   UNL     1      -3.541   3.867 127.085  0.00  0.00    +0.000 C 
ATOM      2  O   UNL     1      -2.461   3.947 126.494  0.00  0.00    +0.000 OA
ATOM      3  N   UNL     1      -3.678   4.259 128.462  0.00  0.00    +0.000 N 
ATOM      4  C   UNL     1      -3.280   5.599 128.920  0.00  0.00    +0.000 C 
ATOM      5  C   UNL     1      -2.518   5.602 130.273  0.00  0.00    +0.000 C 
ATOM      6  C   UNL     1      -3.487   4.956 131.640  0.00  0.00    +0.000 C 
ATOM      7  C   UNL     1      -3.601   3.416 130.867  0.00  0.00    +0.000 C 
ATOM      8  C   UNL     1      -4.345   3.457 129.497  0.00  0.00    +0.000 C 
ENDROOT
BRANCH   6   9
ATOM      9  N   UNL     1      -4.282   5.882 133.049  0.00  0.00    +0.000 N 
ATOM     10  C   UNL     1      -5.465   5.684 132.296  0.00  0.00    +0.000 C 
ATOM     11  O   UNL     1      -5.696   5.998 131.087  0.00  0.00    +0.000 OA
ATOM     12  O   UNL     1      -6.286   4.817 132.856  0.00  0.00    +0.000 OA
ATOM     13  C   UNL     1      -7.156   5.716 133.420  0.00  0.00    +0.000 C 
ATOM     14  C   UNL     1      -6.532   5.708 134.745  0.00  0.00    +0.000 A 
ATOM     15  C   UNL     1      -7.644   5.634 135.806  0.00  0.00    +0.000 A 
ATOM     16  C   UNL     1      -7.645   6.197 137.045  0.00  0.00    +0.000 A 
ATOM     17  C   UNL     1      -6.474   6.901 137.184  0.00  0.00    +0.000 A 
ATOM     18  C   UNL     1      -5.239   6.866 136.057  0.00  0.00    +0.000 A 
ATOM     19  C   UNL     1      -5.145   6.062 134.693  0.00  0.00    +0.000 A 
ENDBRANCH   6   9
BRANCH   1  25
ATOM     20  N   UNL     1      -8.084   2.459 123.862  0.00  0.00    +0.000 N 
ATOM     21  C   UNL     1      -7.740   3.054 122.670  0.00  0.00    +0.000 A 
ATOM     22  C   UNL     1      -6.526   3.674 122.836  0.00  0.00    +0.000 A 
ATOM     23  C   UNL     1      -6.090   3.442 124.172  0.00  0.00    +0.000 A 
ATOM     24  C   UNL     1      -4.921   3.809 124.907  0.00  0.00    +0.000 A 
ATOM     25  C   UNL     1      -4.754   3.419 126.261  0.00  0.00    +0.000 A 
ATOM     26  C   UNL     1      -5.792   2.699 126.845  0.00  0.00    +0.000 A 
ATOM     27  C   UNL     1      -6.952   2.306 126.143  0.00  0.00    +0.000 A 
ATOM     28  C   UNL     1      -7.089   2.685 124.800  0.00  0.00    +0.000 A 
BRANCH  20  29
ATOM     29  C   UNL     1      -9.284   1.636 123.993  0.00  0.00    +0.000 C 
BRANCH  29  30
ATOM     30  C   UNL     1      -9.137   0.271 123.299  0.00  0.00    +0.000 C 
BRANCH  30  32
ATOM     31  C   UNL     1      -9.080  -0.664 125.612  0.00  0.00    +0.000 C 
ATOM     32  N   UNL     1      -9.412  -0.902 124.190  0.00  0.00    +0.000 NA
BRANCH  32  33
ATOM     33  S   UNL     1      -8.830  -2.408 123.587  0.00  0.00    +0.000 S 
ATOM     34  C   UNL     1      -7.925  -3.073 124.986  0.00  0.00    +0.000 C 
ATOM     35  O   UNL     1      -9.975  -3.263 123.358  0.00  0.00    +0.000 OA
ATOM     36  O   UNL     1      -7.881  -2.129 122.533  0.00  0.00    +0.000 OA
ENDBRANCH  32  33
ENDBRANCH  30  32
ENDBRANCH  29  30
ENDBRANCH  20  29
ENDBRANCH   1  25
TORSDOF 6
ENDMDL
MODEL 8
REMARK VINA RESULT:      -8.1      3.388     11.064
REMARK  Name = CHEMBL30315
REMARK  8 active torsions:
REMARK  status: ('A' for Active; 'I' for Inactive)
REMARK    1  A    between atoms: C_1  and  N_2
REMARK    2  A    between atoms: N_2  and  C_3
REMARK    3  A    between atoms: N_2  and  S_33
REMARK    4  A    between atoms: C_3  and  C_4
REMARK    5  A    between atoms: C_4  and  N_5
REMARK    6  A    between atoms: C_10  and  C_11
REMARK    7  A    between atoms: C_16  and  N_17
REMARK    8  A    between atoms: S_33  and  C_34
REMARK                            x       y       z     vdW  Elec       q    Type
REMARK                         _______ _______ _______ _____ _____    ______ ____
ROOT
ATOM      1  C   UNL     1      -5.317   4.493 134.557  0.00  0.00    +0.000 C 
ATOM      2  O   UNL     1      -5.247   3.646 135.451  0.00  0.00    +0.000 OA
ATOM      3  N   UNL     1      -6.487   4.622 133.730  0.00  0.00    +0.000 N 
ATOM      4  C   UNL     1      -7.822   4.817 134.317  0.00  0.00    +0.000 C 
ATOM      5  C   UNL     1      -8.937   3.979 133.636  0.00  0.00    +0.000 C 
ATOM      6  C   UNL     1      -9.173   4.378 131.901  0.00  0.00    +0.000 C 
ATOM      7  C   UNL     1      -7.560   3.881 131.539  0.00  0.00    +0.000 C 
ATOM      8  C   UNL     1      -6.467   4.725 132.264  0.00  0.00    +0.000 C 
ENDROOT
BRANCH   6   9
ATOM      9  N   UNL     1     -10.563   5.326 131.099  0.00  0.00    +0.000 N 
ATOM     10  C   UNL     1      -9.585   6.343 130.983  0.00  0.00    +0.000 C 
ATOM     11  O   UNL     1      -8.872   6.864 131.896  0.00  0.00    +0.000 OA
ATOM     12  O   UNL     1      -9.195   6.535 129.738  0.00  0.00    +0.000 OA
ATOM     13  C   UNL     1      -9.950   7.650 129.472  0.00  0.00    +0.000 C 
ATOM     14  C   UNL     1     -11.050   6.929 128.827  0.00  0.00    +0.000 A 
ATOM     15  C   UNL     1     -11.455   7.696 127.557  0.00  0.00    +0.000 A 
ATOM     16  C   UNL     1     -12.701   7.807 127.018  0.00  0.00    +0.000 A 
ATOM     17  C   UNL     1     -13.572   7.138 127.842  0.00  0.00    +0.000 A 
ATOM     18  C   UNL     1     -13.081   6.220 129.151  0.00  0.00    +0.000 A 
ATOM     19  C   UNL     1     -11.615   5.926 129.680  0.00  0.00    +0.000 A 
ENDBRANCH   6   9
BRANCH   1  25
ATOM     20  N   UNL     1      -0.718   7.895 134.017  0.00  0.00    +0.000 N 
ATOM     21  C   UNL     1      -0.034   7.235 133.022  0.00  0.00    +0.000 A 
ATOM     22  C   UNL     1      -0.760   6.125 132.667  0.00  0.00    +0.000 A 
ATOM     23  C   UNL     1      -1.947   6.102 133.455  0.00  0.00    +0.000 A 
ATOM     24  C   UNL     1      -3.073   5.225 133.519  0.00  0.00    +0.000 A 
ATOM     25  C   UNL     1      -4.139   5.465 134.425  0.00  0.00    +0.000 A 
ATOM     26  C   UNL     1      -4.017   6.566 135.267  0.00  0.00    +0.000 A 
ATOM     27  C   UNL     1      -2.927   7.461 135.218  0.00  0.00    +0.000 A 
ATOM     28  C   UNL     1      -1.893   7.218 134.302  0.00  0.00    +0.000 A 
BRANCH  20  29
ATOM     29  C   UNL     1      -0.255   9.172 134.554  0.00  0.00    +0.000 C 
BRANCH  29  30
ATOM     30  C   UNL     1       0.304  10.099 133.460  0.00  0.00    +0.000 C 
BRANCH  30  32
ATOM     31  C   UNL     1       1.496  11.086 135.419  0.00  0.00    +0.000 C 
ATOM     32  N   UNL     1       1.172  11.204 133.980  0.00  0.00    +0.000 NA
BRANCH  32  33
ATOM     33  S   UNL     1       0.671  12.785 133.511  0.00  0.00    +0.000 S 
ATOM     34  C   UNL     1       0.790  12.726 131.722  0.00  0.00    +0.000 C 
ATOM     35  O   UNL     1      -0.728  12.925 133.855  0.00  0.00    +0.000 OA
ATOM     36  O   UNL     1       1.658  13.726 133.993  0.00  0.00    +0.000 OA
ENDBRANCH  32  33
ENDBRANCH  30  32
ENDBRANCH  29  30
ENDBRANCH  20  29
ENDBRANCH   1  25
TORSDOF 6
ENDMDL
MODEL 9
REMARK VINA RESULT:      -8.1      5.916     13.055
REMARK  Name = CHEMBL30315
REMARK  8 active torsions:
REMARK  status: ('A' for Active; 'I' for Inactive)
REMARK    1  A    between atoms: C_1  and  N_2
REMARK    2  A    between atoms: N_2  and  C_3
REMARK    3  A    between atoms: N_2  and  S_33
REMARK    4  A    between atoms: C_3  and  C_4
REMARK    5  A    between atoms: C_4  and  N_5
REMARK    6  A    between atoms: C_10  and  C_11
REMARK    7  A    between atoms: C_16  and  N_17
REMARK    8  A    between atoms: S_33  and  C_34
REMARK                            x       y       z     vdW  Elec       q    Type
REMARK                         _______ _______ _______ _____ _____    ______ ____
ROOT
ATOM      1  C   UNL     1      -5.462   2.128 132.554  0.00  0.00    +0.000 C 
ATOM      2  O   UNL     1      -6.204   2.234 133.533  0.00  0.00    +0.000 OA
ATOM      3  N   UNL     1      -5.644   1.087 131.579  0.00  0.00    +0.000 N 
ATOM      4  C   UNL     1      -6.932   0.896 130.894  0.00  0.00    +0.000 C 
ATOM      5  C   UNL     1      -7.358  -0.591 130.756  0.00  0.00    +0.000 C 
ATOM      6  C   UNL     1      -6.212  -1.575 129.787  0.00  0.00    +0.000 C 
ATOM      7  C   UNL     1      -4.949  -1.278 130.926  0.00  0.00    +0.000 C 
ATOM      8  C   UNL     1      -4.569   0.228 131.060  0.00  0.00    +0.000 C 
ENDROOT
BRANCH   6   9
ATOM      9  N   UNL     1      -6.413  -2.234 128.054  0.00  0.00    +0.000 N 
ATOM     10  C   UNL     1      -7.327  -3.121 128.673  0.00  0.00    +0.000 C 
ATOM     11  O   UNL     1      -7.131  -3.901 129.656  0.00  0.00    +0.000 OA
ATOM     12  O   UNL     1      -8.580  -2.866 128.353  0.00  0.00    +0.000 OA
ATOM     13  C   UNL     1      -8.737  -3.845 127.404  0.00  0.00    +0.000 C 
ATOM     14  C   UNL     1      -8.456  -2.980 126.256  0.00  0.00    +0.000 A 
ATOM     15  C   UNL     1      -9.490  -3.281 125.157  0.00  0.00    +0.000 A 
ATOM     16  C   UNL     1      -9.302  -3.238 123.809  0.00  0.00    +0.000 A 
ATOM     17  C   UNL     1      -7.987  -2.916 123.582  0.00  0.00    +0.000 A 
ATOM     18  C   UNL     1      -6.921  -2.484 124.797  0.00  0.00    +0.000 A 
ATOM     19  C   UNL     1      -7.176  -2.345 126.356  0.00  0.00    +0.000 A 
ENDBRANCH   6   9
BRANCH   1  25
ATOM     20  N   UNL     1      -1.446   6.117 131.570  0.00  0.00    +0.000 N 
ATOM     21  C   UNL     1      -1.878   6.615 130.362  0.00  0.00    +0.000 A 
ATOM     22  C   UNL     1      -3.011   5.931 129.998  0.00  0.00    +0.000 A 
ATOM     23  C   UNL     1      -3.307   4.988 131.024  0.00  0.00    +0.000 A 
ATOM     24  C   UNL     1      -4.351   4.031 131.215  0.00  0.00    +0.000 A 
ATOM     25  C   UNL     1      -4.391   3.210 132.371  0.00  0.00    +0.000 A 
ATOM     26  C   UNL     1      -3.351   3.355 133.285  0.00  0.00    +0.000 A 
ATOM     27  C   UNL     1      -2.316   4.300 133.136  0.00  0.00    +0.000 A 
ATOM     28  C   UNL     1      -2.304   5.116 131.995  0.00  0.00    +0.000 A 
BRANCH  20  29
ATOM     29  C   UNL     1      -0.307   6.697 132.278  0.00  0.00    +0.000 C 
BRANCH  29  30
ATOM     30  C   UNL     1      -0.681   7.983 133.036  0.00  0.00    +0.000 C 
BRANCH  30  32
ATOM     31  C   UNL     1       0.561   7.504 135.147  0.00  0.00    +0.000 C 
ATOM     32  N   UNL     1       0.356   8.438 134.018  0.00  0.00    +0.000 NA
BRANCH  32  33
ATOM     33  S   UNL     1       0.206  10.085 134.502  0.00  0.00    +0.000 S 
ATOM     34  C   UNL     1       0.898  10.973 133.105  0.00  0.00    +0.000 C 
ATOM     35  O   UNL     1      -1.204  10.400 134.568  0.00  0.00    +0.000 OA
ATOM     36  O   UNL     1       1.075  10.295 135.639  0.00  0.00    +0.000 OA
ENDBRANCH  32  33
ENDBRANCH  30  32
ENDBRANCH  29  30
ENDBRANCH  20  29
ENDBRANCH   1  25
TORSDOF 6
ENDMDL
