MODEL 1
REMARK VINA RESULT:      -6.9      0.000      0.000
REMARK  Name = CHEMBL1088766
REMARK  10 active torsions:
REMARK  status: ('A' for Active; 'I' for Inactive)
REMARK    1  A    between atoms: C_1  and  O_2
REMARK    2  A    between atoms: O_2  and  C_3
REMARK    3  A    between atoms: C_3  and  C_4
REMARK    4  A    between atoms: C_4  and  N_5
REMARK    5  A    between atoms: N_5  and  C_20
REMARK    6  A    between atoms: C_6  and  C_8
REMARK    7  A    between atoms: N_11  and  C_12
REMARK    8  A    between atoms: C_18  and  C_19
REMARK    9  A    between atoms: C_23  and  O_24
REMARK   10  A    between atoms: O_24  and  C_25
REMARK                            x       y       z     vdW  Elec       q    Type
REMARK                         _______ _______ _______ _____ _____    ______ ____
ROOT
ATOM      1  N   UNL     1     -10.062   5.566 131.182  0.00  0.00    +0.000 N 
ATOM      2  C   UNL     1     -10.423   4.214 130.840  0.00  0.00    +0.000 C 
ATOM      3  O   UNL     1     -11.321   3.980 130.044  0.00  0.00    +0.000 OA
ENDROOT
BRANCH   2   4
ATOM      4  C   UNL     1      -9.647   3.054 131.320  0.00  0.00    +0.000 A 
ATOM      5  C   UNL     1      -9.607   2.379 132.566  0.00  0.00    +0.000 A 
ATOM      6  N   UNL     1      -8.691   1.412 132.615  0.00  0.00    +0.000 NA
ATOM      7  N   UNL     1      -8.217   1.342 131.353  0.00  0.00    +0.000 N 
ATOM      8  C   UNL     1      -8.827   2.260 130.522  0.00  0.00    +0.000 A 
ATOM      9  C   UNL     1      -8.707   2.237 129.045  0.00  0.00    +0.000 C 
BRANCH   7  10
ATOM     10  C   UNL     1      -7.273   0.349 131.022  0.00  0.00    +0.000 A 
ATOM     11  C   UNL     1      -7.744  -0.940 130.757  0.00  0.00    +0.000 A 
ATOM     12  C   UNL     1      -6.840  -1.946 130.439  0.00  0.00    +0.000 A 
ATOM     13  C   UNL     1      -5.478  -1.654 130.349  0.00  0.00    +0.000 A 
ATOM     14  C   UNL     1      -5.010  -0.365 130.618  0.00  0.00    +0.000 A 
ATOM     15  C   UNL     1      -5.908   0.646 130.960  0.00  0.00    +0.000 A 
ENDBRANCH   7  10
ENDBRANCH   2   4
BRANCH   1  16
ATOM     16  C   UNL     1     -10.913   6.633 130.680  0.00  0.00    +0.000 A 
ATOM     17  C   UNL     1     -12.095   6.995 131.331  0.00  0.00    +0.000 A 
ATOM     18  C   UNL     1     -12.886   8.043 130.848  0.00  0.00    +0.000 A 
ATOM     19  C   UNL     1     -12.505   8.707 129.694  0.00  0.00    +0.000 A 
ATOM     20  N   UNL     1     -11.392   8.365 129.016  0.00  0.00    +0.000 NA
ATOM     21  C   UNL     1     -10.623   7.360 129.524  0.00  0.00    +0.000 A 
BRANCH  19  22
ATOM     22  O   UNL     1     -13.192   9.753 129.139  0.00  0.00    +0.000 OA
ATOM     23  C   UNL     1     -13.483  10.850 129.999  0.00  0.00    +0.000 C 
ENDBRANCH  19  22
ENDBRANCH   1  16
BRANCH   1  24
ATOM     24  C   UNL     1      -8.890   6.054 132.004  0.00  0.00    +0.000 C 
BRANCH  24  25
ATOM     25  C   UNL     1      -7.619   6.250 131.221  0.00  0.00    +0.000 C 
BRANCH  25  27
ATOM     26  C   UNL     1      -6.244   4.884 129.998  0.00  0.00    +0.000 C 
ATOM     27  O   UNL     1      -7.423   5.722 129.924  0.00  0.00    +0.000 OA
ENDBRANCH  25  27
ENDBRANCH  24  25
ENDBRANCH   1  24
TORSDOF 7
ENDMDL
MODEL 2
REMARK VINA RESULT:      -6.8      7.117      8.207
REMARK  Name = CHEMBL1088766
REMARK  10 active torsions:
REMARK  status: ('A' for Active; 'I' for Inactive)
REMARK    1  A    between atoms: C_1  and  O_2
REMARK    2  A    between atoms: O_2  and  C_3
REMARK    3  A    between atoms: C_3  and  C_4
REMARK    4  A    between atoms: C_4  and  N_5
REMARK    5  A    between atoms: N_5  and  C_20
REMARK    6  A    between atoms: C_6  and  C_8
REMARK    7  A    between atoms: N_11  and  C_12
REMARK    8  A    between atoms: C_18  and  C_19
REMARK    9  A    between atoms: C_23  and  O_24
REMARK   10  A    between atoms: O_24  and  C_25
REMARK                            x       y       z     vdW  Elec       q    Type
REMARK                         _______ _______ _______ _____ _____    ______ ____
ROOT
ATOM      1  N   UNL     1      -7.666  -0.492 124.942  0.00  0.00    +0.000 N 
ATOM      2  C   UNL     1      -8.401  -0.568 126.179  0.00  0.00    +0.000 C 
ATOM      3  O   UNL     1      -9.289   0.232 126.439  0.00  0.00    +0.000 OA
ENDROOT
BRANCH   2   4
ATOM      4  C   UNL     1      -8.219  -1.684 127.127  0.00  0.00    +0.000 A 
ATOM      5  C   UNL     1      -8.716  -3.012 127.150  0.00  0.00    +0.000 A 
ATOM      6  N   UNL     1      -8.375  -3.686 128.247  0.00  0.00    +0.000 NA
ATOM      7  N   UNL     1      -7.526  -2.858 128.894  0.00  0.00    +0.000 N 
ATOM      8  C   UNL     1      -7.341  -1.674 128.208  0.00  0.00    +0.000 A 
ATOM      9  C   UNL     1      -6.275  -0.697 128.532  0.00  0.00    +0.000 C 
BRANCH   7  10
ATOM     10  C   UNL     1      -6.898  -3.296 130.076  0.00  0.00    +0.000 A 
ATOM     11  C   UNL     1      -7.423  -2.860 131.296  0.00  0.00    +0.000 A 
ATOM     12  C   UNL     1      -6.822  -3.263 132.483  0.00  0.00    +0.000 A 
ATOM     13  C   UNL     1      -5.726  -4.126 132.448  0.00  0.00    +0.000 A 
ATOM     14  C   UNL     1      -5.201  -4.557 131.227  0.00  0.00    +0.000 A 
ATOM     15  C   UNL     1      -5.784  -4.140 130.031  0.00  0.00    +0.000 A 
ENDBRANCH   7  10
ENDBRANCH   2   4
BRANCH   1  16
ATOM     16  C   UNL     1      -7.900   0.667 124.096  0.00  0.00    +0.000 A 
ATOM     17  C   UNL     1      -6.969   1.704 124.000  0.00  0.00    +0.000 A 
ATOM     18  C   UNL     1      -7.199   2.798 123.159  0.00  0.00    +0.000 A 
ATOM     19  C   UNL     1      -8.379   2.863 122.436  0.00  0.00    +0.000 A 
ATOM     20  N   UNL     1      -9.319   1.901 122.527  0.00  0.00    +0.000 NA
ATOM     21  C   UNL     1      -9.057   0.833 123.332  0.00  0.00    +0.000 A 
BRANCH  19  22
ATOM     22  O   UNL     1      -8.705   3.875 121.573  0.00  0.00    +0.000 OA
ATOM     23  C   UNL     1      -8.010   3.898 120.331  0.00  0.00    +0.000 C 
ENDBRANCH  19  22
ENDBRANCH   1  16
BRANCH   1  24
ATOM     24  C   UNL     1      -6.663  -1.472 124.375  0.00  0.00    +0.000 C 
BRANCH  24  25
ATOM     25  C   UNL     1      -7.250  -2.489 123.434  0.00  0.00    +0.000 C 
BRANCH  25  27
ATOM     26  C   UNL     1      -9.432  -3.189 123.435  0.00  0.00    +0.000 C 
ATOM     27  O   UNL     1      -8.094  -3.540 123.863  0.00  0.00    +0.000 OA
ENDBRANCH  25  27
ENDBRANCH  24  25
ENDBRANCH   1  24
TORSDOF 7
ENDMDL
MODEL 3
REMARK VINA RESULT:      -6.6      6.208      7.833
REMARK  Name = CHEMBL1088766
REMARK  10 active torsions:
REMARK  status: ('A' for Active; 'I' for Inactive)
REMARK    1  A    between atoms: C_1  and  O_2
REMARK    2  A    between atoms: O_2  and  C_3
REMARK    3  A    between atoms: C_3  and  C_4
REMARK    4  A    between atoms: C_4  and  N_5
REMARK    5  A    between atoms: N_5  and  C_20
REMARK    6  A    between atoms: C_6  and  C_8
REMARK    7  A    between atoms: N_11  and  C_12
REMARK    8  A    between atoms: C_18  and  C_19
REMARK    9  A    between atoms: C_23  and  O_24
REMARK   10  A    between atoms: O_24  and  C_25
REMARK                            x       y       z     vdW  Elec       q    Type
REMARK                         _______ _______ _______ _____ _____    ______ ____
ROOT
ATOM      1  N   UNL     1      -7.209   2.584 123.939  0.00  0.00    +0.000 N 
ATOM      2  C   UNL     1      -7.637   1.224 124.145  0.00  0.00    +0.000 C 
ATOM      3  O   UNL     1      -7.865   0.482 123.200  0.00  0.00    +0.000 OA
ENDROOT
BRANCH   2   4
ATOM      4  C   UNL     1      -7.689   0.617 125.489  0.00  0.00    +0.000 A 
ATOM      5  C   UNL     1      -8.529   0.840 126.609  0.00  0.00    +0.000 A 
ATOM      6  N   UNL     1      -8.184   0.128 127.680  0.00  0.00    +0.000 NA
ATOM      7  N   UNL     1      -7.201  -0.684 127.235  0.00  0.00    +0.000 N 
ATOM      8  C   UNL     1      -6.930  -0.477 125.897  0.00  0.00    +0.000 A 
ATOM      9  C   UNL     1      -6.099  -1.391 125.078  0.00  0.00    +0.000 C 
BRANCH   7  10
ATOM     10  C   UNL     1      -6.651  -1.647 128.104  0.00  0.00    +0.000 A 
ATOM     11  C   UNL     1      -7.506  -2.624 128.622  0.00  0.00    +0.000 A 
ATOM     12  C   UNL     1      -7.001  -3.583 129.492  0.00  0.00    +0.000 A 
ATOM     13  C   UNL     1      -5.641  -3.586 129.810  0.00  0.00    +0.000 A 
ATOM     14  C   UNL     1      -4.791  -2.605 129.293  0.00  0.00    +0.000 A 
ATOM     15  C   UNL     1      -5.293  -1.626 128.438  0.00  0.00    +0.000 A 
ENDBRANCH   7  10
ENDBRANCH   2   4
BRANCH   1  16
ATOM     16  C   UNL     1      -7.225   3.092 122.577  0.00  0.00    +0.000 A 
ATOM     17  C   UNL     1      -8.422   3.305 121.888  0.00  0.00    +0.000 A 
ATOM     18  C   UNL     1      -8.418   3.820 120.588  0.00  0.00    +0.000 A 
ATOM     19  C   UNL     1      -7.210   4.094 119.968  0.00  0.00    +0.000 A 
ATOM     20  N   UNL     1      -6.032   3.868 120.584  0.00  0.00    +0.000 NA
ATOM     21  C   UNL     1      -6.065   3.394 121.862  0.00  0.00    +0.000 A 
BRANCH  19  22
ATOM     22  O   UNL     1      -7.084   4.612 118.707  0.00  0.00    +0.000 OA
ATOM     23  C   UNL     1      -6.097   5.623 118.532  0.00  0.00    +0.000 C 
ENDBRANCH  19  22
ENDBRANCH   1  16
BRANCH   1  24
ATOM     24  C   UNL     1      -6.726   3.590 124.961  0.00  0.00    +0.000 C 
BRANCH  24  25
ATOM     25  C   UNL     1      -7.816   4.433 125.567  0.00  0.00    +0.000 C 
BRANCH  25  27
ATOM     26  C   UNL     1      -7.015   4.020 127.675  0.00  0.00    +0.000 C 
ATOM     27  O   UNL     1      -7.730   4.986 126.866  0.00  0.00    +0.000 OA
ENDBRANCH  25  27
ENDBRANCH  24  25
ENDBRANCH   1  24
TORSDOF 7
ENDMDL
MODEL 4
REMARK VINA RESULT:      -6.6      6.517      9.148
REMARK  Name = CHEMBL1088766
REMARK  10 active torsions:
REMARK  status: ('A' for Active; 'I' for Inactive)
REMARK    1  A    between atoms: C_1  and  O_2
REMARK    2  A    between atoms: O_2  and  C_3
REMARK    3  A    between atoms: C_3  and  C_4
REMARK    4  A    between atoms: C_4  and  N_5
REMARK    5  A    between atoms: N_5  and  C_20
REMARK    6  A    between atoms: C_6  and  C_8
REMARK    7  A    between atoms: N_11  and  C_12
REMARK    8  A    between atoms: C_18  and  C_19
REMARK    9  A    between atoms: C_23  and  O_24
REMARK   10  A    between atoms: O_24  and  C_25
REMARK                            x       y       z     vdW  Elec       q    Type
REMARK                         _______ _______ _______ _____ _____    ______ ____
ROOT
ATOM      1  N   UNL     1      -6.348   2.144 125.057  0.00  0.00    +0.000 N 
ATOM      2  C   UNL     1      -5.360   1.805 126.048  0.00  0.00    +0.000 C 
ATOM      3  O   UNL     1      -5.161   0.642 126.373  0.00  0.00    +0.000 OA
ENDROOT
BRANCH   2   4
ATOM      4  C   UNL     1      -4.448   2.816 126.619  0.00  0.00    +0.000 A 
ATOM      5  C   UNL     1      -3.165   3.276 126.230  0.00  0.00    +0.000 A 
ATOM      6  N   UNL     1      -2.639   4.157 127.079  0.00  0.00    +0.000 NA
ATOM      7  N   UNL     1      -3.632   4.400 127.962  0.00  0.00    +0.000 N 
ATOM      8  C   UNL     1      -4.768   3.672 127.670  0.00  0.00    +0.000 A 
ATOM      9  C   UNL     1      -6.088   3.926 128.295  0.00  0.00    +0.000 C 
BRANCH   7  10
ATOM     10  C   UNL     1      -3.442   5.366 128.970  0.00  0.00    +0.000 A 
ATOM     11  C   UNL     1      -3.775   6.691 128.676  0.00  0.00    +0.000 A 
ATOM     12  C   UNL     1      -3.590   7.673 129.642  0.00  0.00    +0.000 A 
ATOM     13  C   UNL     1      -3.112   7.323 130.906  0.00  0.00    +0.000 A 
ATOM     14  C   UNL     1      -2.777   5.997 131.195  0.00  0.00    +0.000 A 
ATOM     15  C   UNL     1      -2.938   5.010 130.224  0.00  0.00    +0.000 A 
ENDBRANCH   7  10
ENDBRANCH   2   4
BRANCH   1  16
ATOM     16  C   UNL     1      -7.216   1.077 124.585  0.00  0.00    +0.000 A 
ATOM     17  C   UNL     1      -6.780   0.141 123.643  0.00  0.00    +0.000 A 
ATOM     18  C   UNL     1      -7.621  -0.895 123.222  0.00  0.00    +0.000 A 
ATOM     19  C   UNL     1      -8.908  -0.974 123.726  0.00  0.00    +0.000 A 
ATOM     20  N   UNL     1      -9.379  -0.071 124.609  0.00  0.00    +0.000 NA
ATOM     21  C   UNL     1      -8.531   0.912 125.025  0.00  0.00    +0.000 A 
BRANCH  19  22
ATOM     22  O   UNL     1      -9.811  -1.950 123.398  0.00  0.00    +0.000 OA
ATOM     23  C   UNL     1      -9.401  -3.295 123.620  0.00  0.00    +0.000 C 
ENDBRANCH  19  22
ENDBRANCH   1  16
BRANCH   1  24
ATOM     24  C   UNL     1      -6.621   3.485 124.411  0.00  0.00    +0.000 C 
BRANCH  24  25
ATOM     25  C   UNL     1      -6.067   3.629 123.019  0.00  0.00    +0.000 C 
BRANCH  25  27
ATOM     26  C   UNL     1      -5.027   4.553 121.198  0.00  0.00    +0.000 C 
ATOM     27  O   UNL     1      -5.276   4.729 122.614  0.00  0.00    +0.000 OA
ENDBRANCH  25  27
ENDBRANCH  24  25
ENDBRANCH   1  24
TORSDOF 7
ENDMDL
MODEL 5
REMARK VINA RESULT:      -6.6      5.204      7.365
REMARK  Name = CHEMBL1088766
REMARK  10 active torsions:
REMARK  status: ('A' for Active; 'I' for Inactive)
REMARK    1  A    between atoms: C_1  and  O_2
REMARK    2  A    between atoms: O_2  and  C_3
REMARK    3  A    between atoms: C_3  and  C_4
REMARK    4  A    between atoms: C_4  and  N_5
REMARK    5  A    between atoms: N_5  and  C_20
REMARK    6  A    between atoms: C_6  and  C_8
REMARK    7  A    between atoms: N_11  and  C_12
REMARK    8  A    between atoms: C_18  and  C_19
REMARK    9  A    between atoms: C_23  and  O_24
REMARK   10  A    between atoms: O_24  and  C_25
REMARK                            x       y       z     vdW  Elec       q    Type
REMARK                         _______ _______ _______ _____ _____    ______ ____
ROOT
ATOM      1  N   UNL     1      -8.210   0.471 125.770  0.00  0.00    +0.000 N 
ATOM      2  C   UNL     1      -7.666  -0.861 125.693  0.00  0.00    +0.000 C 
ATOM      3  O   UNL     1      -6.964  -1.205 124.753  0.00  0.00    +0.000 OA
ENDROOT
BRANCH   2   4
ATOM      4  C   UNL     1      -7.811  -1.827 126.799  0.00  0.00    +0.000 A 
ATOM      5  C   UNL     1      -8.668  -2.940 126.992  0.00  0.00    +0.000 A 
ATOM      6  N   UNL     1      -8.534  -3.510 128.189  0.00  0.00    +0.000 NA
ATOM      7  N   UNL     1      -7.482  -2.870 128.744  0.00  0.00    +0.000 N 
ATOM      8  C   UNL     1      -6.966  -1.904 127.904  0.00  0.00    +0.000 A 
ATOM      9  C   UNL     1      -5.664  -1.233 128.128  0.00  0.00    +0.000 C 
BRANCH   7  10
ATOM     10  C   UNL     1      -7.005  -3.285 130.003  0.00  0.00    +0.000 A 
ATOM     11  C   UNL     1      -6.057  -4.312 130.038  0.00  0.00    +0.000 A 
ATOM     12  C   UNL     1      -5.573  -4.755 131.263  0.00  0.00    +0.000 A 
ATOM     13  C   UNL     1      -6.007  -4.148 132.442  0.00  0.00    +0.000 A 
ATOM     14  C   UNL     1      -6.957  -3.123 132.404  0.00  0.00    +0.000 A 
ATOM     15  C   UNL     1      -7.465  -2.688 131.181  0.00  0.00    +0.000 A 
ENDBRANCH   7  10
ENDBRANCH   2   4
BRANCH   1  16
ATOM     16  C   UNL     1      -8.036   1.332 124.611  0.00  0.00    +0.000 A 
ATOM     17  C   UNL     1      -6.857   2.052 124.402  0.00  0.00    +0.000 A 
ATOM     18  C   UNL     1      -6.699   2.853 123.267  0.00  0.00    +0.000 A 
ATOM     19  C   UNL     1      -7.737   2.954 122.355  0.00  0.00    +0.000 A 
ATOM     20  N   UNL     1      -8.904   2.305 122.538  0.00  0.00    +0.000 NA
ATOM     21  C   UNL     1      -9.022   1.508 123.637  0.00  0.00    +0.000 A 
BRANCH  19  22
ATOM     22  O   UNL     1      -7.690   3.694 121.205  0.00  0.00    +0.000 OA
ATOM     23  C   UNL     1      -8.907   3.810 120.475  0.00  0.00    +0.000 C 
ENDBRANCH  19  22
ENDBRANCH   1  16
BRANCH   1  24
ATOM     24  C   UNL     1      -8.950   1.127 126.914  0.00  0.00    +0.000 C 
BRANCH  24  25
ATOM     25  C   UNL     1      -8.061   1.674 127.999  0.00  0.00    +0.000 C 
BRANCH  25  27
ATOM     26  C   UNL     1      -8.556   2.369 130.126  0.00  0.00    +0.000 C 
ATOM     27  O   UNL     1      -8.121   1.233 129.341  0.00  0.00    +0.000 OA
ENDBRANCH  25  27
ENDBRANCH  24  25
ENDBRANCH   1  24
TORSDOF 7
ENDMDL
MODEL 6
REMARK VINA RESULT:      -6.6      7.796      9.587
REMARK  Name = CHEMBL1088766
REMARK  10 active torsions:
REMARK  status: ('A' for Active; 'I' for Inactive)
REMARK    1  A    between atoms: C_1  and  O_2
REMARK    2  A    between atoms: O_2  and  C_3
REMARK    3  A    between atoms: C_3  and  C_4
REMARK    4  A    between atoms: C_4  and  N_5
REMARK    5  A    between atoms: N_5  and  C_20
REMARK    6  A    between atoms: C_6  and  C_8
REMARK    7  A    between atoms: N_11  and  C_12
REMARK    8  A    between atoms: C_18  and  C_19
REMARK    9  A    between atoms: C_23  and  O_24
REMARK   10  A    between atoms: O_24  and  C_25
REMARK                            x       y       z     vdW  Elec       q    Type
REMARK                         _______ _______ _______ _____ _____    ______ ____
ROOT
ATOM      1  N   UNL     1      -6.808  -3.131 130.842  0.00  0.00    +0.000 N 
ATOM      2  C   UNL     1      -7.684  -2.396 129.966  0.00  0.00    +0.000 C 
ATOM      3  O   UNL     1      -8.262  -1.388 130.347  0.00  0.00    +0.000 OA
ENDROOT
BRANCH   2   4
ATOM      4  C   UNL     1      -7.822  -2.736 128.537  0.00  0.00    +0.000 A 
ATOM      5  C   UNL     1      -8.744  -3.550 127.831  0.00  0.00    +0.000 A 
ATOM      6  N   UNL     1      -8.465  -3.662 126.533  0.00  0.00    +0.000 NA
ATOM      7  N   UNL     1      -7.440  -2.805 126.339  0.00  0.00    +0.000 N 
ATOM      8  C   UNL     1      -7.077  -2.165 127.508  0.00  0.00    +0.000 A 
ATOM      9  C   UNL     1      -6.175  -0.990 127.553  0.00  0.00    +0.000 C 
BRANCH   7  10
ATOM     10  C   UNL     1      -6.938  -2.608 125.037  0.00  0.00    +0.000 A 
ATOM     11  C   UNL     1      -7.712  -1.859 124.145  0.00  0.00    +0.000 A 
ATOM     12  C   UNL     1      -7.254  -1.654 122.849  0.00  0.00    +0.000 A 
ATOM     13  C   UNL     1      -6.013  -2.163 122.462  0.00  0.00    +0.000 A 
ATOM     14  C   UNL     1      -5.244  -2.913 123.356  0.00  0.00    +0.000 A 
ATOM     15  C   UNL     1      -5.706  -3.143 124.651  0.00  0.00    +0.000 A 
ENDBRANCH   7  10
ENDBRANCH   2   4
BRANCH   1  16
ATOM     16  C   UNL     1      -6.772  -2.731 132.240  0.00  0.00    +0.000 A 
ATOM     17  C   UNL     1      -7.630  -3.295 133.187  0.00  0.00    +0.000 A 
ATOM     18  C   UNL     1      -7.560  -2.917 134.532  0.00  0.00    +0.000 A 
ATOM     19  C   UNL     1      -6.647  -1.950 134.921  0.00  0.00    +0.000 A 
ATOM     20  N   UNL     1      -5.827  -1.355 134.032  0.00  0.00    +0.000 NA
ATOM     21  C   UNL     1      -5.895  -1.762 132.733  0.00  0.00    +0.000 A 
BRANCH  19  22
ATOM     22  O   UNL     1      -6.481  -1.513 136.207  0.00  0.00    +0.000 OA
ATOM     23  C   UNL     1      -6.991  -2.356 137.235  0.00  0.00    +0.000 C 
ENDBRANCH  19  22
ENDBRANCH   1  16
BRANCH   1  24
ATOM     24  C   UNL     1      -5.890  -4.286 130.512  0.00  0.00    +0.000 C 
BRANCH  24  25
ATOM     25  C   UNL     1      -4.563  -3.880 129.930  0.00  0.00    +0.000 C 
BRANCH  25  27
ATOM     26  C   UNL     1      -3.165  -2.111 130.341  0.00  0.00    +0.000 C 
ATOM     27  O   UNL     1      -3.465  -3.475 130.724  0.00  0.00    +0.000 OA
ENDBRANCH  25  27
ENDBRANCH  24  25
ENDBRANCH   1  24
TORSDOF 7
ENDMDL
MODEL 7
REMARK VINA RESULT:      -6.4      2.711      8.376
REMARK  Name = CHEMBL1088766
REMARK  10 active torsions:
REMARK  status: ('A' for Active; 'I' for Inactive)
REMARK    1  A    between atoms: C_1  and  O_2
REMARK    2  A    between atoms: O_2  and  C_3
REMARK    3  A    between atoms: C_3  and  C_4
REMARK    4  A    between atoms: C_4  and  N_5
REMARK    5  A    between atoms: N_5  and  C_20
REMARK    6  A    between atoms: C_6  and  C_8
REMARK    7  A    between atoms: N_11  and  C_12
REMARK    8  A    between atoms: C_18  and  C_19
REMARK    9  A    between atoms: C_23  and  O_24
REMARK   10  A    between atoms: O_24  and  C_25
REMARK                            x       y       z     vdW  Elec       q    Type
REMARK                         _______ _______ _______ _____ _____    ______ ____
ROOT
ATOM      1  N   UNL     1      -7.431   2.324 132.055  0.00  0.00    +0.000 N 
ATOM      2  C   UNL     1      -8.567   3.072 132.529  0.00  0.00    +0.000 C 
ATOM      3  O   UNL     1      -9.289   2.635 133.415  0.00  0.00    +0.000 OA
ENDROOT
BRANCH   2   4
ATOM      4  C   UNL     1      -8.838   4.450 132.075  0.00  0.00    +0.000 A 
ATOM      5  C   UNL     1      -8.133   5.668 132.239  0.00  0.00    +0.000 A 
ATOM      6  N   UNL     1      -8.772   6.722 131.735  0.00  0.00    +0.000 NA
ATOM      7  N   UNL     1      -9.840   6.191 131.103  0.00  0.00    +0.000 N 
ATOM      8  C   UNL     1      -9.871   4.815 131.215  0.00  0.00    +0.000 A 
ATOM      9  C   UNL     1     -10.763   3.947 130.410  0.00  0.00    +0.000 C 
BRANCH   7  10
ATOM     10  C   UNL     1     -10.705   7.032 130.376  0.00  0.00    +0.000 A 
ATOM     11  C   UNL     1     -10.223   7.602 129.194  0.00  0.00    +0.000 A 
ATOM     12  C   UNL     1     -11.045   8.447 128.457  0.00  0.00    +0.000 A 
ATOM     13  C   UNL     1     -12.352   8.689 128.882  0.00  0.00    +0.000 A 
ATOM     14  C   UNL     1     -12.830   8.120 130.066  0.00  0.00    +0.000 A 
ATOM     15  C   UNL     1     -12.005   7.290 130.824  0.00  0.00    +0.000 A 
ENDBRANCH   7  10
ENDBRANCH   2   4
BRANCH   1  16
ATOM     16  C   UNL     1      -7.276   0.963 132.544  0.00  0.00    +0.000 A 
ATOM     17  C   UNL     1      -6.342   0.641 133.532  0.00  0.00    +0.000 A 
ATOM     18  C   UNL     1      -6.227  -0.669 134.008  0.00  0.00    +0.000 A 
ATOM     19  C   UNL     1      -7.030  -1.662 133.472  0.00  0.00    +0.000 A 
ATOM     20  N   UNL     1      -7.918  -1.400 132.491  0.00  0.00    +0.000 NA
ATOM     21  C   UNL     1      -8.031  -0.110 132.065  0.00  0.00    +0.000 A 
BRANCH  19  22
ATOM     22  O   UNL     1      -7.014  -2.971 133.868  0.00  0.00    +0.000 OA
ATOM     23  C   UNL     1      -8.259  -3.522 134.288  0.00  0.00    +0.000 C 
ENDBRANCH  19  22
ENDBRANCH   1  16
BRANCH   1  24
ATOM     24  C   UNL     1      -6.342   2.759 131.101  0.00  0.00    +0.000 C 
BRANCH  24  25
ATOM     25  C   UNL     1      -6.596   2.403 129.661  0.00  0.00    +0.000 C 
BRANCH  25  27
ATOM     26  C   UNL     1      -7.559   4.073 128.422  0.00  0.00    +0.000 C 
ATOM     27  O   UNL     1      -7.783   2.755 128.978  0.00  0.00    +0.000 OA
ENDBRANCH  25  27
ENDBRANCH  24  25
ENDBRANCH   1  24
TORSDOF 7
ENDMDL
MODEL 8
REMARK VINA RESULT:      -6.4      1.849      2.321
REMARK  Name = CHEMBL1088766
REMARK  10 active torsions:
REMARK  status: ('A' for Active; 'I' for Inactive)
REMARK    1  A    between atoms: C_1  and  O_2
REMARK    2  A    between atoms: O_2  and  C_3
REMARK    3  A    between atoms: C_3  and  C_4
REMARK    4  A    between atoms: C_4  and  N_5
REMARK    5  A    between atoms: N_5  and  C_20
REMARK    6  A    between atoms: C_6  and  C_8
REMARK    7  A    between atoms: N_11  and  C_12
REMARK    8  A    between atoms: C_18  and  C_19
REMARK    9  A    between atoms: C_23  and  O_24
REMARK   10  A    between atoms: O_24  and  C_25
REMARK                            x       y       z     vdW  Elec       q    Type
REMARK                         _______ _______ _______ _____ _____    ______ ____
ROOT
ATOM      1  N   UNL     1      -9.129   5.635 130.935  0.00  0.00    +0.000 N 
ATOM      2  C   UNL     1      -9.095   4.334 130.317  0.00  0.00    +0.000 C 
ATOM      3  O   UNL     1      -9.790   4.076 129.345  0.00  0.00    +0.000 OA
ENDROOT
BRANCH   2   4
ATOM      4  C   UNL     1      -8.129   3.298 130.733  0.00  0.00    +0.000 A 
ATOM      5  C   UNL     1      -6.819   2.980 130.296  0.00  0.00    +0.000 A 
ATOM      6  N   UNL     1      -6.313   1.897 130.884  0.00  0.00    +0.000 NA
ATOM      7  N   UNL     1      -7.227   1.574 131.824  0.00  0.00    +0.000 N 
ATOM      8  C   UNL     1      -8.298   2.444 131.820  0.00  0.00    +0.000 A 
ATOM      9  C   UNL     1      -9.313   2.500 132.899  0.00  0.00    +0.000 C 
BRANCH   7  10
ATOM     10  C   UNL     1      -6.967   0.504 132.703  0.00  0.00    +0.000 A 
ATOM     11  C   UNL     1      -7.583  -0.724 132.440  0.00  0.00    +0.000 A 
ATOM     12  C   UNL     1      -7.359  -1.798 133.293  0.00  0.00    +0.000 A 
ATOM     13  C   UNL     1      -6.495  -1.654 134.380  0.00  0.00    +0.000 A 
ATOM     14  C   UNL     1      -5.884  -0.424 134.641  0.00  0.00    +0.000 A 
ATOM     15  C   UNL     1      -6.121   0.665 133.804  0.00  0.00    +0.000 A 
ENDBRANCH   7  10
ENDBRANCH   2   4
BRANCH   1  16
ATOM     16  C   UNL     1     -10.141   6.570 130.470  0.00  0.00    +0.000 A 
ATOM     17  C   UNL     1      -9.897   7.446 129.409  0.00  0.00    +0.000 A 
ATOM     18  C   UNL     1     -10.893   8.318 128.958  0.00  0.00    +0.000 A 
ATOM     19  C   UNL     1     -12.125   8.332 129.592  0.00  0.00    +0.000 A 
ATOM     20  N   UNL     1     -12.388   7.529 130.643  0.00  0.00    +0.000 NA
ATOM     21  C   UNL     1     -11.410   6.667 131.043  0.00  0.00    +0.000 A 
BRANCH  19  22
ATOM     22  O   UNL     1     -13.176   9.130 129.230  0.00  0.00    +0.000 OA
ATOM     23  C   UNL     1     -13.252  10.404 129.862  0.00  0.00    +0.000 C 
ENDBRANCH  19  22
ENDBRANCH   1  16
BRANCH   1  24
ATOM     24  C   UNL     1      -8.237   6.190 132.023  0.00  0.00    +0.000 C 
BRANCH  24  25
ATOM     25  C   UNL     1      -6.825   6.475 131.586  0.00  0.00    +0.000 C 
BRANCH  25  27
ATOM     26  C   UNL     1      -5.058   7.441 130.492  0.00  0.00    +0.000 C 
ATOM     27  O   UNL     1      -6.500   7.461 130.625  0.00  0.00    +0.000 OA
ENDBRANCH  25  27
ENDBRANCH  24  25
ENDBRANCH   1  24
TORSDOF 7
ENDMDL
MODEL 9
REMARK VINA RESULT:      -6.3      6.002      8.273
REMARK  Name = CHEMBL1088766
REMARK  10 active torsions:
REMARK  status: ('A' for Active; 'I' for Inactive)
REMARK    1  A    between atoms: C_1  and  O_2
REMARK    2  A    between atoms: O_2  and  C_3
REMARK    3  A    between atoms: C_3  and  C_4
REMARK    4  A    between atoms: C_4  and  N_5
REMARK    5  A    between atoms: N_5  and  C_20
REMARK    6  A    between atoms: C_6  and  C_8
REMARK    7  A    between atoms: N_11  and  C_12
REMARK    8  A    between atoms: C_18  and  C_19
REMARK    9  A    between atoms: C_23  and  O_24
REMARK   10  A    between atoms: O_24  and  C_25
REMARK                            x       y       z     vdW  Elec       q    Type
REMARK                         _______ _______ _______ _____ _____    ______ ____
ROOT
ATOM      1  N   UNL     1      -5.856   3.439 125.104  0.00  0.00    +0.000 N 
ATOM      2  C   UNL     1      -5.850   4.601 125.954  0.00  0.00    +0.000 C 
ATOM      3  O   UNL     1      -6.133   5.708 125.517  0.00  0.00    +0.000 OA
ENDROOT
BRANCH   2   4
ATOM      4  C   UNL     1      -5.640   4.500 127.412  0.00  0.00    +0.000 A 
ATOM      5  C   UNL     1      -6.519   4.228 128.489  0.00  0.00    +0.000 A 
ATOM      6  N   UNL     1      -5.935   4.312 129.683  0.00  0.00    +0.000 NA
ATOM      7  N   UNL     1      -4.627   4.497 129.400  0.00  0.00    +0.000 N 
ATOM      8  C   UNL     1      -4.397   4.534 128.039  0.00  0.00    +0.000 A 
ATOM      9  C   UNL     1      -3.046   4.457 127.434  0.00  0.00    +0.000 C 
BRANCH   7  10
ATOM     10  C   UNL     1      -3.691   4.547 130.451  0.00  0.00    +0.000 A 
ATOM     11  C   UNL     1      -3.694   3.503 131.381  0.00  0.00    +0.000 A 
ATOM     12  C   UNL     1      -2.792   3.525 132.438  0.00  0.00    +0.000 A 
ATOM     13  C   UNL     1      -1.868   4.567 132.541  0.00  0.00    +0.000 A 
ATOM     14  C   UNL     1      -1.870   5.611 131.611  0.00  0.00    +0.000 A 
ATOM     15  C   UNL     1      -2.787   5.608 130.561  0.00  0.00    +0.000 A 
ENDBRANCH   7  10
ENDBRANCH   2   4
BRANCH   1  16
ATOM     16  C   UNL     1      -6.042   3.654 123.678  0.00  0.00    +0.000 A 
ATOM     17  C   UNL     1      -7.171   3.180 123.005  0.00  0.00    +0.000 A 
ATOM     18  C   UNL     1      -7.344   3.422 121.639  0.00  0.00    +0.000 A 
ATOM     19  C   UNL     1      -6.370   4.116 120.941  0.00  0.00    +0.000 A 
ATOM     20  N   UNL     1      -5.249   4.559 121.544  0.00  0.00    +0.000 NA
ATOM     21  C   UNL     1      -5.118   4.335 122.883  0.00  0.00    +0.000 A 
BRANCH  19  22
ATOM     22  O   UNL     1      -6.439   4.422 119.609  0.00  0.00    +0.000 OA
ATOM     23  C   UNL     1      -5.644   5.518 119.168  0.00  0.00    +0.000 C 
ENDBRANCH  19  22
ENDBRANCH   1  16
BRANCH   1  24
ATOM     24  C   UNL     1      -5.700   1.984 125.487  0.00  0.00    +0.000 C 
BRANCH  24  25
ATOM     25  C   UNL     1      -6.947   1.348 126.039  0.00  0.00    +0.000 C 
BRANCH  25  27
ATOM     26  C   UNL     1      -6.913  -0.267 124.413  0.00  0.00    +0.000 C 
ATOM     27  O   UNL     1      -7.786   0.505 125.275  0.00  0.00    +0.000 OA
ENDBRANCH  25  27
ENDBRANCH  24  25
ENDBRANCH   1  24
TORSDOF 7
ENDMDL
