MODEL 1
REMARK VINA RESULT:     -12.5      0.000      0.000
REMARK  Name = CHEMBL282494
REMARK  7 active torsions:
REMARK  status: ('A' for Active; 'I' for Inactive)
REMARK    1  A    between atoms: C_2  and  C_3
REMARK    2  A    between atoms: C_3  and  N_4
REMARK    3  A    between atoms: C_6  and  C_7
REMARK    4  A    between atoms: N_15  and  C_16
REMARK    5  A    between atoms: C_16  and  C_17
REMARK    6  A    between atoms: C_21  and  C_22
REMARK    7  A    between atoms: C_27  and  N_28
REMARK                            x       y       z     vdW  Elec       q    Type
REMARK                         _______ _______ _______ _____ _____    ______ ____
ROOT
ATOM      1  C   UNL     1      -6.936   0.859 126.661  0.00  0.00    +0.000 A 
ATOM      2  C   UNL     1      -5.750   0.606 125.981  0.00  0.00    +0.000 A 
ATOM      3  C   UNL     1      -4.923   1.694 126.329  0.00  0.00    +0.000 A 
ATOM      4  C   UNL     1      -4.517   2.246 127.577  0.00  0.00    +0.000 A 
ATOM      5  C   UNL     1      -4.024   3.551 127.742  0.00  0.00    +0.000 A 
ATOM      6  C   UNL     1      -3.919   4.319 126.598  0.00  0.00    +0.000 A 
ATOM      7  C   UNL     1      -4.700   3.902 125.483  0.00  0.00    +0.000 A 
ATOM      8  C   UNL     1      -5.546   2.717 125.624  0.00  0.00    +0.000 A 
ATOM      9  O   UNL     1      -6.959   2.386 126.419  0.00  0.00    +0.000 OA
ENDROOT
BRANCH   5  10
ATOM     10  C   UNL     1      -3.821   4.153 129.095  0.00  0.00    +0.000 C 
ATOM     11  O   UNL     1      -2.689   4.501 129.426  0.00  0.00    +0.000 OA
ATOM     12  N   UNL     1      -4.970   4.497 129.836  0.00  0.00    +0.000 N 
ATOM     13  C   UNL     1      -5.240   5.914 130.058  0.00  0.00    +0.000 C 
ATOM     14  C   UNL     1      -5.684   6.184 131.478  0.00  0.00    +0.000 C 
ATOM     15  C   UNL     1      -7.297   5.568 131.644  0.00  0.00    +0.000 C 
ATOM     16  C   UNL     1      -6.665   3.923 131.526  0.00  0.00    +0.000 C 
ATOM     17  C   UNL     1      -6.083   3.597 130.165  0.00  0.00    +0.000 C 
BRANCH  15  18
ATOM     18  N   UNL     1      -8.608   6.724 130.989  0.00  0.00    +0.000 N 
ATOM     19  C   UNL     1      -9.305   6.202 132.158  0.00  0.00    +0.000 C 
ATOM     20  O   UNL     1      -8.933   6.206 133.363  0.00  0.00    +0.000 OA
ATOM     21  O   UNL     1     -10.376   5.464 131.909  0.00  0.00    +0.000 OA
ATOM     22  C   UNL     1     -11.295   6.483 132.032  0.00  0.00    +0.000 C 
ATOM     23  C   UNL     1     -11.326   6.677 130.595  0.00  0.00    +0.000 A 
ATOM     24  C   UNL     1     -12.195   6.042 129.667  0.00  0.00    +0.000 A 
ATOM     25  C   UNL     1     -12.538   6.563 128.423  0.00  0.00    +0.000 A 
ATOM     26  C   UNL     1     -12.117   7.841 128.263  0.00  0.00    +0.000 A 
ATOM     27  F   UNL     1     -12.945   8.634 127.516  0.00  0.00    +0.000 F 
ATOM     28  C   UNL     1     -10.936   8.267 129.163  0.00  0.00    +0.000 A 
ATOM     29  C   UNL     1     -10.176   7.214 130.107  0.00  0.00    +0.000 A 
ENDBRANCH  15  18
ENDBRANCH   5  10
BRANCH   1  30
ATOM     30  C   UNL     1      -8.074  -0.244 126.799  0.00  0.00    +0.000 C 
BRANCH  30  33
ATOM     31  O   UNL     1      -8.327  -3.770 127.771  0.00  0.00    +0.000 OA
ATOM     32  C   UNL     1      -8.459  -2.787 127.032  0.00  0.00    +0.000 C 
ATOM     33  N   UNL     1      -7.971  -1.544 127.477  0.00  0.00    +0.000 N 
ATOM     34  H   UNL     1      -7.576  -1.604 128.408  0.00  0.00    +0.000 HD
BRANCH  32  35
ATOM     35  C   UNL     1      -9.113  -2.946 125.626  0.00  0.00    +0.000 C 
BRANCH  35  36
ATOM     36  N   UNL     1      -8.156  -2.824 124.491  0.00  0.00    +0.000 N 
ATOM     37  C   UNL     1      -6.971  -3.555 124.482  0.00  0.00    +0.000 A 
ATOM     38  C   UNL     1      -5.949  -3.244 123.660  0.00  0.00    +0.000 A 
ATOM     39  C   UNL     1      -6.158  -2.243 122.629  0.00  0.00    +0.000 A 
ATOM     40  C   UNL     1      -7.349  -1.646 122.498  0.00  0.00    +0.000 A 
ATOM     41  C   UNL     1      -8.389  -1.814 123.553  0.00  0.00    +0.000 A 
ATOM     42  O   UNL     1      -9.349  -1.049 123.577  0.00  0.00    +0.000 OA
BRANCH  38  43
ATOM     43  C   UNL     1      -4.592  -3.883 123.738  0.00  0.00    +0.000 C 
ATOM     44  F   UNL     1      -3.606  -3.068 123.286  0.00  0.00    +0.000 F 
ATOM     45  F   UNL     1      -4.273  -4.210 125.018  0.00  0.00    +0.000 F 
ATOM     46  F   UNL     1      -4.520  -5.032 123.017  0.00  0.00    +0.000 F 
ENDBRANCH  38  43
ENDBRANCH  35  36
ENDBRANCH  32  35
ENDBRANCH  30  33
ENDBRANCH   1  30
TORSDOF 7
ENDMDL
MODEL 2
REMARK VINA RESULT:     -12.2      4.075      8.227
REMARK  Name = CHEMBL282494
REMARK  7 active torsions:
REMARK  status: ('A' for Active; 'I' for Inactive)
REMARK    1  A    between atoms: C_2  and  C_3
REMARK    2  A    between atoms: C_3  and  N_4
REMARK    3  A    between atoms: C_6  and  C_7
REMARK    4  A    between atoms: N_15  and  C_16
REMARK    5  A    between atoms: C_16  and  C_17
REMARK    6  A    between atoms: C_21  and  C_22
REMARK    7  A    between atoms: C_27  and  N_28
REMARK                            x       y       z     vdW  Elec       q    Type
REMARK                         _______ _______ _______ _____ _____    ______ ____
ROOT
ATOM      1  C   UNL     1      -5.392   2.771 130.390  0.00  0.00    +0.000 A 
ATOM      2  C   UNL     1      -4.454   3.793 130.468  0.00  0.00    +0.000 A 
ATOM      3  C   UNL     1      -4.291   4.205 129.129  0.00  0.00    +0.000 A 
ATOM      4  C   UNL     1      -5.206   4.626 128.123  0.00  0.00    +0.000 A 
ATOM      5  C   UNL     1      -4.927   4.616 126.746  0.00  0.00    +0.000 A 
ATOM      6  C   UNL     1      -3.669   4.182 126.375  0.00  0.00    +0.000 A 
ATOM      7  C   UNL     1      -2.963   3.399 127.332  0.00  0.00    +0.000 A 
ATOM      8  C   UNL     1      -3.606   3.110 128.613  0.00  0.00    +0.000 A 
ATOM      9  O   UNL     1      -4.846   2.126 129.095  0.00  0.00    +0.000 OA
ENDROOT
BRANCH   5  10
ATOM     10  C   UNL     1      -5.992   4.857 125.725  0.00  0.00    +0.000 C 
ATOM     11  O   UNL     1      -6.056   5.959 125.183  0.00  0.00    +0.000 OA
ATOM     12  N   UNL     1      -6.727   3.743 125.271  0.00  0.00    +0.000 N 
ATOM     13  C   UNL     1      -6.531   3.313 123.890  0.00  0.00    +0.000 C 
ATOM     14  C   UNL     1      -7.841   2.963 123.221  0.00  0.00    +0.000 C 
ATOM     15  C   UNL     1      -8.389   1.464 123.900  0.00  0.00    +0.000 C 
ATOM     16  C   UNL     1      -8.708   2.291 125.428  0.00  0.00    +0.000 C 
ATOM     17  C   UNL     1      -7.454   2.788 126.118  0.00  0.00    +0.000 C 
BRANCH  15  18
ATOM     18  N   UNL     1      -7.576  -0.038 123.146  0.00  0.00    +0.000 N 
ATOM     19  C   UNL     1      -8.925  -0.558 123.334  0.00  0.00    +0.000 C 
ATOM     20  O   UNL     1     -10.016  -0.088 122.910  0.00  0.00    +0.000 OA
ATOM     21  O   UNL     1      -9.046  -1.541 124.213  0.00  0.00    +0.000 OA
ATOM     22  C   UNL     1      -8.962  -2.572 123.302  0.00  0.00    +0.000 C 
ATOM     23  C   UNL     1      -7.550  -2.750 123.580  0.00  0.00    +0.000 A 
ATOM     24  C   UNL     1      -6.974  -3.605 124.558  0.00  0.00    +0.000 A 
ATOM     25  C   UNL     1      -5.682  -4.118 124.497  0.00  0.00    +0.000 A 
ATOM     26  C   UNL     1      -5.088  -3.882 123.301  0.00  0.00    +0.000 A 
ATOM     27  F   UNL     1      -4.241  -4.867 122.872  0.00  0.00    +0.000 F 
ATOM     28  C   UNL     1      -5.663  -2.694 122.498  0.00  0.00    +0.000 A 
ATOM     29  C   UNL     1      -6.785  -1.725 123.117  0.00  0.00    +0.000 A 
ENDBRANCH  15  18
ENDBRANCH   5  10
BRANCH   1  30
ATOM     30  C   UNL     1      -6.105   2.187 131.687  0.00  0.00    +0.000 C 
BRANCH  30  33
ATOM     31  O   UNL     1      -9.293   0.390 131.902  0.00  0.00    +0.000 OA
ATOM     32  C   UNL     1      -8.065   0.512 131.829  0.00  0.00    +0.000 C 
ATOM     33  N   UNL     1      -7.518   1.808 131.828  0.00  0.00    +0.000 N 
ATOM     34  H   UNL     1      -8.236   2.522 131.861  0.00  0.00    +0.000 HD
BRANCH  32  35
ATOM     35  C   UNL     1      -7.153  -0.753 131.784  0.00  0.00    +0.000 C 
BRANCH  35  36
ATOM     36  N   UNL     1      -6.947  -1.308 130.417  0.00  0.00    +0.000 N 
ATOM     37  C   UNL     1      -7.969  -1.997 129.770  0.00  0.00    +0.000 A 
ATOM     38  C   UNL     1      -7.733  -2.777 128.697  0.00  0.00    +0.000 A 
ATOM     39  C   UNL     1      -6.416  -2.751 128.087  0.00  0.00    +0.000 A 
ATOM     40  C   UNL     1      -5.457  -1.960 128.583  0.00  0.00    +0.000 A 
ATOM     41  C   UNL     1      -5.648  -1.292 129.902  0.00  0.00    +0.000 A 
ATOM     42  O   UNL     1      -4.675  -0.815 130.479  0.00  0.00    +0.000 OA
BRANCH  38  43
ATOM     43  C   UNL     1      -8.764  -3.677 128.078  0.00  0.00    +0.000 C 
ATOM     44  F   UNL     1      -9.808  -3.921 128.910  0.00  0.00    +0.000 F 
ATOM     45  F   UNL     1      -9.284  -3.128 126.948  0.00  0.00    +0.000 F 
ATOM     46  F   UNL     1      -8.250  -4.883 127.720  0.00  0.00    +0.000 F 
ENDBRANCH  38  43
ENDBRANCH  35  36
ENDBRANCH  32  35
ENDBRANCH  30  33
ENDBRANCH   1  30
TORSDOF 7
ENDMDL
MODEL 3
REMARK VINA RESULT:     -12.1      2.157     10.179
REMARK  Name = CHEMBL282494
REMARK  7 active torsions:
REMARK  status: ('A' for Active; 'I' for Inactive)
REMARK    1  A    between atoms: C_2  and  C_3
REMARK    2  A    between atoms: C_3  and  N_4
REMARK    3  A    between atoms: C_6  and  C_7
REMARK    4  A    between atoms: N_15  and  C_16
REMARK    5  A    between atoms: C_16  and  C_17
REMARK    6  A    between atoms: C_21  and  C_22
REMARK    7  A    between atoms: C_27  and  N_28
REMARK                            x       y       z     vdW  Elec       q    Type
REMARK                         _______ _______ _______ _____ _____    ______ ____
ROOT
ATOM      1  C   UNL     1      -6.351   3.307 130.221  0.00  0.00    +0.000 A 
ATOM      2  C   UNL     1      -5.327   4.233 130.380  0.00  0.00    +0.000 A 
ATOM      3  C   UNL     1      -4.915   4.508 129.059  0.00  0.00    +0.000 A 
ATOM      4  C   UNL     1      -5.611   4.931 127.892  0.00  0.00    +0.000 A 
ATOM      5  C   UNL     1      -5.127   4.774 126.583  0.00  0.00    +0.000 A 
ATOM      6  C   UNL     1      -3.883   4.185 126.451  0.00  0.00    +0.000 A 
ATOM      7  C   UNL     1      -3.426   3.421 127.562  0.00  0.00    +0.000 A 
ATOM      8  C   UNL     1      -4.287   3.310 128.739  0.00  0.00    +0.000 A 
ATOM      9  O   UNL     1      -5.690   2.501 129.080  0.00  0.00    +0.000 OA
ENDROOT
BRANCH   5  10
ATOM     10  C   UNL     1      -5.987   5.031 125.387  0.00  0.00    +0.000 C 
ATOM     11  O   UNL     1      -5.869   6.100 124.791  0.00  0.00    +0.000 OA
ATOM     12  N   UNL     1      -6.729   3.950 124.871  0.00  0.00    +0.000 N 
ATOM     13  C   UNL     1      -6.348   3.423 123.565  0.00  0.00    +0.000 C 
ATOM     14  C   UNL     1      -7.557   3.133 122.703  0.00  0.00    +0.000 C 
ATOM     15  C   UNL     1      -8.332   1.724 123.353  0.00  0.00    +0.000 C 
ATOM     16  C   UNL     1      -8.825   2.663 124.765  0.00  0.00    +0.000 C 
ATOM     17  C   UNL     1      -7.662   3.106 125.629  0.00  0.00    +0.000 C 
BRANCH  15  18
ATOM     18  N   UNL     1      -7.536   0.122 122.817  0.00  0.00    +0.000 N 
ATOM     19  C   UNL     1      -8.825  -0.386 123.272  0.00  0.00    +0.000 C 
ATOM     20  O   UNL     1      -9.981  -0.042 122.903  0.00  0.00    +0.000 OA
ATOM     21  O   UNL     1      -8.791  -1.172 124.337  0.00  0.00    +0.000 OA
ATOM     22  C   UNL     1      -8.762  -2.364 123.646  0.00  0.00    +0.000 C 
ATOM     23  C   UNL     1      -7.319  -2.443 123.775  0.00  0.00    +0.000 A 
ATOM     24  C   UNL     1      -6.589  -3.065 124.824  0.00  0.00    +0.000 A 
ATOM     25  C   UNL     1      -5.288  -3.544 124.704  0.00  0.00    +0.000 A 
ATOM     26  C   UNL     1      -4.851  -3.541 123.421  0.00  0.00    +0.000 A 
ATOM     27  F   UNL     1      -4.011  -4.570 123.094  0.00  0.00    +0.000 F 
ATOM     28  C   UNL     1      -5.577  -2.558 122.476  0.00  0.00    +0.000 A 
ATOM     29  C   UNL     1      -6.667  -1.514 123.025  0.00  0.00    +0.000 A 
ENDBRANCH  15  18
ENDBRANCH   5  10
BRANCH   1  30
ATOM     30  C   UNL     1      -7.317   2.912 131.423  0.00  0.00    +0.000 C 
BRANCH  30  33
ATOM     31  O   UNL     1     -10.963   3.076 131.081  0.00  0.00    +0.000 OA
ATOM     32  C   UNL     1      -9.803   3.501 131.045  0.00  0.00    +0.000 C 
ATOM     33  N   UNL     1      -8.754   2.612 131.344  0.00  0.00    +0.000 N 
ATOM     34  H   UNL     1      -9.097   1.691 131.592  0.00  0.00    +0.000 HD
BRANCH  32  35
ATOM     35  C   UNL     1      -9.521   4.978 130.634  0.00  0.00    +0.000 C 
BRANCH  35  36
ATOM     36  N   UNL     1     -10.744   5.816 130.494  0.00  0.00    +0.000 N 
ATOM     37  C   UNL     1     -11.250   6.129 129.235  0.00  0.00    +0.000 A 
ATOM     38  C   UNL     1     -12.139   7.125 129.051  0.00  0.00    +0.000 A 
ATOM     39  C   UNL     1     -12.727   7.763 130.215  0.00  0.00    +0.000 A 
ATOM     40  C   UNL     1     -12.391   7.362 131.448  0.00  0.00    +0.000 A 
ATOM     41  C   UNL     1     -11.237   6.438 131.645  0.00  0.00    +0.000 A 
ATOM     42  O   UNL     1     -10.758   6.307 132.767  0.00  0.00    +0.000 OA
BRANCH  38  43
ATOM     43  C   UNL     1     -12.574   7.615 127.700  0.00  0.00    +0.000 C 
ATOM     44  F   UNL     1     -13.703   8.366 127.758  0.00  0.00    +0.000 F 
ATOM     45  F   UNL     1     -11.618   8.391 127.125  0.00  0.00    +0.000 F 
ATOM     46  F   UNL     1     -12.818   6.597 126.835  0.00  0.00    +0.000 F 
ENDBRANCH  38  43
ENDBRANCH  35  36
ENDBRANCH  32  35
ENDBRANCH  30  33
ENDBRANCH   1  30
TORSDOF 7
ENDMDL
MODEL 4
REMARK VINA RESULT:     -12.0      3.972      5.202
REMARK  Name = CHEMBL282494
REMARK  7 active torsions:
REMARK  status: ('A' for Active; 'I' for Inactive)
REMARK    1  A    between atoms: C_2  and  C_3
REMARK    2  A    between atoms: C_3  and  N_4
REMARK    3  A    between atoms: C_6  and  C_7
REMARK    4  A    between atoms: N_15  and  C_16
REMARK    5  A    between atoms: C_16  and  C_17
REMARK    6  A    between atoms: C_21  and  C_22
REMARK    7  A    between atoms: C_27  and  N_28
REMARK                            x       y       z     vdW  Elec       q    Type
REMARK                         _______ _______ _______ _____ _____    ______ ____
ROOT
ATOM      1  C   UNL     1      -3.403   4.989 127.889  0.00  0.00    +0.000 A 
ATOM      2  C   UNL     1      -2.317   5.834 128.088  0.00  0.00    +0.000 A 
ATOM      3  C   UNL     1      -2.549   6.385 129.366  0.00  0.00    +0.000 A 
ATOM      4  C   UNL     1      -2.799   5.807 130.643  0.00  0.00    +0.000 A 
ATOM      5  C   UNL     1      -3.395   6.490 131.716  0.00  0.00    +0.000 A 
ATOM      6  C   UNL     1      -3.732   7.812 131.495  0.00  0.00    +0.000 A 
ATOM      7  C   UNL     1      -3.853   8.214 130.135  0.00  0.00    +0.000 A 
ATOM      8  C   UNL     1      -3.624   7.220 129.087  0.00  0.00    +0.000 A 
ATOM      9  O   UNL     1      -4.469   5.917 128.516  0.00  0.00    +0.000 OA
ENDROOT
BRANCH   5  10
ATOM     10  C   UNL     1      -3.836   5.779 132.955  0.00  0.00    +0.000 C 
ATOM     11  O   UNL     1      -3.204   5.955 133.996  0.00  0.00    +0.000 OA
ATOM     12  N   UNL     1      -5.082   5.122 132.924  0.00  0.00    +0.000 N 
ATOM     13  C   UNL     1      -6.162   5.667 133.738  0.00  0.00    +0.000 C 
ATOM     14  C   UNL     1      -6.934   4.577 134.449  0.00  0.00    +0.000 C 
ATOM     15  C   UNL     1      -7.881   3.748 133.256  0.00  0.00    +0.000 C 
ATOM     16  C   UNL     1      -6.399   3.072 132.570  0.00  0.00    +0.000 C 
ATOM     17  C   UNL     1      -5.499   4.115 131.939  0.00  0.00    +0.000 C 
BRANCH  15  18
ATOM     18  N   UNL     1      -9.472   4.625 132.825  0.00  0.00    +0.000 N 
ATOM     19  C   UNL     1      -9.600   3.453 131.968  0.00  0.00    +0.000 C 
ATOM     20  O   UNL     1      -9.559   2.234 132.291  0.00  0.00    +0.000 OA
ATOM     21  O   UNL     1      -9.568   3.685 130.664  0.00  0.00    +0.000 OA
ATOM     22  C   UNL     1     -10.933   3.748 130.488  0.00  0.00    +0.000 C 
ATOM     23  C   UNL     1     -10.911   5.196 130.556  0.00  0.00    +0.000 A 
ATOM     24  C   UNL     1     -10.756   6.100 129.469  0.00  0.00    +0.000 A 
ATOM     25  C   UNL     1     -11.203   7.418 129.468  0.00  0.00    +0.000 A 
ATOM     26  C   UNL     1     -11.984   7.700 130.539  0.00  0.00    +0.000 A 
ATOM     27  F   UNL     1     -12.994   8.591 130.298  0.00  0.00    +0.000 F 
ATOM     28  C   UNL     1     -11.789   6.779 131.764  0.00  0.00    +0.000 A 
ATOM     29  C   UNL     1     -10.633   5.665 131.802  0.00  0.00    +0.000 A 
ENDBRANCH  15  18
ENDBRANCH   5  10
BRANCH   1  30
ATOM     30  C   UNL     1      -3.435   3.932 126.701  0.00  0.00    +0.000 C 
BRANCH  30  33
ATOM     31  O   UNL     1      -5.711   1.060 126.581  0.00  0.00    +0.000 OA
ATOM     32  C   UNL     1      -5.373   2.243 126.457  0.00  0.00    +0.000 C 
ATOM     33  N   UNL     1      -4.036   2.591 126.723  0.00  0.00    +0.000 N 
ATOM     34  H   UNL     1      -3.491   1.793 127.027  0.00  0.00    +0.000 HD
BRANCH  32  35
ATOM     35  C   UNL     1      -6.407   3.306 125.973  0.00  0.00    +0.000 C 
BRANCH  35  36
ATOM     36  N   UNL     1      -6.786   3.180 124.538  0.00  0.00    +0.000 N 
ATOM     37  C   UNL     1      -5.867   3.475 123.534  0.00  0.00    +0.000 A 
ATOM     38  C   UNL     1      -6.249   3.684 122.258  0.00  0.00    +0.000 A 
ATOM     39  C   UNL     1      -7.625   3.411 121.885  0.00  0.00    +0.000 A 
ATOM     40  C   UNL     1      -8.495   2.954 122.795  0.00  0.00    +0.000 A 
ATOM     41  C   UNL     1      -8.133   2.958 124.241  0.00  0.00    +0.000 A 
ATOM     42  O   UNL     1      -9.017   2.819 125.081  0.00  0.00    +0.000 OA
BRANCH  38  43
ATOM     43  C   UNL     1      -5.326   4.178 121.182  0.00  0.00    +0.000 C 
ATOM     44  F   UNL     1      -4.401   5.053 121.652  0.00  0.00    +0.000 F 
ATOM     45  F   UNL     1      -4.640   3.154 120.610  0.00  0.00    +0.000 F 
ATOM     46  F   UNL     1      -5.992   4.805 120.178  0.00  0.00    +0.000 F 
ENDBRANCH  38  43
ENDBRANCH  35  36
ENDBRANCH  32  35
ENDBRANCH  30  33
ENDBRANCH   1  30
TORSDOF 7
ENDMDL
MODEL 5
REMARK VINA RESULT:     -11.9      4.129      8.226
REMARK  Name = CHEMBL282494
REMARK  7 active torsions:
REMARK  status: ('A' for Active; 'I' for Inactive)
REMARK    1  A    between atoms: C_2  and  C_3
REMARK    2  A    between atoms: C_3  and  N_4
REMARK    3  A    between atoms: C_6  and  C_7
REMARK    4  A    between atoms: N_15  and  C_16
REMARK    5  A    between atoms: C_16  and  C_17
REMARK    6  A    between atoms: C_21  and  C_22
REMARK    7  A    between atoms: C_27  and  N_28
REMARK                            x       y       z     vdW  Elec       q    Type
REMARK                         _______ _______ _______ _____ _____    ______ ____
ROOT
ATOM      1  C   UNL     1      -5.123   3.062 130.359  0.00  0.00    +0.000 A 
ATOM      2  C   UNL     1      -4.171   4.075 130.342  0.00  0.00    +0.000 A 
ATOM      3  C   UNL     1      -4.079   4.426 128.978  0.00  0.00    +0.000 A 
ATOM      4  C   UNL     1      -5.044   4.816 128.007  0.00  0.00    +0.000 A 
ATOM      5  C   UNL     1      -4.843   4.743 126.619  0.00  0.00    +0.000 A 
ATOM      6  C   UNL     1      -3.612   4.277 126.198  0.00  0.00    +0.000 A 
ATOM      7  C   UNL     1      -2.862   3.527 127.148  0.00  0.00    +0.000 A 
ATOM      8  C   UNL     1      -3.436   3.302 128.474  0.00  0.00    +0.000 A 
ATOM      9  O   UNL     1      -4.658   2.355 129.066  0.00  0.00    +0.000 OA
ENDROOT
BRANCH   5  10
ATOM     10  C   UNL     1      -5.960   4.954 125.648  0.00  0.00    +0.000 C 
ATOM     11  O   UNL     1      -6.070   6.050 125.099  0.00  0.00    +0.000 OA
ATOM     12  N   UNL     1      -6.696   3.823 125.242  0.00  0.00    +0.000 N 
ATOM     13  C   UNL     1      -6.560   3.381 123.858  0.00  0.00    +0.000 C 
ATOM     14  C   UNL     1      -7.895   3.002 123.257  0.00  0.00    +0.000 C 
ATOM     15  C   UNL     1      -8.382   1.501 123.978  0.00  0.00    +0.000 C 
ATOM     16  C   UNL     1      -8.641   2.339 125.511  0.00  0.00    +0.000 C 
ATOM     17  C   UNL     1      -7.364   2.865 126.133  0.00  0.00    +0.000 C 
BRANCH  15  18
ATOM     18  N   UNL     1      -7.580   0.005 123.200  0.00  0.00    +0.000 N 
ATOM     19  C   UNL     1      -8.929  -0.514 123.395  0.00  0.00    +0.000 C 
ATOM     20  O   UNL     1     -10.022  -0.036 122.986  0.00  0.00    +0.000 OA
ATOM     21  O   UNL     1      -9.045  -1.506 124.265  0.00  0.00    +0.000 OA
ATOM     22  C   UNL     1      -8.973  -2.526 123.341  0.00  0.00    +0.000 C 
ATOM     23  C   UNL     1      -7.558  -2.711 123.605  0.00  0.00    +0.000 A 
ATOM     24  C   UNL     1      -6.976  -3.579 124.569  0.00  0.00    +0.000 A 
ATOM     25  C   UNL     1      -5.686  -4.095 124.490  0.00  0.00    +0.000 A 
ATOM     26  C   UNL     1      -5.102  -3.847 123.292  0.00  0.00    +0.000 A 
ATOM     27  F   UNL     1      -4.262  -4.831 122.845  0.00  0.00    +0.000 F 
ATOM     28  C   UNL     1      -5.681  -2.649 122.507  0.00  0.00    +0.000 A 
ATOM     29  C   UNL     1      -6.794  -1.684 123.146  0.00  0.00    +0.000 A 
ENDBRANCH  15  18
ENDBRANCH   5  10
BRANCH   1  30
ATOM     30  C   UNL     1      -5.769   2.544 131.718  0.00  0.00    +0.000 C 
BRANCH  30  33
ATOM     31  O   UNL     1      -5.116  -0.611 133.468  0.00  0.00    +0.000 OA
ATOM     32  C   UNL     1      -5.619   0.125 132.612  0.00  0.00    +0.000 C 
ATOM     33  N   UNL     1      -5.254   1.484 132.597  0.00  0.00    +0.000 N 
ATOM     34  H   UNL     1      -4.610   1.711 133.345  0.00  0.00    +0.000 HD
BRANCH  32  35
ATOM     35  C   UNL     1      -6.603  -0.462 131.553  0.00  0.00    +0.000 C 
BRANCH  35  36
ATOM     36  N   UNL     1      -5.932  -1.131 130.404  0.00  0.00    +0.000 N 
ATOM     37  C   UNL     1      -5.816  -0.484 129.176  0.00  0.00    +0.000 A 
ATOM     38  C   UNL     1      -5.517  -1.152 128.045  0.00  0.00    +0.000 A 
ATOM     39  C   UNL     1      -5.123  -2.546 128.137  0.00  0.00    +0.000 A 
ATOM     40  C   UNL     1      -5.054  -3.152 129.329  0.00  0.00    +0.000 A 
ATOM     41  C   UNL     1      -5.616  -2.486 130.538  0.00  0.00    +0.000 A 
ATOM     42  O   UNL     1      -5.812  -3.149 131.552  0.00  0.00    +0.000 OA
BRANCH  38  43
ATOM     43  C   UNL     1      -5.557  -0.534 126.676  0.00  0.00    +0.000 C 
ATOM     44  F   UNL     1      -4.875  -1.262 125.757  0.00  0.00    +0.000 F 
ATOM     45  F   UNL     1      -6.833  -0.424 126.222  0.00  0.00    +0.000 F 
ATOM     46  F   UNL     1      -5.032   0.719 126.660  0.00  0.00    +0.000 F 
ENDBRANCH  38  43
ENDBRANCH  35  36
ENDBRANCH  32  35
ENDBRANCH  30  33
ENDBRANCH   1  30
TORSDOF 7
ENDMDL
MODEL 6
REMARK VINA RESULT:     -11.8      1.583      2.084
REMARK  Name = CHEMBL282494
REMARK  7 active torsions:
REMARK  status: ('A' for Active; 'I' for Inactive)
REMARK    1  A    between atoms: C_2  and  C_3
REMARK    2  A    between atoms: C_3  and  N_4
REMARK    3  A    between atoms: C_6  and  C_7
REMARK    4  A    between atoms: N_15  and  C_16
REMARK    5  A    between atoms: C_16  and  C_17
REMARK    6  A    between atoms: C_21  and  C_22
REMARK    7  A    between atoms: C_27  and  N_28
REMARK                            x       y       z     vdW  Elec       q    Type
REMARK                         _______ _______ _______ _____ _____    ______ ____
ROOT
ATOM      1  C   UNL     1      -6.415   2.130 126.518  0.00  0.00    +0.000 A 
ATOM      2  C   UNL     1      -5.216   1.475 126.263  0.00  0.00    +0.000 A 
ATOM      3  C   UNL     1      -4.265   2.216 126.994  0.00  0.00    +0.000 A 
ATOM      4  C   UNL     1      -4.180   2.612 128.359  0.00  0.00    +0.000 A 
ATOM      5  C   UNL     1      -3.383   3.670 128.827  0.00  0.00    +0.000 A 
ATOM      6  C   UNL     1      -2.628   4.338 127.883  0.00  0.00    +0.000 A 
ATOM      7  C   UNL     1      -3.044   4.199 126.528  0.00  0.00    +0.000 A 
ATOM      8  C   UNL     1      -4.220   3.380 126.237  0.00  0.00    +0.000 A 
ATOM      9  O   UNL     1      -5.850   3.568 126.455  0.00  0.00    +0.000 OA
ENDROOT
BRANCH   5  10
ATOM     10  C   UNL     1      -3.499   4.185 130.226  0.00  0.00    +0.000 C 
ATOM     11  O   UNL     1      -2.475   4.512 130.824  0.00  0.00    +0.000 OA
ATOM     12  N   UNL     1      -4.789   4.481 130.710  0.00  0.00    +0.000 N 
ATOM     13  C   UNL     1      -5.122   5.880 130.952  0.00  0.00    +0.000 C 
ATOM     14  C   UNL     1      -5.878   6.060 132.250  0.00  0.00    +0.000 C 
ATOM     15  C   UNL     1      -7.478   5.434 132.010  0.00  0.00    +0.000 C 
ATOM     16  C   UNL     1      -6.811   3.800 131.937  0.00  0.00    +0.000 C 
ATOM     17  C   UNL     1      -5.935   3.562 130.724  0.00  0.00    +0.000 C 
BRANCH  15  18
ATOM     18  N   UNL     1      -8.625   6.629 131.150  0.00  0.00    +0.000 N 
ATOM     19  C   UNL     1      -9.472   6.243 132.272  0.00  0.00    +0.000 C 
ATOM     20  O   UNL     1      -9.220   6.309 133.507  0.00  0.00    +0.000 OA
ATOM     21  O   UNL     1     -10.567   5.566 131.963  0.00  0.00    +0.000 OA
ATOM     22  C   UNL     1     -11.412   6.654 131.925  0.00  0.00    +0.000 C 
ATOM     23  C   UNL     1     -11.287   6.745 130.482  0.00  0.00    +0.000 A 
ATOM     24  C   UNL     1     -12.108   6.107 129.513  0.00  0.00    +0.000 A 
ATOM     25  C   UNL     1     -12.287   6.558 128.209  0.00  0.00    +0.000 A 
ATOM     26  C   UNL     1     -11.754   7.789 128.010  0.00  0.00    +0.000 A 
ATOM     27  F   UNL     1     -12.442   8.581 127.132  0.00  0.00    +0.000 F 
ATOM     28  C   UNL     1     -10.637   8.195 128.997  0.00  0.00    +0.000 A 
ATOM     29  C   UNL     1     -10.057   7.163 130.081  0.00  0.00    +0.000 A 
ENDBRANCH  15  18
ENDBRANCH   5  10
BRANCH   1  30
ATOM     30  C   UNL     1      -7.819   1.489 126.133  0.00  0.00    +0.000 C 
BRANCH  30  33
ATOM     31  O   UNL     1      -9.613   2.345 123.053  0.00  0.00    +0.000 OA
ATOM     32  C   UNL     1      -8.744   1.798 123.742  0.00  0.00    +0.000 C 
ATOM     33  N   UNL     1      -8.778   1.987 125.136  0.00  0.00    +0.000 N 
ATOM     34  H   UNL     1      -9.533   2.601 125.417  0.00  0.00    +0.000 HD
BRANCH  32  35
ATOM     35  C   UNL     1      -7.668   0.889 123.072  0.00  0.00    +0.000 C 
BRANCH  35  36
ATOM     36  N   UNL     1      -7.757  -0.546 123.457  0.00  0.00    +0.000 N 
ATOM     37  C   UNL     1      -6.625  -1.239 123.878  0.00  0.00    +0.000 A 
ATOM     38  C   UNL     1      -6.589  -2.585 123.925  0.00  0.00    +0.000 A 
ATOM     39  C   UNL     1      -7.819  -3.326 123.711  0.00  0.00    +0.000 A 
ATOM     40  C   UNL     1      -8.968  -2.679 123.478  0.00  0.00    +0.000 A 
ATOM     41  C   UNL     1      -8.954  -1.216 123.188  0.00  0.00    +0.000 A 
ATOM     42  O   UNL     1      -9.949  -0.693 122.696  0.00  0.00    +0.000 OA
BRANCH  38  43
ATOM     43  C   UNL     1      -5.343  -3.378 124.197  0.00  0.00    +0.000 C 
ATOM     44  F   UNL     1      -4.301  -2.991 123.419  0.00  0.00    +0.000 F 
ATOM     45  F   UNL     1      -4.941  -3.237 125.488  0.00  0.00    +0.000 F 
ATOM     46  F   UNL     1      -5.521  -4.709 123.991  0.00  0.00    +0.000 F 
ENDBRANCH  38  43
ENDBRANCH  35  36
ENDBRANCH  32  35
ENDBRANCH  30  33
ENDBRANCH   1  30
TORSDOF 7
ENDMDL
MODEL 7
REMARK VINA RESULT:     -11.7      4.320      6.468
REMARK  Name = CHEMBL282494
REMARK  7 active torsions:
REMARK  status: ('A' for Active; 'I' for Inactive)
REMARK    1  A    between atoms: C_2  and  C_3
REMARK    2  A    between atoms: C_3  and  N_4
REMARK    3  A    between atoms: C_6  and  C_7
REMARK    4  A    between atoms: N_15  and  C_16
REMARK    5  A    between atoms: C_16  and  C_17
REMARK    6  A    between atoms: C_21  and  C_22
REMARK    7  A    between atoms: C_27  and  N_28
REMARK                            x       y       z     vdW  Elec       q    Type
REMARK                         _______ _______ _______ _____ _____    ______ ____
ROOT
ATOM      1  C   UNL     1      -5.018   4.373 126.789  0.00  0.00    +0.000 A 
ATOM      2  C   UNL     1      -3.722   3.870 126.786  0.00  0.00    +0.000 A 
ATOM      3  C   UNL     1      -3.202   4.272 128.034  0.00  0.00    +0.000 A 
ATOM      4  C   UNL     1      -3.654   4.107 129.374  0.00  0.00    +0.000 A 
ATOM      5  C   UNL     1      -3.233   4.901 130.454  0.00  0.00    +0.000 A 
ATOM      6  C   UNL     1      -2.305   5.885 130.171  0.00  0.00    +0.000 A 
ATOM      7  C   UNL     1      -2.202   6.282 128.807  0.00  0.00    +0.000 A 
ATOM      8  C   UNL     1      -3.071   5.639 127.822  0.00  0.00    +0.000 A 
ATOM      9  O   UNL     1      -4.684   5.724 127.464  0.00  0.00    +0.000 OA
ENDROOT
BRANCH   5  10
ATOM     10  C   UNL     1      -3.900   4.832 131.790  0.00  0.00    +0.000 C 
ATOM     11  O   UNL     1      -4.244   5.880 132.336  0.00  0.00    +0.000 OA
ATOM     12  N   UNL     1      -4.303   3.565 132.256  0.00  0.00    +0.000 N 
ATOM     13  C   UNL     1      -5.734   3.295 132.350  0.00  0.00    +0.000 C 
ATOM     14  C   UNL     1      -6.085   2.571 133.630  0.00  0.00    +0.000 C 
ATOM     15  C   UNL     1      -5.508   0.942 133.481  0.00  0.00    +0.000 C 
ATOM     16  C   UNL     1      -3.847   1.537 133.575  0.00  0.00    +0.000 C 
ATOM     17  C   UNL     1      -3.442   2.381 132.384  0.00  0.00    +0.000 C 
BRANCH  15  18
ATOM     18  N   UNL     1      -6.653  -0.169 132.512  0.00  0.00    +0.000 N 
ATOM     19  C   UNL     1      -6.447  -1.000 133.692  0.00  0.00    +0.000 C 
ATOM     20  O   UNL     1      -6.644  -0.709 134.903  0.00  0.00    +0.000 OA
ATOM     21  O   UNL     1      -5.798  -2.137 133.491  0.00  0.00    +0.000 OA
ATOM     22  C   UNL     1      -6.917  -2.927 133.343  0.00  0.00    +0.000 C 
ATOM     23  C   UNL     1      -6.831  -2.840 131.898  0.00  0.00    +0.000 A 
ATOM     24  C   UNL     1      -6.129  -3.720 131.030  0.00  0.00    +0.000 A 
ATOM     25  C   UNL     1      -6.433  -3.914 129.686  0.00  0.00    +0.000 A 
ATOM     26  C   UNL     1      -7.601  -3.327 129.330  0.00  0.00    +0.000 A 
ATOM     27  F   UNL     1      -8.321  -3.999 128.380  0.00  0.00    +0.000 F 
ATOM     28  C   UNL     1      -8.060  -2.162 130.236  0.00  0.00    +0.000 A 
ATOM     29  C   UNL     1      -7.133  -1.603 131.421  0.00  0.00    +0.000 A 
ENDBRANCH  15  18
ENDBRANCH   5  10
BRANCH   1  30
ATOM     30  C   UNL     1      -6.091   3.929 125.701  0.00  0.00    +0.000 C 
BRANCH  30  33
ATOM     31  O   UNL     1      -9.183   1.961 125.608  0.00  0.00    +0.000 OA
ATOM     32  C   UNL     1      -8.025   2.266 125.298  0.00  0.00    +0.000 C 
ATOM     33  N   UNL     1      -7.422   3.357 125.951  0.00  0.00    +0.000 N 
ATOM     34  H   UNL     1      -8.051   3.799 126.610  0.00  0.00    +0.000 HD
BRANCH  32  35
ATOM     35  C   UNL     1      -7.249   1.425 124.238  0.00  0.00    +0.000 C 
BRANCH  35  36
ATOM     36  N   UNL     1      -6.966   0.025 124.659  0.00  0.00    +0.000 N 
ATOM     37  C   UNL     1      -7.828  -1.010 124.303  0.00  0.00    +0.000 A 
ATOM     38  C   UNL     1      -7.791  -2.210 124.916  0.00  0.00    +0.000 A 
ATOM     39  C   UNL     1      -6.706  -2.493 125.838  0.00  0.00    +0.000 A 
ATOM     40  C   UNL     1      -5.757  -1.577 126.069  0.00  0.00    +0.000 A 
ATOM     41  C   UNL     1      -5.936  -0.179 125.581  0.00  0.00    +0.000 A 
ATOM     42  O   UNL     1      -5.221   0.710 126.034  0.00  0.00    +0.000 OA
BRANCH  38  43
ATOM     43  C   UNL     1      -8.810  -3.290 124.695  0.00  0.00    +0.000 C 
ATOM     44  F   UNL     1      -9.286  -3.304 123.425  0.00  0.00    +0.000 F 
ATOM     45  F   UNL     1      -8.284  -4.521 124.929  0.00  0.00    +0.000 F 
ATOM     46  F   UNL     1      -9.883  -3.166 125.520  0.00  0.00    +0.000 F 
ENDBRANCH  38  43
ENDBRANCH  35  36
ENDBRANCH  32  35
ENDBRANCH  30  33
ENDBRANCH   1  30
TORSDOF 7
ENDMDL
MODEL 8
REMARK VINA RESULT:     -11.7      4.327      6.346
REMARK  Name = CHEMBL282494
REMARK  7 active torsions:
REMARK  status: ('A' for Active; 'I' for Inactive)
REMARK    1  A    between atoms: C_2  and  C_3
REMARK    2  A    between atoms: C_3  and  N_4
REMARK    3  A    between atoms: C_6  and  C_7
REMARK    4  A    between atoms: N_15  and  C_16
REMARK    5  A    between atoms: C_16  and  C_17
REMARK    6  A    between atoms: C_21  and  C_22
REMARK    7  A    between atoms: C_27  and  N_28
REMARK                            x       y       z     vdW  Elec       q    Type
REMARK                         _______ _______ _______ _____ _____    ______ ____
ROOT
ATOM      1  C   UNL     1      -5.092   2.960 126.488  0.00  0.00    +0.000 A 
ATOM      2  C   UNL     1      -3.741   2.655 126.601  0.00  0.00    +0.000 A 
ATOM      3  C   UNL     1      -3.400   3.112 127.892  0.00  0.00    +0.000 A 
ATOM      4  C   UNL     1      -3.939   2.862 129.185  0.00  0.00    +0.000 A 
ATOM      5  C   UNL     1      -3.739   3.694 130.299  0.00  0.00    +0.000 A 
ATOM      6  C   UNL     1      -2.947   4.809 130.102  0.00  0.00    +0.000 A 
ATOM      7  C   UNL     1      -2.784   5.237 128.754  0.00  0.00    +0.000 A 
ATOM      8  C   UNL     1      -3.455   4.486 127.693  0.00  0.00    +0.000 A 
ATOM      9  O   UNL     1      -5.025   4.336 127.191  0.00  0.00    +0.000 OA
ENDROOT
BRANCH   5  10
ATOM     10  C   UNL     1      -4.504   3.508 131.570  0.00  0.00    +0.000 C 
ATOM     11  O   UNL     1      -5.016   4.491 132.104  0.00  0.00    +0.000 OA
ATOM     12  N   UNL     1      -4.791   2.188 131.973  0.00  0.00    +0.000 N 
ATOM     13  C   UNL     1      -6.182   1.750 131.935  0.00  0.00    +0.000 C 
ATOM     14  C   UNL     1      -6.552   0.951 133.165  0.00  0.00    +0.000 C 
ATOM     15  C   UNL     1      -5.774  -0.593 133.036  0.00  0.00    +0.000 C 
ATOM     16  C   UNL     1      -4.211   0.189 133.288  0.00  0.00    +0.000 C 
ATOM     17  C   UNL     1      -3.809   1.111 132.153  0.00  0.00    +0.000 C 
BRANCH  15  18
ATOM     18  N   UNL     1      -6.692  -1.801 131.947  0.00  0.00    +0.000 N 
ATOM     19  C   UNL     1      -5.350  -2.363 131.858  0.00  0.00    +0.000 C 
ATOM     20  O   UNL     1      -4.587  -2.731 132.794  0.00  0.00    +0.000 OA
ATOM     21  O   UNL     1      -4.781  -2.311 130.664  0.00  0.00    +0.000 OA
ATOM     22  C   UNL     1      -5.149  -3.577 130.264  0.00  0.00    +0.000 C 
ATOM     23  C   UNL     1      -6.290  -3.054 129.536  0.00  0.00    +0.000 A 
ATOM     24  C   UNL     1      -6.318  -2.645 128.175  0.00  0.00    +0.000 A 
ATOM     25  C   UNL     1      -7.464  -2.609 127.385  0.00  0.00    +0.000 A 
ATOM     26  C   UNL     1      -8.526  -3.197 127.988  0.00  0.00    +0.000 A 
ATOM     27  F   UNL     1      -9.383  -3.847 127.142  0.00  0.00    +0.000 F 
ATOM     28  C   UNL     1      -8.453  -3.278 129.529  0.00  0.00    +0.000 A 
ATOM     29  C   UNL     1      -7.267  -2.577 130.353  0.00  0.00    +0.000 A 
ENDBRANCH  15  18
ENDBRANCH   5  10
BRANCH   1  30
ATOM     30  C   UNL     1      -5.986   2.378 125.307  0.00  0.00    +0.000 C 
BRANCH  30  33
ATOM     31  O   UNL     1      -9.449   2.273 124.109  0.00  0.00    +0.000 OA
ATOM     32  C   UNL     1      -8.248   1.982 124.125  0.00  0.00    +0.000 C 
ATOM     33  N   UNL     1      -7.437   2.535 125.134  0.00  0.00    +0.000 N 
ATOM     34  H   UNL     1      -7.958   3.158 125.739  0.00  0.00    +0.000 HD
BRANCH  32  35
ATOM     35  C   UNL     1      -7.667   0.989 123.072  0.00  0.00    +0.000 C 
BRANCH  35  36
ATOM     36  N   UNL     1      -7.760  -0.444 123.467  0.00  0.00    +0.000 N 
ATOM     37  C   UNL     1      -6.619  -1.155 123.828  0.00  0.00    +0.000 A 
ATOM     38  C   UNL     1      -6.605  -2.502 123.878  0.00  0.00    +0.000 A 
ATOM     39  C   UNL     1      -7.857  -3.221 123.736  0.00  0.00    +0.000 A 
ATOM     40  C   UNL     1      -9.005  -2.554 123.564  0.00  0.00    +0.000 A 
ATOM     41  C   UNL     1      -8.982  -1.093 123.267  0.00  0.00    +0.000 A 
ATOM     42  O   UNL     1      -9.993  -0.553 122.829  0.00  0.00    +0.000 OA
BRANCH  38  43
ATOM     43  C   UNL     1      -5.360  -3.315 124.085  0.00  0.00    +0.000 C 
ATOM     44  F   UNL     1      -4.365  -2.971 123.228  0.00  0.00    +0.000 F 
ATOM     45  F   UNL     1      -4.867  -3.154 125.341  0.00  0.00    +0.000 F 
ATOM     46  F   UNL     1      -5.579  -4.646 123.924  0.00  0.00    +0.000 F 
ENDBRANCH  38  43
ENDBRANCH  35  36
ENDBRANCH  32  35
ENDBRANCH  30  33
ENDBRANCH   1  30
TORSDOF 7
ENDMDL
MODEL 9
REMARK VINA RESULT:     -11.5      2.979      4.601
REMARK  Name = CHEMBL282494
REMARK  7 active torsions:
REMARK  status: ('A' for Active; 'I' for Inactive)
REMARK    1  A    between atoms: C_2  and  C_3
REMARK    2  A    between atoms: C_3  and  N_4
REMARK    3  A    between atoms: C_6  and  C_7
REMARK    4  A    between atoms: N_15  and  C_16
REMARK    5  A    between atoms: C_16  and  C_17
REMARK    6  A    between atoms: C_21  and  C_22
REMARK    7  A    between atoms: C_27  and  N_28
REMARK                            x       y       z     vdW  Elec       q    Type
REMARK                         _______ _______ _______ _____ _____    ______ ____
ROOT
ATOM      1  C   UNL     1      -7.472  -0.428 125.665  0.00  0.00    +0.000 A 
ATOM      2  C   UNL     1      -8.674  -0.508 126.357  0.00  0.00    +0.000 A 
ATOM      3  C   UNL     1      -8.289  -0.428 127.712  0.00  0.00    +0.000 A 
ATOM      4  C   UNL     1      -7.507   0.508 128.446  0.00  0.00    +0.000 A 
ATOM      5  C   UNL     1      -6.897   0.231 129.681  0.00  0.00    +0.000 A 
ATOM      6  C   UNL     1      -7.102  -1.032 130.201  0.00  0.00    +0.000 A 
ATOM      7  C   UNL     1      -7.515  -2.035 129.279  0.00  0.00    +0.000 A 
ATOM      8  C   UNL     1      -7.684  -1.668 127.873  0.00  0.00    +0.000 A 
ATOM      9  O   UNL     1      -6.649  -1.309 126.633  0.00  0.00    +0.000 OA
ENDROOT
BRANCH   5  10
ATOM     10  C   UNL     1      -5.910   1.169 130.300  0.00  0.00    +0.000 C 
ATOM     11  O   UNL     1      -4.713   1.009 130.066  0.00  0.00    +0.000 OA
ATOM     12  N   UNL     1      -6.413   2.320 130.937  0.00  0.00    +0.000 N 
ATOM     13  C   UNL     1      -6.142   3.615 130.321  0.00  0.00    +0.000 C 
ATOM     14  C   UNL     1      -5.752   4.654 131.348  0.00  0.00    +0.000 C 
ATOM     15  C   UNL     1      -7.182   5.068 132.238  0.00  0.00    +0.000 C 
ATOM     16  C   UNL     1      -7.163   3.466 132.983  0.00  0.00    +0.000 C 
ATOM     17  C   UNL     1      -7.426   2.343 132.000  0.00  0.00    +0.000 C 
BRANCH  15  18
ATOM     18  N   UNL     1      -8.272   6.306 131.365  0.00  0.00    +0.000 N 
ATOM     19  C   UNL     1      -9.093   6.045 132.541  0.00  0.00    +0.000 C 
ATOM     20  O   UNL     1      -8.780   6.151 133.759  0.00  0.00    +0.000 OA
ATOM     21  O   UNL     1     -10.251   5.443 132.315  0.00  0.00    +0.000 OA
ATOM     22  C   UNL     1     -11.010   6.592 132.254  0.00  0.00    +0.000 C 
ATOM     23  C   UNL     1     -10.945   6.601 130.806  0.00  0.00    +0.000 A 
ATOM     24  C   UNL     1     -11.857   5.983 129.907  0.00  0.00    +0.000 A 
ATOM     25  C   UNL     1     -12.060   6.383 128.589  0.00  0.00    +0.000 A 
ATOM     26  C   UNL     1     -11.444   7.556 128.304  0.00  0.00    +0.000 A 
ATOM     27  F   UNL     1     -12.108   8.356 127.415  0.00  0.00    +0.000 F 
ATOM     28  C   UNL     1     -10.254   7.920 129.219  0.00  0.00    +0.000 A 
ATOM     29  C   UNL     1      -9.706   6.899 130.331  0.00  0.00    +0.000 A 
ENDBRANCH  15  18
ENDBRANCH   5  10
BRANCH   1  30
ATOM     30  C   UNL     1      -7.424  -0.193 124.092  0.00  0.00    +0.000 C 
BRANCH  30  33
ATOM     31  O   UNL     1     -10.525   0.279 122.193  0.00  0.00    +0.000 OA
ATOM     32  C   UNL     1      -9.645   0.565 123.014  0.00  0.00    +0.000 C 
ATOM     33  N   UNL     1      -8.544  -0.301 123.145  0.00  0.00    +0.000 N 
ATOM     34  H   UNL     1      -8.623  -1.108 122.539  0.00  0.00    +0.000 HD
BRANCH  32  35
ATOM     35  C   UNL     1      -9.748   1.879 123.847  0.00  0.00    +0.000 C 
BRANCH  35  36
ATOM     36  N   UNL     1      -8.565   2.775 123.721  0.00  0.00    +0.000 N 
ATOM     37  C   UNL     1      -7.935   2.948 122.491  0.00  0.00    +0.000 A 
ATOM     38  C   UNL     1      -6.699   3.477 122.393  0.00  0.00    +0.000 A 
ATOM     39  C   UNL     1      -6.086   4.052 123.576  0.00  0.00    +0.000 A 
ATOM     40  C   UNL     1      -6.743   4.060 124.742  0.00  0.00    +0.000 A 
ATOM     41  C   UNL     1      -7.994   3.264 124.900  0.00  0.00    +0.000 A 
ATOM     42  O   UNL     1      -8.425   3.041 126.027  0.00  0.00    +0.000 OA
BRANCH  38  43
ATOM     43  C   UNL     1      -5.909   3.518 121.116  0.00  0.00    +0.000 C 
ATOM     44  F   UNL     1      -4.830   4.335 121.197  0.00  0.00    +0.000 F 
ATOM     45  F   UNL     1      -5.442   2.285 120.784  0.00  0.00    +0.000 F 
ATOM     46  F   UNL     1      -6.653   3.945 120.062  0.00  0.00    +0.000 F 
ENDBRANCH  38  43
ENDBRANCH  35  36
ENDBRANCH  32  35
ENDBRANCH  30  33
ENDBRANCH   1  30
TORSDOF 7
ENDMDL
