MODEL 1
REMARK VINA RESULT:     -10.0      0.000      0.000
REMARK  Name = CHEMBL4203314
REMARK  9 active torsions:
REMARK  status: ('A' for Active; 'I' for Inactive)
REMARK    1  A    between atoms: C_1  and  C_2
REMARK    2  A    between atoms: C_4  and  C_5
REMARK    3  A    between atoms: N_12  and  C_13
REMARK    4  A    between atoms: C_24  and  C_25
REMARK    5  A    between atoms: C_25  and  N_26
REMARK    6  A    between atoms: N_29  and  C_30
REMARK    7  A    between atoms: C_30  and  C_31
REMARK    8  A    between atoms: N_33  and  C_34
REMARK    9  A    between atoms: N_33  and  C_35
REMARK                            x       y       z     vdW  Elec       q    Type
REMARK                         _______ _______ _______ _____ _____    ______ ____
ROOT
ATOM      1  C   UNL     1      -6.173   2.540 134.385  0.00  0.00    +0.000 C 
ATOM      2  C   UNL     1      -7.225   2.014 133.454  0.00  0.00    +0.000 A 
ATOM      3  C   UNL     1      -6.932   0.799 132.787  0.00  0.00    +0.000 A 
ATOM      4  C   UNL     1      -7.823   0.217 131.865  0.00  0.00    +0.000 A 
ATOM      5  C   UNL     1      -9.045   0.838 131.679  0.00  0.00    +0.000 A 
ATOM      6  C   UNL     1      -9.347   2.048 132.318  0.00  0.00    +0.000 A 
ATOM      7  C   UNL     1      -8.451   2.678 133.214  0.00  0.00    +0.000 A 
ENDROOT
BRANCH   4   8
ATOM      8  C   UNL     1      -7.486  -1.090 131.207  0.00  0.00    +0.000 C 
ATOM      9  O   UNL     1      -7.897  -2.087 131.803  0.00  0.00    +0.000 OA
ATOM     10  N   UNL     1      -6.900  -1.085 129.907  0.00  0.00    +0.000 N 
ATOM     11  C   UNL     1      -5.537  -0.504 129.660  0.00  0.00    +0.000 C 
ATOM     12  C   UNL     1      -5.488   0.494 128.535  0.00  0.00    +0.000 A 
ATOM     13  C   UNL     1      -4.752   1.708 128.367  0.00  0.00    +0.000 A 
ATOM     14  N   UNL     1      -4.966   2.305 127.182  0.00  0.00    +0.000 NA
ATOM     15  N   UNL     1      -5.827   1.474 126.570  0.00  0.00    +0.000 N 
ATOM     16  C   UNL     1      -6.329   1.729 125.235  0.00  0.00    +0.000 C 
ATOM     17  C   UNL     1      -6.176   0.402 127.353  0.00  0.00    +0.000 A 
ATOM     18  N   UNL     1      -7.051  -0.497 126.896  0.00  0.00    +0.000 N 
ATOM     19  C   UNL     1      -7.590  -1.621 127.540  0.00  0.00    +0.000 A 
ATOM     20  C   UNL     1      -8.393  -2.420 126.683  0.00  0.00    +0.000 A 
ATOM     21  C   UNL     1      -9.013  -3.580 127.111  0.00  0.00    +0.000 A 
ATOM     22  C   UNL     1      -8.820  -3.984 128.414  0.00  0.00    +0.000 A 
ATOM     23  C   UNL     1      -8.060  -3.196 129.286  0.00  0.00    +0.000 A 
ATOM     24  C   UNL     1      -7.455  -1.982 128.899  0.00  0.00    +0.000 A 
ATOM     25  H   UNL     1      -7.381  -0.417 125.942  0.00  0.00    +0.000 HD
ENDBRANCH   4   8
BRANCH   7  26
ATOM     26  C   UNL     1      -8.920   4.014 133.818  0.00  0.00    +0.000 C 
BRANCH  26  27
ATOM     27  N   UNL     1     -10.110   4.638 133.257  0.00  0.00    +0.000 N 
ATOM     28  C   UNL     1     -10.179   5.656 132.366  0.00  0.00    +0.000 C 
ATOM     29  O   UNL     1      -9.201   6.197 131.855  0.00  0.00    +0.000 OA
ATOM     30  N   UNL     1     -11.484   6.016 132.094  0.00  0.00    +0.000 N 
ATOM     31  H   UNL     1     -11.008   4.420 133.612  0.00  0.00    +0.000 HD
ATOM     32  H   UNL     1     -12.283   5.555 132.517  0.00  0.00    +0.000 HD
BRANCH  30  33
ATOM     33  C   UNL     1     -11.776   7.076 131.143  0.00  0.00    +0.000 C 
BRANCH  33  34
ATOM     34  C   UNL     1     -12.103   6.601 129.709  0.00  0.00    +0.000 C 
ATOM     35  O   UNL     1     -12.013   5.405 129.414  0.00  0.00    +0.000 OA
ATOM     36  N   UNL     1     -12.500   7.573 128.786  0.00  0.00    +0.000 N 
ATOM     37  C   UNL     1     -12.623   8.995 129.084  0.00  0.00    +0.000 C 
ATOM     38  C   UNL     1     -12.822   7.182 127.416  0.00  0.00    +0.000 C 
ENDBRANCH  33  34
ENDBRANCH  30  33
ENDBRANCH  26  27
ENDBRANCH   7  26
TORSDOF 5
ENDMDL
MODEL 2
REMARK VINA RESULT:      -9.9      2.435      3.410
REMARK  Name = CHEMBL4203314
REMARK  9 active torsions:
REMARK  status: ('A' for Active; 'I' for Inactive)
REMARK    1  A    between atoms: C_1  and  C_2
REMARK    2  A    between atoms: C_4  and  C_5
REMARK    3  A    between atoms: N_12  and  C_13
REMARK    4  A    between atoms: C_24  and  C_25
REMARK    5  A    between atoms: C_25  and  N_26
REMARK    6  A    between atoms: N_29  and  C_30
REMARK    7  A    between atoms: C_30  and  C_31
REMARK    8  A    between atoms: N_33  and  C_34
REMARK    9  A    between atoms: N_33  and  C_35
REMARK                            x       y       z     vdW  Elec       q    Type
REMARK                         _______ _______ _______ _____ _____    ______ ____
ROOT
ATOM      1  C   UNL     1      -8.233   0.094 132.221  0.00  0.00    +0.000 C 
ATOM      2  C   UNL     1      -8.266   0.566 130.798  0.00  0.00    +0.000 A 
ATOM      3  C   UNL     1      -7.813  -0.349 129.814  0.00  0.00    +0.000 A 
ATOM      4  C   UNL     1      -7.766  -0.017 128.447  0.00  0.00    +0.000 A 
ATOM      5  C   UNL     1      -8.250   1.225 128.075  0.00  0.00    +0.000 A 
ATOM      6  C   UNL     1      -8.687   2.149 129.034  0.00  0.00    +0.000 A 
ATOM      7  C   UNL     1      -8.703   1.857 130.418  0.00  0.00    +0.000 A 
ENDROOT
BRANCH   4   8
ATOM      8  C   UNL     1      -7.311  -1.029 127.437  0.00  0.00    +0.000 C 
ATOM      9  O   UNL     1      -7.283  -2.190 127.849  0.00  0.00    +0.000 OA
ATOM     10  N   UNL     1      -7.125  -0.627 126.082  0.00  0.00    +0.000 N 
ATOM     11  C   UNL     1      -6.070   0.369 125.694  0.00  0.00    +0.000 C 
ATOM     12  C   UNL     1      -6.580   1.513 124.860  0.00  0.00    +0.000 A 
ATOM     13  C   UNL     1      -6.242   2.902 124.835  0.00  0.00    +0.000 A 
ATOM     14  N   UNL     1      -6.914   3.601 123.903  0.00  0.00    +0.000 NA
ATOM     15  N   UNL     1      -7.677   2.667 123.310  0.00  0.00    +0.000 N 
ATOM     16  C   UNL     1      -8.574   2.984 122.217  0.00  0.00    +0.000 C 
ATOM     17  C   UNL     1      -7.521   1.422 123.868  0.00  0.00    +0.000 A 
ATOM     18  N   UNL     1      -8.239   0.394 123.407  0.00  0.00    +0.000 N 
ATOM     19  C   UNL     1      -8.285  -0.932 123.862  0.00  0.00    +0.000 A 
ATOM     20  C   UNL     1      -9.069  -1.776 123.031  0.00  0.00    +0.000 A 
ATOM     21  C   UNL     1      -9.242  -3.124 123.291  0.00  0.00    +0.000 A 
ATOM     22  C   UNL     1      -8.604  -3.668 124.384  0.00  0.00    +0.000 A 
ATOM     23  C   UNL     1      -7.853  -2.850 125.235  0.00  0.00    +0.000 A 
ATOM     24  C   UNL     1      -7.697  -1.463 125.032  0.00  0.00    +0.000 A 
ATOM     25  H   UNL     1      -8.827   0.533 122.595  0.00  0.00    +0.000 HD
ENDBRANCH   4   8
BRANCH   7  26
ATOM     26  C   UNL     1      -9.191   2.984 131.345  0.00  0.00    +0.000 C 
BRANCH  26  27
ATOM     27  N   UNL     1      -9.013   4.360 130.903  0.00  0.00    +0.000 N 
ATOM     28  C   UNL     1      -9.924   5.175 130.319  0.00  0.00    +0.000 C 
ATOM     29  O   UNL     1     -11.093   4.865 130.104  0.00  0.00    +0.000 OA
ATOM     30  N   UNL     1      -9.384   6.404 129.995  0.00  0.00    +0.000 N 
ATOM     31  H   UNL     1      -8.113   4.772 130.890  0.00  0.00    +0.000 HD
ATOM     32  H   UNL     1      -8.418   6.649 130.186  0.00  0.00    +0.000 HD
BRANCH  30  33
ATOM     33  C   UNL     1     -10.205   7.433 129.379  0.00  0.00    +0.000 C 
BRANCH  33  34
ATOM     34  C   UNL     1     -10.667   7.130 127.936  0.00  0.00    +0.000 C 
ATOM     35  O   UNL     1      -9.871   6.668 127.112  0.00  0.00    +0.000 OA
ATOM     36  N   UNL     1     -12.002   7.397 127.620  0.00  0.00    +0.000 N 
ATOM     37  C   UNL     1     -12.981   7.941 128.555  0.00  0.00    +0.000 C 
ATOM     38  C   UNL     1     -12.495   7.130 126.271  0.00  0.00    +0.000 C 
ENDBRANCH  33  34
ENDBRANCH  30  33
ENDBRANCH  26  27
ENDBRANCH   7  26
TORSDOF 5
ENDMDL
MODEL 3
REMARK VINA RESULT:      -9.9      2.295      3.332
REMARK  Name = CHEMBL4203314
REMARK  9 active torsions:
REMARK  status: ('A' for Active; 'I' for Inactive)
REMARK    1  A    between atoms: C_1  and  C_2
REMARK    2  A    between atoms: C_4  and  C_5
REMARK    3  A    between atoms: N_12  and  C_13
REMARK    4  A    between atoms: C_24  and  C_25
REMARK    5  A    between atoms: C_25  and  N_26
REMARK    6  A    between atoms: N_29  and  C_30
REMARK    7  A    between atoms: C_30  and  C_31
REMARK    8  A    between atoms: N_33  and  C_34
REMARK    9  A    between atoms: N_33  and  C_35
REMARK                            x       y       z     vdW  Elec       q    Type
REMARK                         _______ _______ _______ _____ _____    ______ ____
ROOT
ATOM      1  C   UNL     1      -8.118  -0.269 132.310  0.00  0.00    +0.000 C 
ATOM      2  C   UNL     1      -8.157   0.249 130.903  0.00  0.00    +0.000 A 
ATOM      3  C   UNL     1      -7.745  -0.648 129.885  0.00  0.00    +0.000 A 
ATOM      4  C   UNL     1      -7.706  -0.274 128.528  0.00  0.00    +0.000 A 
ATOM      5  C   UNL     1      -8.158   0.992 128.202  0.00  0.00    +0.000 A 
ATOM      6  C   UNL     1      -8.553   1.898 129.196  0.00  0.00    +0.000 A 
ATOM      7  C   UNL     1      -8.559   1.563 130.570  0.00  0.00    +0.000 A 
ENDROOT
BRANCH   4   8
ATOM      8  C   UNL     1      -7.296  -1.267 127.480  0.00  0.00    +0.000 C 
ATOM      9  O   UNL     1      -7.304  -2.442 127.854  0.00  0.00    +0.000 OA
ATOM     10  N   UNL     1      -7.109  -0.827 126.138  0.00  0.00    +0.000 N 
ATOM     11  C   UNL     1      -6.025   0.145 125.772  0.00  0.00    +0.000 C 
ATOM     12  C   UNL     1      -6.503   1.333 124.981  0.00  0.00    +0.000 A 
ATOM     13  C   UNL     1      -6.117   2.710 124.998  0.00  0.00    +0.000 A 
ATOM     14  N   UNL     1      -6.774   3.461 124.097  0.00  0.00    +0.000 NA
ATOM     15  N   UNL     1      -7.575   2.575 123.482  0.00  0.00    +0.000 N 
ATOM     16  C   UNL     1      -8.470   2.958 122.409  0.00  0.00    +0.000 C 
ATOM     17  C   UNL     1      -7.456   1.307 123.997  0.00  0.00    +0.000 A 
ATOM     18  N   UNL     1      -8.213   0.320 123.510  0.00  0.00    +0.000 N 
ATOM     19  C   UNL     1      -8.300  -1.018 123.921  0.00  0.00    +0.000 A 
ATOM     20  C   UNL     1      -9.121  -1.807 123.071  0.00  0.00    +0.000 A 
ATOM     21  C   UNL     1      -9.337  -3.156 123.288  0.00  0.00    +0.000 A 
ATOM     22  C   UNL     1      -8.708  -3.758 124.356  0.00  0.00    +0.000 A 
ATOM     23  C   UNL     1      -7.921  -2.994 125.225  0.00  0.00    +0.000 A 
ATOM     24  C   UNL     1      -7.719  -1.607 125.066  0.00  0.00    +0.000 A 
ATOM     25  H   UNL     1      -8.803   0.506 122.709  0.00  0.00    +0.000 HD
ENDBRANCH   4   8
BRANCH   7  26
ATOM     26  C   UNL     1      -9.000   2.675 131.539  0.00  0.00    +0.000 C 
BRANCH  26  27
ATOM     27  N   UNL     1     -10.229   3.396 131.240  0.00  0.00    +0.000 N 
ATOM     28  C   UNL     1     -10.387   4.490 130.455  0.00  0.00    +0.000 C 
ATOM     29  O   UNL     1      -9.478   5.030 129.830  0.00  0.00    +0.000 OA
ATOM     30  N   UNL     1     -11.696   4.928 130.439  0.00  0.00    +0.000 N 
ATOM     31  H   UNL     1     -11.066   3.187 131.725  0.00  0.00    +0.000 HD
ATOM     32  H   UNL     1     -12.439   4.467 130.954  0.00  0.00    +0.000 HD
BRANCH  30  33
ATOM     33  C   UNL     1     -12.081   6.077 129.637  0.00  0.00    +0.000 C 
BRANCH  33  34
ATOM     34  C   UNL     1     -12.627   7.283 130.436  0.00  0.00    +0.000 C 
ATOM     35  O   UNL     1     -13.036   7.130 131.591  0.00  0.00    +0.000 OA
ATOM     36  N   UNL     1     -12.632   8.527 129.798  0.00  0.00    +0.000 N 
ATOM     37  C   UNL     1     -12.160   8.760 128.438  0.00  0.00    +0.000 C 
ATOM     38  C   UNL     1     -13.136   9.701 130.504  0.00  0.00    +0.000 C 
ENDBRANCH  33  34
ENDBRANCH  30  33
ENDBRANCH  26  27
ENDBRANCH   7  26
TORSDOF 5
ENDMDL
MODEL 4
REMARK VINA RESULT:      -9.0      1.689      2.648
REMARK  Name = CHEMBL4203314
REMARK  9 active torsions:
REMARK  status: ('A' for Active; 'I' for Inactive)
REMARK    1  A    between atoms: C_1  and  C_2
REMARK    2  A    between atoms: C_4  and  C_5
REMARK    3  A    between atoms: N_12  and  C_13
REMARK    4  A    between atoms: C_24  and  C_25
REMARK    5  A    between atoms: C_25  and  N_26
REMARK    6  A    between atoms: N_29  and  C_30
REMARK    7  A    between atoms: C_30  and  C_31
REMARK    8  A    between atoms: N_33  and  C_34
REMARK    9  A    between atoms: N_33  and  C_35
REMARK                            x       y       z     vdW  Elec       q    Type
REMARK                         _______ _______ _______ _____ _____    ______ ____
ROOT
ATOM      1  C   UNL     1      -9.720   1.863 132.237  0.00  0.00    +0.000 C 
ATOM      2  C   UNL     1      -8.360   1.959 132.862  0.00  0.00    +0.000 A 
ATOM      3  C   UNL     1      -7.438   0.931 132.537  0.00  0.00    +0.000 A 
ATOM      4  C   UNL     1      -6.141   0.889 133.081  0.00  0.00    +0.000 A 
ATOM      5  C   UNL     1      -5.758   1.937 133.901  0.00  0.00    +0.000 A 
ATOM      6  C   UNL     1      -6.660   2.952 134.246  0.00  0.00    +0.000 A 
ATOM      7  C   UNL     1      -7.984   2.994 133.749  0.00  0.00    +0.000 A 
ENDROOT
BRANCH   4   8
ATOM      8  C   UNL     1      -5.187  -0.199 132.682  0.00  0.00    +0.000 C 
ATOM      9  O   UNL     1      -4.572  -0.712 133.619  0.00  0.00    +0.000 OA
ATOM     10  N   UNL     1      -5.188  -0.668 131.336  0.00  0.00    +0.000 N 
ATOM     11  C   UNL     1      -4.795   0.222 130.192  0.00  0.00    +0.000 C 
ATOM     12  C   UNL     1      -5.796   0.259 129.069  0.00  0.00    +0.000 A 
ATOM     13  C   UNL     1      -6.233   1.318 128.213  0.00  0.00    +0.000 A 
ATOM     14  N   UNL     1      -7.136   0.929 127.297  0.00  0.00    +0.000 NA
ATOM     15  N   UNL     1      -7.276  -0.385 127.542  0.00  0.00    +0.000 N 
ATOM     16  C   UNL     1      -8.165  -1.224 126.764  0.00  0.00    +0.000 C 
ATOM     17  C   UNL     1      -6.514  -0.811 128.602  0.00  0.00    +0.000 A 
ATOM     18  N   UNL     1      -6.571  -2.088 128.989  0.00  0.00    +0.000 N 
ATOM     19  C   UNL     1      -5.934  -2.718 130.069  0.00  0.00    +0.000 A 
ATOM     20  C   UNL     1      -6.131  -4.125 130.084  0.00  0.00    +0.000 A 
ATOM     21  C   UNL     1      -5.583  -4.943 131.056  0.00  0.00    +0.000 A 
ATOM     22  C   UNL     1      -4.796  -4.367 132.030  0.00  0.00    +0.000 A 
ATOM     23  C   UNL     1      -4.615  -2.980 132.054  0.00  0.00    +0.000 A 
ATOM     24  C   UNL     1      -5.199  -2.109 131.110  0.00  0.00    +0.000 A 
ATOM     25  H   UNL     1      -7.114  -2.742 128.440  0.00  0.00    +0.000 HD
ENDBRANCH   4   8
BRANCH   7  26
ATOM     26  C   UNL     1      -8.858   4.162 134.239  0.00  0.00    +0.000 C 
BRANCH  26  27
ATOM     27  N   UNL     1      -9.936   4.620 133.374  0.00  0.00    +0.000 N 
ATOM     28  C   UNL     1      -9.955   5.707 132.566  0.00  0.00    +0.000 C 
ATOM     29  O   UNL     1      -9.008   6.474 132.415  0.00  0.00    +0.000 OA
ATOM     30  N   UNL     1     -11.170   5.851 131.924  0.00  0.00    +0.000 N 
ATOM     31  H   UNL     1     -10.832   4.201 133.421  0.00  0.00    +0.000 HD
ATOM     32  H   UNL     1     -11.941   5.205 132.052  0.00  0.00    +0.000 HD
BRANCH  30  33
ATOM     33  C   UNL     1     -11.388   6.945 130.993  0.00  0.00    +0.000 C 
BRANCH  33  34
ATOM     34  C   UNL     1     -12.121   6.561 129.687  0.00  0.00    +0.000 C 
ATOM     35  O   UNL     1     -12.126   5.388 129.298  0.00  0.00    +0.000 OA
ATOM     36  N   UNL     1     -12.765   7.585 128.987  0.00  0.00    +0.000 N 
ATOM     37  C   UNL     1     -12.790   8.982 129.403  0.00  0.00    +0.000 C 
ATOM     38  C   UNL     1     -13.474   7.280 127.747  0.00  0.00    +0.000 C 
ENDBRANCH  33  34
ENDBRANCH  30  33
ENDBRANCH  26  27
ENDBRANCH   7  26
TORSDOF 5
ENDMDL
MODEL 5
REMARK VINA RESULT:      -8.8      1.846      2.515
REMARK  Name = CHEMBL4203314
REMARK  9 active torsions:
REMARK  status: ('A' for Active; 'I' for Inactive)
REMARK    1  A    between atoms: C_1  and  C_2
REMARK    2  A    between atoms: C_4  and  C_5
REMARK    3  A    between atoms: N_12  and  C_13
REMARK    4  A    between atoms: C_24  and  C_25
REMARK    5  A    between atoms: C_25  and  N_26
REMARK    6  A    between atoms: N_29  and  C_30
REMARK    7  A    between atoms: C_30  and  C_31
REMARK    8  A    between atoms: N_33  and  C_34
REMARK    9  A    between atoms: N_33  and  C_35
REMARK                            x       y       z     vdW  Elec       q    Type
REMARK                         _______ _______ _______ _____ _____    ______ ____
ROOT
ATOM      1  C   UNL     1      -6.279   5.493 132.188  0.00  0.00    +0.000 C 
ATOM      2  C   UNL     1      -6.779   4.079 132.167  0.00  0.00    +0.000 A 
ATOM      3  C   UNL     1      -6.042   3.157 131.382  0.00  0.00    +0.000 A 
ATOM      4  C   UNL     1      -6.424   1.808 131.254  0.00  0.00    +0.000 A 
ATOM      5  C   UNL     1      -7.518   1.383 131.987  0.00  0.00    +0.000 A 
ATOM      6  C   UNL     1      -8.269   2.283 132.756  0.00  0.00    +0.000 A 
ATOM      7  C   UNL     1      -7.933   3.653 132.865  0.00  0.00    +0.000 A 
ENDROOT
BRANCH   4   8
ATOM      8  C   UNL     1      -5.594   0.859 130.440  0.00  0.00    +0.000 C 
ATOM      9  O   UNL     1      -5.533  -0.286 130.890  0.00  0.00    +0.000 OA
ATOM     10  N   UNL     1      -5.105   1.277 129.168  0.00  0.00    +0.000 N 
ATOM     11  C   UNL     1      -4.117   2.400 129.034  0.00  0.00    +0.000 C 
ATOM     12  C   UNL     1      -4.524   3.464 128.051  0.00  0.00    +0.000 A 
ATOM     13  C   UNL     1      -4.367   4.885 128.062  0.00  0.00    +0.000 A 
ATOM     14  N   UNL     1      -4.848   5.486 126.960  0.00  0.00    +0.000 NA
ATOM     15  N   UNL     1      -5.303   4.459 126.223  0.00  0.00    +0.000 N 
ATOM     16  C   UNL     1      -5.908   4.652 124.920  0.00  0.00    +0.000 C 
ATOM     17  C   UNL     1      -5.148   3.247 126.850  0.00  0.00    +0.000 A 
ATOM     18  N   UNL     1      -5.583   2.133 126.256  0.00  0.00    +0.000 N 
ATOM     19  C   UNL     1      -5.583   0.814 126.734  0.00  0.00    +0.000 A 
ATOM     20  C   UNL     1      -6.007  -0.129 125.759  0.00  0.00    +0.000 A 
ATOM     21  C   UNL     1      -6.073  -1.487 126.016  0.00  0.00    +0.000 A 
ATOM     22  C   UNL     1      -5.687  -1.939 127.259  0.00  0.00    +0.000 A 
ATOM     23  C   UNL     1      -5.298  -1.026 128.245  0.00  0.00    +0.000 A 
ATOM     24  C   UNL     1      -5.267   0.369 128.037  0.00  0.00    +0.000 A 
ATOM     25  H   UNL     1      -5.945   2.190 125.313  0.00  0.00    +0.000 HD
ENDBRANCH   4   8
BRANCH   7  26
ATOM     26  C   UNL     1      -8.869   4.516 133.730  0.00  0.00    +0.000 C 
BRANCH  26  27
ATOM     27  N   UNL     1     -10.139   4.935 133.156  0.00  0.00    +0.000 N 
ATOM     28  C   UNL     1     -10.371   5.949 132.288  0.00  0.00    +0.000 C 
ATOM     29  O   UNL     1      -9.494   6.669 131.815  0.00  0.00    +0.000 OA
ATOM     30  N   UNL     1     -11.713   6.080 131.993  0.00  0.00    +0.000 N 
ATOM     31  H   UNL     1     -10.991   4.551 133.483  0.00  0.00    +0.000 HD
ATOM     32  H   UNL     1     -12.425   5.473 132.385  0.00  0.00    +0.000 HD
BRANCH  30  33
ATOM     33  C   UNL     1     -12.170   7.098 131.061  0.00  0.00    +0.000 C 
BRANCH  33  34
ATOM     34  C   UNL     1     -12.307   6.632 129.594  0.00  0.00    +0.000 C 
ATOM     35  O   UNL     1     -12.106   5.451 129.295  0.00  0.00    +0.000 OA
ATOM     36  N   UNL     1     -12.666   7.595 128.646  0.00  0.00    +0.000 N 
ATOM     37  C   UNL     1     -12.915   9.000 128.948  0.00  0.00    +0.000 C 
ATOM     38  C   UNL     1     -12.811   7.212 127.244  0.00  0.00    +0.000 C 
ENDBRANCH  33  34
ENDBRANCH  30  33
ENDBRANCH  26  27
ENDBRANCH   7  26
TORSDOF 5
ENDMDL
MODEL 6
REMARK VINA RESULT:      -8.8      3.916      7.292
REMARK  Name = CHEMBL4203314
REMARK  9 active torsions:
REMARK  status: ('A' for Active; 'I' for Inactive)
REMARK    1  A    between atoms: C_1  and  C_2
REMARK    2  A    between atoms: C_4  and  C_5
REMARK    3  A    between atoms: N_12  and  C_13
REMARK    4  A    between atoms: C_24  and  C_25
REMARK    5  A    between atoms: C_25  and  N_26
REMARK    6  A    between atoms: N_29  and  C_30
REMARK    7  A    between atoms: C_30  and  C_31
REMARK    8  A    between atoms: N_33  and  C_34
REMARK    9  A    between atoms: N_33  and  C_35
REMARK                            x       y       z     vdW  Elec       q    Type
REMARK                         _______ _______ _______ _____ _____    ______ ____
ROOT
ATOM      1  C   UNL     1      -5.622  -1.413 126.176  0.00  0.00    +0.000 C 
ATOM      2  C   UNL     1      -6.570  -2.173 127.055  0.00  0.00    +0.000 A 
ATOM      3  C   UNL     1      -6.121  -2.467 128.367  0.00  0.00    +0.000 A 
ATOM      4  C   UNL     1      -6.903  -3.200 129.280  0.00  0.00    +0.000 A 
ATOM      5  C   UNL     1      -8.175  -3.569 128.877  0.00  0.00    +0.000 A 
ATOM      6  C   UNL     1      -8.630  -3.301 127.579  0.00  0.00    +0.000 A 
ATOM      7  C   UNL     1      -7.847  -2.606 126.628  0.00  0.00    +0.000 A 
ENDROOT
BRANCH   4   8
ATOM      8  C   UNL     1      -6.402  -3.459 130.670  0.00  0.00    +0.000 C 
ATOM      9  O   UNL     1      -5.795  -4.523 130.808  0.00  0.00    +0.000 OA
ATOM     10  N   UNL     1      -6.495  -2.427 131.649  0.00  0.00    +0.000 N 
ATOM     11  C   UNL     1      -7.823  -1.913 132.125  0.00  0.00    +0.000 C 
ATOM     12  C   UNL     1      -7.963  -0.416 132.061  0.00  0.00    +0.000 A 
ATOM     13  C   UNL     1      -9.071   0.427 131.736  0.00  0.00    +0.000 A 
ATOM     14  N   UNL     1      -8.791   1.739 131.828  0.00  0.00    +0.000 NA
ATOM     15  N   UNL     1      -7.509   1.753 132.229  0.00  0.00    +0.000 N 
ATOM     16  C   UNL     1      -6.789   2.987 132.469  0.00  0.00    +0.000 C 
ATOM     17  C   UNL     1      -6.979   0.493 132.355  0.00  0.00    +0.000 A 
ATOM     18  N   UNL     1      -5.702   0.343 132.714  0.00  0.00    +0.000 N 
ATOM     19  C   UNL     1      -4.947  -0.833 132.843  0.00  0.00    +0.000 A 
ATOM     20  C   UNL     1      -3.652  -0.604 133.380  0.00  0.00    +0.000 A 
ATOM     21  C   UNL     1      -2.745  -1.626 133.599  0.00  0.00    +0.000 A 
ATOM     22  C   UNL     1      -3.129  -2.917 133.307  0.00  0.00    +0.000 A 
ATOM     23  C   UNL     1      -4.388  -3.162 132.747  0.00  0.00    +0.000 A 
ATOM     24  C   UNL     1      -5.318  -2.141 132.462  0.00  0.00    +0.000 A 
ATOM     25  H   UNL     1      -5.166   1.163 132.971  0.00  0.00    +0.000 HD
ENDBRANCH   4   8
BRANCH   7  26
ATOM     26  C   UNL     1      -8.480  -2.409 125.239  0.00  0.00    +0.000 C 
BRANCH  26  27
ATOM     27  N   UNL     1      -9.102  -1.126 124.947  0.00  0.00    +0.000 N 
ATOM     28  C   UNL     1      -8.610  -0.109 124.198  0.00  0.00    +0.000 C 
ATOM     29  O   UNL     1      -7.535  -0.144 123.606  0.00  0.00    +0.000 OA
ATOM     30  N   UNL     1      -9.463   0.976 124.178  0.00  0.00    +0.000 N 
ATOM     31  H   UNL     1      -9.932  -0.851 125.412  0.00  0.00    +0.000 HD
ATOM     32  H   UNL     1     -10.353   0.988 124.666  0.00  0.00    +0.000 HD
BRANCH  30  33
ATOM     33  C   UNL     1      -9.129   2.165 123.411  0.00  0.00    +0.000 C 
BRANCH  33  34
ATOM     34  C   UNL     1      -8.327   3.239 124.179  0.00  0.00    +0.000 C 
ATOM     35  O   UNL     1      -8.809   3.778 125.181  0.00  0.00    +0.000 OA
ATOM     36  N   UNL     1      -7.056   3.562 123.694  0.00  0.00    +0.000 N 
ATOM     37  C   UNL     1      -6.443   2.956 122.518  0.00  0.00    +0.000 C 
ATOM     38  C   UNL     1      -6.253   4.570 124.380  0.00  0.00    +0.000 C 
ENDBRANCH  33  34
ENDBRANCH  30  33
ENDBRANCH  26  27
ENDBRANCH   7  26
TORSDOF 5
ENDMDL
MODEL 7
REMARK VINA RESULT:      -8.6      2.362      3.734
REMARK  Name = CHEMBL4203314
REMARK  9 active torsions:
REMARK  status: ('A' for Active; 'I' for Inactive)
REMARK    1  A    between atoms: C_1  and  C_2
REMARK    2  A    between atoms: C_4  and  C_5
REMARK    3  A    between atoms: N_12  and  C_13
REMARK    4  A    between atoms: C_24  and  C_25
REMARK    5  A    between atoms: C_25  and  N_26
REMARK    6  A    between atoms: N_29  and  C_30
REMARK    7  A    between atoms: C_30  and  C_31
REMARK    8  A    between atoms: N_33  and  C_34
REMARK    9  A    between atoms: N_33  and  C_35
REMARK                            x       y       z     vdW  Elec       q    Type
REMARK                         _______ _______ _______ _____ _____    ______ ____
ROOT
ATOM      1  C   UNL     1      -7.370  -2.917 132.247  0.00  0.00    +0.000 C 
ATOM      2  C   UNL     1      -7.520  -2.003 131.067  0.00  0.00    +0.000 A 
ATOM      3  C   UNL     1      -7.389  -2.594 129.785  0.00  0.00    +0.000 A 
ATOM      4  C   UNL     1      -7.477  -1.840 128.600  0.00  0.00    +0.000 A 
ATOM      5  C   UNL     1      -7.772  -0.494 128.721  0.00  0.00    +0.000 A 
ATOM      6  C   UNL     1      -7.889   0.112 129.979  0.00  0.00    +0.000 A 
ATOM      7  C   UNL     1      -7.760  -0.614 131.186  0.00  0.00    +0.000 A 
ENDROOT
BRANCH   4   8
ATOM      8  C   UNL     1      -7.367  -2.514 127.263  0.00  0.00    +0.000 C 
ATOM      9  O   UNL     1      -7.759  -3.682 127.243  0.00  0.00    +0.000 OA
ATOM     10  N   UNL     1      -7.005  -1.742 126.121  0.00  0.00    +0.000 N 
ATOM     11  C   UNL     1      -5.657  -1.090 126.006  0.00  0.00    +0.000 C 
ATOM     12  C   UNL     1      -5.708   0.376 125.672  0.00  0.00    +0.000 A 
ATOM     13  C   UNL     1      -4.908   1.482 126.099  0.00  0.00    +0.000 A 
ATOM     14  N   UNL     1      -5.263   2.649 125.535  0.00  0.00    +0.000 NA
ATOM     15  N   UNL     1      -6.281   2.305 124.728  0.00  0.00    +0.000 N 
ATOM     16  C   UNL     1      -6.972   3.273 123.902  0.00  0.00    +0.000 C 
ATOM     17  C   UNL     1      -6.587   0.968 124.803  0.00  0.00    +0.000 A 
ATOM     18  N   UNL     1      -7.600   0.479 124.083  0.00  0.00    +0.000 N 
ATOM     19  C   UNL     1      -8.120  -0.824 124.051  0.00  0.00    +0.000 A 
ATOM     20  C   UNL     1      -9.119  -0.999 123.057  0.00  0.00    +0.000 A 
ATOM     21  C   UNL     1      -9.757  -2.208 122.847  0.00  0.00    +0.000 A 
ATOM     22  C   UNL     1      -9.387  -3.287 123.619  0.00  0.00    +0.000 A 
ATOM     23  C   UNL     1      -8.429  -3.131 124.627  0.00  0.00    +0.000 A 
ATOM     24  C   UNL     1      -7.794  -1.902 124.904  0.00  0.00    +0.000 A 
ATOM     25  H   UNL     1      -8.074   1.088 123.428  0.00  0.00    +0.000 HD
ENDBRANCH   4   8
BRANCH   7  26
ATOM     26  C   UNL     1      -7.893   0.199 132.486  0.00  0.00    +0.000 C 
BRANCH  26  27
ATOM     27  N   UNL     1      -7.972   1.649 132.382  0.00  0.00    +0.000 N 
ATOM     28  C   UNL     1      -9.079   2.421 132.265  0.00  0.00    +0.000 C 
ATOM     29  O   UNL     1     -10.228   1.987 132.267  0.00  0.00    +0.000 OA
ATOM     30  N   UNL     1      -8.765   3.760 132.145  0.00  0.00    +0.000 N 
ATOM     31  H   UNL     1      -7.152   2.190 132.258  0.00  0.00    +0.000 HD
ATOM     32  H   UNL     1      -7.811   4.105 132.153  0.00  0.00    +0.000 HD
BRANCH  30  33
ATOM     33  C   UNL     1      -9.815   4.758 132.032  0.00  0.00    +0.000 C 
BRANCH  33  34
ATOM     34  C   UNL     1     -10.258   5.085 130.587  0.00  0.00    +0.000 C 
ATOM     35  O   UNL     1     -11.030   4.331 129.987  0.00  0.00    +0.000 OA
ATOM     36  N   UNL     1      -9.753   6.254 130.010  0.00  0.00    +0.000 N 
ATOM     37  C   UNL     1      -8.841   7.177 130.675  0.00  0.00    +0.000 C 
ATOM     38  C   UNL     1     -10.137   6.614 128.647  0.00  0.00    +0.000 C 
ENDBRANCH  33  34
ENDBRANCH  30  33
ENDBRANCH  26  27
ENDBRANCH   7  26
TORSDOF 5
ENDMDL
MODEL 8
REMARK VINA RESULT:      -8.6      3.568      4.551
REMARK  Name = CHEMBL4203314
REMARK  9 active torsions:
REMARK  status: ('A' for Active; 'I' for Inactive)
REMARK    1  A    between atoms: C_1  and  C_2
REMARK    2  A    between atoms: C_4  and  C_5
REMARK    3  A    between atoms: N_12  and  C_13
REMARK    4  A    between atoms: C_24  and  C_25
REMARK    5  A    between atoms: C_25  and  N_26
REMARK    6  A    between atoms: N_29  and  C_30
REMARK    7  A    between atoms: C_30  and  C_31
REMARK    8  A    between atoms: N_33  and  C_34
REMARK    9  A    between atoms: N_33  and  C_35
REMARK                            x       y       z     vdW  Elec       q    Type
REMARK                         _______ _______ _______ _____ _____    ______ ____
ROOT
ATOM      1  C   UNL     1      -7.912  -1.323 132.689  0.00  0.00    +0.000 C 
ATOM      2  C   UNL     1      -7.959  -0.657 131.345  0.00  0.00    +0.000 A 
ATOM      3  C   UNL     1      -7.628  -1.463 130.227  0.00  0.00    +0.000 A 
ATOM      4  C   UNL     1      -7.605  -0.950 128.915  0.00  0.00    +0.000 A 
ATOM      5  C   UNL     1      -7.991   0.367 128.738  0.00  0.00    +0.000 A 
ATOM      6  C   UNL     1      -8.305   1.183 129.833  0.00  0.00    +0.000 A 
ATOM      7  C   UNL     1      -8.292   0.705 131.165  0.00  0.00    +0.000 A 
ENDROOT
BRANCH   4   8
ATOM      8  C   UNL     1      -7.283  -1.848 127.757  0.00  0.00    +0.000 C 
ATOM      9  O   UNL     1      -7.531  -3.040 127.946  0.00  0.00    +0.000 OA
ATOM     10  N   UNL     1      -6.901  -1.269 126.511  0.00  0.00    +0.000 N 
ATOM     11  C   UNL     1      -5.635  -0.476 126.367  0.00  0.00    +0.000 C 
ATOM     12  C   UNL     1      -5.824   0.878 125.738  0.00  0.00    +0.000 A 
ATOM     13  C   UNL     1      -5.206   2.143 125.988  0.00  0.00    +0.000 A 
ATOM     14  N   UNL     1      -5.637   3.121 125.173  0.00  0.00    +0.000 NA
ATOM     15  N   UNL     1      -6.522   2.493 124.380  0.00  0.00    +0.000 N 
ATOM     16  C   UNL     1      -7.236   3.182 123.324  0.00  0.00    +0.000 C 
ATOM     17  C   UNL     1      -6.674   1.167 124.703  0.00  0.00    +0.000 A 
ATOM     18  N   UNL     1      -7.546   0.416 124.024  0.00  0.00    +0.000 N 
ATOM     19  C   UNL     1      -7.903  -0.927 124.220  0.00  0.00    +0.000 A 
ATOM     20  C   UNL     1      -8.769  -1.423 123.210  0.00  0.00    +0.000 A 
ATOM     21  C   UNL     1      -9.237  -2.725 123.205  0.00  0.00    +0.000 A 
ATOM     22  C   UNL     1      -8.822  -3.576 124.207  0.00  0.00    +0.000 A 
ATOM     23  C   UNL     1      -7.995  -3.100 125.230  0.00  0.00    +0.000 A 
ATOM     24  C   UNL     1      -7.540  -1.766 125.297  0.00  0.00    +0.000 A 
ATOM     25  H   UNL     1      -8.020   0.817 123.225  0.00  0.00    +0.000 HD
ENDBRANCH   4   8
BRANCH   7  26
ATOM     26  C   UNL     1      -8.641   1.730 132.259  0.00  0.00    +0.000 C 
BRANCH  26  27
ATOM     27  N   UNL     1      -8.252   3.117 132.046  0.00  0.00    +0.000 N 
ATOM     28  C   UNL     1      -7.039   3.686 132.248  0.00  0.00    +0.000 C 
ATOM     29  O   UNL     1      -6.041   3.075 132.623  0.00  0.00    +0.000 OA
ATOM     30  N   UNL     1      -7.053   5.041 131.979  0.00  0.00    +0.000 N 
ATOM     31  H   UNL     1      -8.933   3.806 131.840  0.00  0.00    +0.000 HD
ATOM     32  H   UNL     1      -7.882   5.531 131.662  0.00  0.00    +0.000 HD
BRANCH  30  33
ATOM     33  C   UNL     1      -5.842   5.833 132.112  0.00  0.00    +0.000 C 
BRANCH  33  34
ATOM     34  C   UNL     1      -5.367   6.531 130.818  0.00  0.00    +0.000 C 
ATOM     35  O   UNL     1      -5.944   7.544 130.409  0.00  0.00    +0.000 OA
ATOM     36  N   UNL     1      -4.274   5.972 130.150  0.00  0.00    +0.000 N 
ATOM     37  C   UNL     1      -3.558   4.780 130.592  0.00  0.00    +0.000 C 
ATOM     38  C   UNL     1      -3.781   6.589 128.922  0.00  0.00    +0.000 C 
ENDBRANCH  33  34
ENDBRANCH  30  33
ENDBRANCH  26  27
ENDBRANCH   7  26
TORSDOF 5
ENDMDL
MODEL 9
REMARK VINA RESULT:      -8.1      3.834      7.808
REMARK  Name = CHEMBL4203314
REMARK  9 active torsions:
REMARK  status: ('A' for Active; 'I' for Inactive)
REMARK    1  A    between atoms: C_1  and  C_2
REMARK    2  A    between atoms: C_4  and  C_5
REMARK    3  A    between atoms: N_12  and  C_13
REMARK    4  A    between atoms: C_24  and  C_25
REMARK    5  A    between atoms: C_25  and  N_26
REMARK    6  A    between atoms: N_29  and  C_30
REMARK    7  A    between atoms: C_30  and  C_31
REMARK    8  A    between atoms: N_33  and  C_34
REMARK    9  A    between atoms: N_33  and  C_35
REMARK                            x       y       z     vdW  Elec       q    Type
REMARK                         _______ _______ _______ _____ _____    ______ ____
ROOT
ATOM      1  C   UNL     1      -4.719  -1.405 130.850  0.00  0.00    +0.000 C 
ATOM      2  C   UNL     1      -5.976  -0.590 130.928  0.00  0.00    +0.000 A 
ATOM      3  C   UNL     1      -5.815   0.812 131.061  0.00  0.00    +0.000 A 
ATOM      4  C   UNL     1      -6.915   1.684 131.175  0.00  0.00    +0.000 A 
ATOM      5  C   UNL     1      -8.180   1.132 131.079  0.00  0.00    +0.000 A 
ATOM      6  C   UNL     1      -8.359  -0.253 130.963  0.00  0.00    +0.000 A 
ATOM      7  C   UNL     1      -7.271  -1.156 130.892  0.00  0.00    +0.000 A 
ENDROOT
BRANCH   4   8
ATOM      8  C   UNL     1      -6.699   3.166 131.280  0.00  0.00    +0.000 C 
ATOM      9  O   UNL     1      -7.149   3.679 132.306  0.00  0.00    +0.000 OA
ATOM     10  N   UNL     1      -5.870   3.819 130.322  0.00  0.00    +0.000 N 
ATOM     11  C   UNL     1      -6.246   3.885 128.870  0.00  0.00    +0.000 C 
ATOM     12  C   UNL     1      -5.164   3.424 127.932  0.00  0.00    +0.000 A 
ATOM     13  C   UNL     1      -5.210   2.690 126.706  0.00  0.00    +0.000 A 
ATOM     14  N   UNL     1      -4.002   2.505 126.146  0.00  0.00    +0.000 NA
ATOM     15  N   UNL     1      -3.170   3.132 126.994  0.00  0.00    +0.000 N 
ATOM     16  C   UNL     1      -1.740   3.193 126.769  0.00  0.00    +0.000 C 
ATOM     17  C   UNL     1      -3.823   3.668 128.077  0.00  0.00    +0.000 A 
ATOM     18  N   UNL     1      -3.125   4.296 129.028  0.00  0.00    +0.000 N 
ATOM     19  C   UNL     1      -3.572   4.857 130.233  0.00  0.00    +0.000 A 
ATOM     20  C   UNL     1      -2.553   5.562 130.928  0.00  0.00    +0.000 A 
ATOM     21  C   UNL     1      -2.779   6.201 132.134  0.00  0.00    +0.000 A 
ATOM     22  C   UNL     1      -4.050   6.170 132.664  0.00  0.00    +0.000 A 
ATOM     23  C   UNL     1      -5.062   5.455 132.014  0.00  0.00    +0.000 A 
ATOM     24  C   UNL     1      -4.857   4.749 130.810  0.00  0.00    +0.000 A 
ATOM     25  H   UNL     1      -2.133   4.439 128.892  0.00  0.00    +0.000 HD
ENDBRANCH   4   8
BRANCH   7  26
ATOM     26  C   UNL     1      -7.632  -2.648 130.788  0.00  0.00    +0.000 C 
BRANCH  26  27
ATOM     27  N   UNL     1      -8.320  -3.104 129.588  0.00  0.00    +0.000 N 
ATOM     28  C   UNL     1      -7.887  -3.053 128.305  0.00  0.00    +0.000 C 
ATOM     29  O   UNL     1      -6.787  -2.626 127.963  0.00  0.00    +0.000 OA
ATOM     30  N   UNL     1      -8.830  -3.540 127.422  0.00  0.00    +0.000 N 
ATOM     31  H   UNL     1      -9.267  -3.390 129.628  0.00  0.00    +0.000 HD
ATOM     32  H   UNL     1      -9.732  -3.897 127.720  0.00  0.00    +0.000 HD
BRANCH  30  33
ATOM     33  C   UNL     1      -8.550  -3.592 125.997  0.00  0.00    +0.000 C 
BRANCH  33  34
ATOM     34  C   UNL     1      -8.718  -2.253 125.244  0.00  0.00    +0.000 C 
ATOM     35  O   UNL     1      -9.712  -1.548 125.442  0.00  0.00    +0.000 OA
ATOM     36  N   UNL     1      -7.706  -1.888 124.350  0.00  0.00    +0.000 N 
ATOM     37  C   UNL     1      -6.513  -2.683 124.083  0.00  0.00    +0.000 C 
ATOM     38  C   UNL     1      -7.811  -0.633 123.611  0.00  0.00    +0.000 C 
ENDBRANCH  33  34
ENDBRANCH  30  33
ENDBRANCH  26  27
ENDBRANCH   7  26
TORSDOF 5
ENDMDL
