MODEL 1
REMARK VINA RESULT:      -8.7      0.000      0.000
REMARK  Name = CHEMBL200682
REMARK  9 active torsions:
REMARK  status: ('A' for Active; 'I' for Inactive)
REMARK    1  A    between atoms: C_1  and  O_2
REMARK    2  A    between atoms: O_2  and  C_3
REMARK    3  A    between atoms: C_6  and  N_7
REMARK    4  A    between atoms: N_7  and  C_8
REMARK    5  A    between atoms: N_7  and  S_20
REMARK    6  A    between atoms: C_8  and  C_9
REMARK    7  A    between atoms: N_11  and  C_12
REMARK    8  A    between atoms: C_18  and  C_19
REMARK    9  A    between atoms: S_20  and  C_23
REMARK                            x       y       z     vdW  Elec       q    Type
REMARK                         _______ _______ _______ _____ _____    ______ ____
ROOT
ATOM      1  N   UNL     1      -9.060  -1.192 125.793  0.00  0.00    +0.000 N 
ENDROOT
BRANCH   1   5
ATOM      2  C   UNL     1      -6.976  -3.004 129.165  0.00  0.00    +0.000 A 
ATOM      3  C   UNL     1      -8.184  -3.470 128.729  0.00  0.00    +0.000 A 
ATOM      4  C   UNL     1      -8.657  -3.044 127.485  0.00  0.00    +0.000 A 
ATOM      5  C   UNL     1      -8.259  -1.847 126.883  0.00  0.00    +0.000 A 
ATOM      6  C   UNL     1      -7.003  -1.417 127.313  0.00  0.00    +0.000 A 
ATOM      7  C   UNL     1      -6.342  -2.035 128.400  0.00  0.00    +0.000 A 
BRANCH   2   9
ATOM      8  C   UNL     1      -5.378  -3.019 130.852  0.00  0.00    +0.000 C 
ATOM      9  O   UNL     1      -6.438  -3.698 130.206  0.00  0.00    +0.000 OA
ENDBRANCH   2   9
ENDBRANCH   1   5
BRANCH   1  10
ATOM     10  S   UNL     1      -9.042  -1.990 124.258  0.00  0.00    +0.000 S 
ATOM     11  O   UNL     1      -9.873  -3.177 124.289  0.00  0.00    +0.000 OA
ATOM     12  O   UNL     1      -9.338  -0.928 123.309  0.00  0.00    +0.000 OA
BRANCH  10  13
ATOM     13  C   UNL     1      -7.405  -2.570 123.808  0.00  0.00    +0.000 A 
ATOM     14  C   UNL     1      -6.786  -3.699 124.342  0.00  0.00    +0.000 A 
ATOM     15  C   UNL     1      -5.445  -3.975 124.126  0.00  0.00    +0.000 A 
ATOM     16  C   UNL     1      -4.762  -3.259 123.163  0.00  0.00    +0.000 A 
ATOM     17  C   UNL     1      -5.398  -2.208 122.505  0.00  0.00    +0.000 A 
ATOM     18  C   UNL     1      -6.704  -1.839 122.844  0.00  0.00    +0.000 A 
ENDBRANCH  10  13
ENDBRANCH   1  10
BRANCH   1  19
ATOM     19  C   UNL     1      -9.470   0.272 125.826  0.00  0.00    +0.000 C 
BRANCH  19  20
ATOM     20  C   UNL     1      -8.631   1.303 125.161  0.00  0.00    +0.000 C 
ATOM     21  O   UNL     1      -9.220   2.341 125.134  0.00  0.00    +0.000 OA
ATOM     22  N   UNL     1      -7.318   1.214 124.773  0.00  0.00    +0.000 N 
ATOM     23  H   UNL     1      -6.687   0.581 125.259  0.00  0.00    +0.000 HD
BRANCH  22  24
ATOM     24  C   UNL     1      -6.674   2.243 123.976  0.00  0.00    +0.000 A 
ATOM     25  C   UNL     1      -6.790   2.088 122.583  0.00  0.00    +0.000 A 
ATOM     26  C   UNL     1      -6.169   2.987 121.697  0.00  0.00    +0.000 A 
ATOM     27  C   UNL     1      -5.500   4.105 122.176  0.00  0.00    +0.000 A 
ATOM     28 CL   UNL     1      -4.814   5.262 121.112  0.00  0.00    +0.000 Cl
ATOM     29  C   UNL     1      -5.402   4.308 123.533  0.00  0.00    +0.000 A 
ATOM     30  C   UNL     1      -5.960   3.395 124.440  0.00  0.00    +0.000 A 
ATOM     31  C   UNL     1      -5.721   3.847 125.852  0.00  0.00    +0.000 C 
ENDBRANCH  22  24
ENDBRANCH  19  20
ENDBRANCH   1  19
TORSDOF 7
ENDMDL
MODEL 2
REMARK VINA RESULT:      -7.8      4.019      6.740
REMARK  Name = CHEMBL200682
REMARK  9 active torsions:
REMARK  status: ('A' for Active; 'I' for Inactive)
REMARK    1  A    between atoms: C_1  and  O_2
REMARK    2  A    between atoms: O_2  and  C_3
REMARK    3  A    between atoms: C_6  and  N_7
REMARK    4  A    between atoms: N_7  and  C_8
REMARK    5  A    between atoms: N_7  and  S_20
REMARK    6  A    between atoms: C_8  and  C_9
REMARK    7  A    between atoms: N_11  and  C_12
REMARK    8  A    between atoms: C_18  and  C_19
REMARK    9  A    between atoms: S_20  and  C_23
REMARK                            x       y       z     vdW  Elec       q    Type
REMARK                         _______ _______ _______ _____ _____    ______ ____
ROOT
ATOM      1  N   UNL     1      -6.878   1.257 125.684  0.00  0.00    +0.000 N 
ENDROOT
BRANCH   1   5
ATOM      2  C   UNL     1      -8.353   3.443 129.153  0.00  0.00    +0.000 A 
ATOM      3  C   UNL     1      -7.623   4.054 128.173  0.00  0.00    +0.000 A 
ATOM      4  C   UNL     1      -7.430   3.380 126.964  0.00  0.00    +0.000 A 
ATOM      5  C   UNL     1      -7.492   1.989 126.842  0.00  0.00    +0.000 A 
ATOM      6  C   UNL     1      -8.279   1.396 127.830  0.00  0.00    +0.000 A 
ATOM      7  C   UNL     1      -8.759   2.134 128.937  0.00  0.00    +0.000 A 
BRANCH   2   9
ATOM      8  C   UNL     1     -10.112   4.054 130.544  0.00  0.00    +0.000 C 
ATOM      9  O   UNL     1      -8.769   4.269 130.153  0.00  0.00    +0.000 OA
ENDBRANCH   2   9
ENDBRANCH   1   5
BRANCH   1  10
ATOM     10  S   UNL     1      -7.940   0.903 124.364  0.00  0.00    +0.000 S 
ATOM     11  O   UNL     1      -9.115   1.751 124.412  0.00  0.00    +0.000 OA
ATOM     12  O   UNL     1      -7.072   0.942 123.198  0.00  0.00    +0.000 OA
BRANCH  10  13
ATOM     13  C   UNL     1      -8.566  -0.777 124.421  0.00  0.00    +0.000 A 
ATOM     14  C   UNL     1      -9.034  -1.413 125.569  0.00  0.00    +0.000 A 
ATOM     15  C   UNL     1      -9.298  -2.774 125.601  0.00  0.00    +0.000 A 
ATOM     16  C   UNL     1      -9.337  -3.475 124.413  0.00  0.00    +0.000 A 
ATOM     17  C   UNL     1      -9.010  -2.831 123.220  0.00  0.00    +0.000 A 
ATOM     18  C   UNL     1      -8.594  -1.495 123.222  0.00  0.00    +0.000 A 
ENDBRANCH  10  13
ENDBRANCH   1  10
BRANCH   1  19
ATOM     19  C   UNL     1      -5.593   0.450 125.794  0.00  0.00    +0.000 C 
BRANCH  19  20
ATOM     20  C   UNL     1      -5.520  -0.728 126.697  0.00  0.00    +0.000 C 
ATOM     21  O   UNL     1      -5.608  -1.730 126.055  0.00  0.00    +0.000 OA
ATOM     22  N   UNL     1      -5.223  -0.758 128.037  0.00  0.00    +0.000 N 
ATOM     23  H   UNL     1      -4.640  -0.031 128.444  0.00  0.00    +0.000 HD
BRANCH  22  24
ATOM     24  C   UNL     1      -5.357  -1.964 128.834  0.00  0.00    +0.000 A 
ATOM     25  C   UNL     1      -4.148  -2.591 129.189  0.00  0.00    +0.000 A 
ATOM     26  C   UNL     1      -4.139  -3.795 129.916  0.00  0.00    +0.000 A 
ATOM     27  C   UNL     1      -5.323  -4.349 130.382  0.00  0.00    +0.000 A 
ATOM     28 CL   UNL     1      -5.329  -5.767 131.348  0.00  0.00    +0.000 Cl
ATOM     29  C   UNL     1      -6.521  -3.740 130.087  0.00  0.00    +0.000 A 
ATOM     30  C   UNL     1      -6.563  -2.572 129.312  0.00  0.00    +0.000 A 
ATOM     31  C   UNL     1      -7.981  -2.108 129.141  0.00  0.00    +0.000 C 
ENDBRANCH  22  24
ENDBRANCH  19  20
ENDBRANCH   1  19
TORSDOF 7
ENDMDL
MODEL 3
REMARK VINA RESULT:      -7.8      3.275      6.579
REMARK  Name = CHEMBL200682
REMARK  9 active torsions:
REMARK  status: ('A' for Active; 'I' for Inactive)
REMARK    1  A    between atoms: C_1  and  O_2
REMARK    2  A    between atoms: O_2  and  C_3
REMARK    3  A    between atoms: C_6  and  N_7
REMARK    4  A    between atoms: N_7  and  C_8
REMARK    5  A    between atoms: N_7  and  S_20
REMARK    6  A    between atoms: C_8  and  C_9
REMARK    7  A    between atoms: N_11  and  C_12
REMARK    8  A    between atoms: C_18  and  C_19
REMARK    9  A    between atoms: S_20  and  C_23
REMARK                            x       y       z     vdW  Elec       q    Type
REMARK                         _______ _______ _______ _____ _____    ______ ____
ROOT
ATOM      1  N   UNL     1      -7.927   2.180 124.822  0.00  0.00    +0.000 N 
ENDROOT
BRANCH   1   5
ATOM      2  C   UNL     1      -7.096   3.775 120.852  0.00  0.00    +0.000 A 
ATOM      3  C   UNL     1      -6.094   3.431 121.715  0.00  0.00    +0.000 A 
ATOM      4  C   UNL     1      -6.413   2.667 122.841  0.00  0.00    +0.000 A 
ATOM      5  C   UNL     1      -7.689   2.636 123.411  0.00  0.00    +0.000 A 
ATOM      6  C   UNL     1      -8.696   2.948 122.497  0.00  0.00    +0.000 A 
ATOM      7  C   UNL     1      -8.397   3.447 121.208  0.00  0.00    +0.000 A 
BRANCH   2   9
ATOM      8  C   UNL     1      -7.729   4.484 118.732  0.00  0.00    +0.000 C 
ATOM      9  O   UNL     1      -6.674   4.225 119.638  0.00  0.00    +0.000 OA
ENDBRANCH   2   9
ENDBRANCH   1   5
BRANCH   1  10
ATOM     10  S   UNL     1      -8.413   0.530 125.012  0.00  0.00    +0.000 S 
ATOM     11  O   UNL     1      -8.475   0.173 126.415  0.00  0.00    +0.000 OA
ATOM     12  O   UNL     1      -9.607   0.421 124.188  0.00  0.00    +0.000 OA
BRANCH  10  13
ATOM     13  C   UNL     1      -7.242  -0.617 124.284  0.00  0.00    +0.000 A 
ATOM     14  C   UNL     1      -7.229  -0.998 122.944  0.00  0.00    +0.000 A 
ATOM     15  C   UNL     1      -6.448  -2.048 122.483  0.00  0.00    +0.000 A 
ATOM     16  C   UNL     1      -5.475  -2.570 123.312  0.00  0.00    +0.000 A 
ATOM     17  C   UNL     1      -5.366  -2.109 124.623  0.00  0.00    +0.000 A 
ATOM     18  C   UNL     1      -6.264  -1.158 125.123  0.00  0.00    +0.000 A 
ENDBRANCH  10  13
ENDBRANCH   1  10
BRANCH   1  19
ATOM     19  C   UNL     1      -8.204   3.136 125.971  0.00  0.00    +0.000 C 
BRANCH  19  20
ATOM     20  C   UNL     1      -7.084   3.829 126.660  0.00  0.00    +0.000 C 
ATOM     21  O   UNL     1      -7.019   4.958 126.279  0.00  0.00    +0.000 OA
ATOM     22  N   UNL     1      -6.315   3.379 127.703  0.00  0.00    +0.000 N 
ATOM     23  H   UNL     1      -6.696   2.700 128.358  0.00  0.00    +0.000 HD
BRANCH  22  24
ATOM     24  C   UNL     1      -5.139   4.094 128.165  0.00  0.00    +0.000 A 
ATOM     25  C   UNL     1      -5.301   4.811 129.365  0.00  0.00    +0.000 A 
ATOM     26  C   UNL     1      -4.254   5.588 129.895  0.00  0.00    +0.000 A 
ATOM     27  C   UNL     1      -3.004   5.595 129.294  0.00  0.00    +0.000 A 
ATOM     28 CL   UNL     1      -1.689   6.462 129.973  0.00  0.00    +0.000 Cl
ATOM     29  C   UNL     1      -2.799   4.872 128.141  0.00  0.00    +0.000 A 
ATOM     30  C   UNL     1      -3.842   4.137 127.558  0.00  0.00    +0.000 A 
ATOM     31  C   UNL     1      -3.361   3.439 126.319  0.00  0.00    +0.000 C 
ENDBRANCH  22  24
ENDBRANCH  19  20
ENDBRANCH   1  19
TORSDOF 7
ENDMDL
MODEL 4
REMARK VINA RESULT:      -7.8      8.170     10.767
REMARK  Name = CHEMBL200682
REMARK  9 active torsions:
REMARK  status: ('A' for Active; 'I' for Inactive)
REMARK    1  A    between atoms: C_1  and  O_2
REMARK    2  A    between atoms: O_2  and  C_3
REMARK    3  A    between atoms: C_6  and  N_7
REMARK    4  A    between atoms: N_7  and  C_8
REMARK    5  A    between atoms: N_7  and  S_20
REMARK    6  A    between atoms: C_8  and  C_9
REMARK    7  A    between atoms: N_11  and  C_12
REMARK    8  A    between atoms: C_18  and  C_19
REMARK    9  A    between atoms: S_20  and  C_23
REMARK                            x       y       z     vdW  Elec       q    Type
REMARK                         _______ _______ _______ _____ _____    ______ ____
ROOT
ATOM      1  N   UNL     1      -2.965   5.750 130.915  0.00  0.00    +0.000 N 
ENDROOT
BRANCH   1   5
ATOM      2  C   UNL     1      -0.728   8.723 133.186  0.00  0.00    +0.000 A 
ATOM      3  C   UNL     1      -2.039   8.909 132.850  0.00  0.00    +0.000 A 
ATOM      4  C   UNL     1      -2.772   7.814 132.383  0.00  0.00    +0.000 A 
ATOM      5  C   UNL     1      -2.185   6.698 131.781  0.00  0.00    +0.000 A 
ATOM      6  C   UNL     1      -0.860   6.507 132.176  0.00  0.00    +0.000 A 
ATOM      7  C   UNL     1      -0.164   7.481 132.928  0.00  0.00    +0.000 A 
BRANCH   2   9
ATOM      8  C   UNL     1       0.500   9.274 135.080  0.00  0.00    +0.000 C 
ATOM      9  O   UNL     1      -0.180   9.727 133.926  0.00  0.00    +0.000 OA
ENDBRANCH   2   9
ENDBRANCH   1   5
BRANCH   1  10
ATOM     10  S   UNL     1      -3.268   6.282 129.296  0.00  0.00    +0.000 S 
ATOM     11  O   UNL     1      -4.466   7.097 129.242  0.00  0.00    +0.000 OA
ATOM     12  O   UNL     1      -1.996   6.842 128.868  0.00  0.00    +0.000 OA
BRANCH  10  13
ATOM     13  C   UNL     1      -3.575   4.916 128.174  0.00  0.00    +0.000 A 
ATOM     14  C   UNL     1      -4.835   4.514 127.736  0.00  0.00    +0.000 A 
ATOM     15  C   UNL     1      -5.031   3.325 127.050  0.00  0.00    +0.000 A 
ATOM     16  C   UNL     1      -3.933   2.640 126.571  0.00  0.00    +0.000 A 
ATOM     17  C   UNL     1      -2.650   3.096 126.874  0.00  0.00    +0.000 A 
ATOM     18  C   UNL     1      -2.465   4.212 127.698  0.00  0.00    +0.000 A 
ENDBRANCH  10  13
ENDBRANCH   1  10
BRANCH   1  19
ATOM     19  C   UNL     1      -3.844   4.642 131.473  0.00  0.00    +0.000 C 
BRANCH  19  20
ATOM     20  C   UNL     1      -5.305   4.855 131.645  0.00  0.00    +0.000 C 
ATOM     21  O   UNL     1      -5.873   3.809 131.569  0.00  0.00    +0.000 OA
ATOM     22  N   UNL     1      -5.962   6.003 132.010  0.00  0.00    +0.000 N 
ATOM     23  H   UNL     1      -5.488   6.700 132.580  0.00  0.00    +0.000 HD
BRANCH  22  24
ATOM     24  C   UNL     1      -7.409   6.114 131.971  0.00  0.00    +0.000 A 
ATOM     25  C   UNL     1      -7.935   6.746 130.829  0.00  0.00    +0.000 A 
ATOM     26  C   UNL     1      -9.318   6.962 130.690  0.00  0.00    +0.000 A 
ATOM     27  C   UNL     1     -10.210   6.476 131.636  0.00  0.00    +0.000 A 
ATOM     28 CL   UNL     1     -11.905   6.648 131.440  0.00  0.00    +0.000 Cl
ATOM     29  C   UNL     1      -9.731   5.817 132.745  0.00  0.00    +0.000 A 
ATOM     30  C   UNL     1      -8.353   5.641 132.938  0.00  0.00    +0.000 A 
ATOM     31  C   UNL     1      -8.096   4.891 134.214  0.00  0.00    +0.000 C 
ENDBRANCH  22  24
ENDBRANCH  19  20
ENDBRANCH   1  19
TORSDOF 7
ENDMDL
MODEL 5
REMARK VINA RESULT:      -7.7      2.306      4.499
REMARK  Name = CHEMBL200682
REMARK  9 active torsions:
REMARK  status: ('A' for Active; 'I' for Inactive)
REMARK    1  A    between atoms: C_1  and  O_2
REMARK    2  A    between atoms: O_2  and  C_3
REMARK    3  A    between atoms: C_6  and  N_7
REMARK    4  A    between atoms: N_7  and  C_8
REMARK    5  A    between atoms: N_7  and  S_20
REMARK    6  A    between atoms: C_8  and  C_9
REMARK    7  A    between atoms: N_11  and  C_12
REMARK    8  A    between atoms: C_18  and  C_19
REMARK    9  A    between atoms: S_20  and  C_23
REMARK                            x       y       z     vdW  Elec       q    Type
REMARK                         _______ _______ _______ _____ _____    ______ ____
ROOT
ATOM      1  N   UNL     1      -7.472   0.180 125.577  0.00  0.00    +0.000 N 
ENDROOT
BRANCH   1   5
ATOM      2  C   UNL     1      -5.974  -3.670 124.189  0.00  0.00    +0.000 A 
ATOM      3  C   UNL     1      -5.150  -2.593 124.352  0.00  0.00    +0.000 A 
ATOM      4  C   UNL     1      -5.626  -1.488 125.065  0.00  0.00    +0.000 A 
ATOM      5  C   UNL     1      -6.985  -1.190 125.200  0.00  0.00    +0.000 A 
ATOM      6  C   UNL     1      -7.800  -2.315 125.072  0.00  0.00    +0.000 A 
ATOM      7  C   UNL     1      -7.283  -3.558 124.636  0.00  0.00    +0.000 A 
BRANCH   2   9
ATOM      8  C   UNL     1      -3.977  -4.629 123.485  0.00  0.00    +0.000 C 
ATOM      9  O   UNL     1      -5.349  -4.810 123.782  0.00  0.00    +0.000 OA
ENDBRANCH   2   9
ENDBRANCH   1   5
BRANCH   1  10
ATOM     10  S   UNL     1      -7.306   0.609 127.245  0.00  0.00    +0.000 S 
ATOM     11  O   UNL     1      -6.233   1.568 127.422  0.00  0.00    +0.000 OA
ATOM     12  O   UNL     1      -8.658   0.958 127.651  0.00  0.00    +0.000 OA
BRANCH  10  13
ATOM     13  C   UNL     1      -6.861  -0.794 128.271  0.00  0.00    +0.000 A 
ATOM     14  C   UNL     1      -5.564  -1.110 128.667  0.00  0.00    +0.000 A 
ATOM     15  C   UNL     1      -5.252  -2.319 129.270  0.00  0.00    +0.000 A 
ATOM     16  C   UNL     1      -6.278  -3.128 129.715  0.00  0.00    +0.000 A 
ATOM     17  C   UNL     1      -7.600  -2.769 129.458  0.00  0.00    +0.000 A 
ATOM     18  C   UNL     1      -7.897  -1.623 128.711  0.00  0.00    +0.000 A 
ENDBRANCH  10  13
ENDBRANCH   1  10
BRANCH   1  19
ATOM     19  C   UNL     1      -8.461   0.973 124.737  0.00  0.00    +0.000 C 
BRANCH  19  20
ATOM     20  C   UNL     1      -8.020   1.642 123.486  0.00  0.00    +0.000 C 
ATOM     21  O   UNL     1      -7.356   0.888 122.842  0.00  0.00    +0.000 OA
ATOM     22  N   UNL     1      -8.408   2.861 122.988  0.00  0.00    +0.000 N 
ATOM     23  H   UNL     1      -9.324   3.235 123.221  0.00  0.00    +0.000 HD
BRANCH  22  24
ATOM     24  C   UNL     1      -7.763   3.469 121.838  0.00  0.00    +0.000 A 
ATOM     25  C   UNL     1      -8.580   3.636 120.705  0.00  0.00    +0.000 A 
ATOM     26  C   UNL     1      -8.065   4.166 119.508  0.00  0.00    +0.000 A 
ATOM     27  C   UNL     1      -6.757   4.625 119.442  0.00  0.00    +0.000 A 
ATOM     28 CL   UNL     1      -6.135   5.359 118.022  0.00  0.00    +0.000 Cl
ATOM     29  C   UNL     1      -5.942   4.514 120.545  0.00  0.00    +0.000 A 
ATOM     30  C   UNL     1      -6.412   3.934 121.733  0.00  0.00    +0.000 A 
ATOM     31  C   UNL     1      -5.335   3.938 122.780  0.00  0.00    +0.000 C 
ENDBRANCH  22  24
ENDBRANCH  19  20
ENDBRANCH   1  19
TORSDOF 7
ENDMDL
MODEL 6
REMARK VINA RESULT:      -7.6      3.847      7.857
REMARK  Name = CHEMBL200682
REMARK  9 active torsions:
REMARK  status: ('A' for Active; 'I' for Inactive)
REMARK    1  A    between atoms: C_1  and  O_2
REMARK    2  A    between atoms: O_2  and  C_3
REMARK    3  A    between atoms: C_6  and  N_7
REMARK    4  A    between atoms: N_7  and  C_8
REMARK    5  A    between atoms: N_7  and  S_20
REMARK    6  A    between atoms: C_8  and  C_9
REMARK    7  A    between atoms: N_11  and  C_12
REMARK    8  A    between atoms: C_18  and  C_19
REMARK    9  A    between atoms: S_20  and  C_23
REMARK                            x       y       z     vdW  Elec       q    Type
REMARK                         _______ _______ _______ _____ _____    ______ ____
ROOT
ATOM      1  N   UNL     1      -7.488  -0.454 127.447  0.00  0.00    +0.000 N 
ENDROOT
BRANCH   1   5
ATOM      2  C   UNL     1      -8.519   2.241 124.181  0.00  0.00    +0.000 A 
ATOM      3  C   UNL     1      -9.470   1.531 124.856  0.00  0.00    +0.000 A 
ATOM      4  C   UNL     1      -9.117   0.918 126.062  0.00  0.00    +0.000 A 
ATOM      5  C   UNL     1      -7.805   0.561 126.386  0.00  0.00    +0.000 A 
ATOM      6  C   UNL     1      -6.855   1.331 125.714  0.00  0.00    +0.000 A 
ATOM      7  C   UNL     1      -7.219   2.211 124.669  0.00  0.00    +0.000 A 
BRANCH   2   9
ATOM      8  C   UNL     1      -8.149   3.182 122.088  0.00  0.00    +0.000 C 
ATOM      9  O   UNL     1      -9.003   3.065 123.210  0.00  0.00    +0.000 OA
ENDBRANCH   2   9
ENDBRANCH   1   5
BRANCH   1  10
ATOM     10  S   UNL     1      -7.243  -2.075 126.894  0.00  0.00    +0.000 S 
ATOM     11  O   UNL     1      -5.866  -2.482 127.096  0.00  0.00    +0.000 OA
ATOM     12  O   UNL     1      -8.316  -2.826 127.526  0.00  0.00    +0.000 OA
BRANCH  10  13
ATOM     13  C   UNL     1      -7.533  -2.247 125.132  0.00  0.00    +0.000 A 
ATOM     14  C   UNL     1      -6.567  -2.063 124.145  0.00  0.00    +0.000 A 
ATOM     15  C   UNL     1      -6.893  -1.991 122.799  0.00  0.00    +0.000 A 
ATOM     16  C   UNL     1      -8.163  -2.356 122.399  0.00  0.00    +0.000 A 
ATOM     17  C   UNL     1      -9.121  -2.685 123.358  0.00  0.00    +0.000 A 
ATOM     18  C   UNL     1      -8.822  -2.602 124.723  0.00  0.00    +0.000 A 
ENDBRANCH  10  13
ENDBRANCH   1  10
BRANCH   1  19
ATOM     19  C   UNL     1      -7.813  -0.250 128.919  0.00  0.00    +0.000 C 
BRANCH  19  20
ATOM     20  C   UNL     1      -7.240  -1.155 129.948  0.00  0.00    +0.000 C 
ATOM     21  O   UNL     1      -6.326  -0.614 130.492  0.00  0.00    +0.000 OA
ATOM     22  N   UNL     1      -7.727  -2.359 130.391  0.00  0.00    +0.000 N 
ATOM     23  H   UNL     1      -8.725  -2.551 130.344  0.00  0.00    +0.000 HD
BRANCH  22  24
ATOM     24  C   UNL     1      -6.970  -3.222 131.281  0.00  0.00    +0.000 A 
ATOM     25  C   UNL     1      -6.043  -4.073 130.652  0.00  0.00    +0.000 A 
ATOM     26  C   UNL     1      -5.281  -4.994 131.394  0.00  0.00    +0.000 A 
ATOM     27  C   UNL     1      -5.360  -5.024 132.779  0.00  0.00    +0.000 A 
ATOM     28 CL   UNL     1      -4.374  -6.076 133.710  0.00  0.00    +0.000 Cl
ATOM     29  C   UNL     1      -6.227  -4.177 133.429  0.00  0.00    +0.000 A 
ATOM     30  C   UNL     1      -7.042  -3.291 132.710  0.00  0.00    +0.000 A 
ATOM     31  C   UNL     1      -7.888  -2.478 133.648  0.00  0.00    +0.000 C 
ENDBRANCH  22  24
ENDBRANCH  19  20
ENDBRANCH   1  19
TORSDOF 7
ENDMDL
MODEL 7
REMARK VINA RESULT:      -7.5      4.535      7.163
REMARK  Name = CHEMBL200682
REMARK  9 active torsions:
REMARK  status: ('A' for Active; 'I' for Inactive)
REMARK    1  A    between atoms: C_1  and  O_2
REMARK    2  A    between atoms: O_2  and  C_3
REMARK    3  A    between atoms: C_6  and  N_7
REMARK    4  A    between atoms: N_7  and  C_8
REMARK    5  A    between atoms: N_7  and  S_20
REMARK    6  A    between atoms: C_8  and  C_9
REMARK    7  A    between atoms: N_11  and  C_12
REMARK    8  A    between atoms: C_18  and  C_19
REMARK    9  A    between atoms: S_20  and  C_23
REMARK                            x       y       z     vdW  Elec       q    Type
REMARK                         _______ _______ _______ _____ _____    ______ ____
ROOT
ATOM      1  N   UNL     1      -7.293   1.070 126.271  0.00  0.00    +0.000 N 
ENDROOT
BRANCH   1   5
ATOM      2  C   UNL     1      -5.810   3.825 123.236  0.00  0.00    +0.000 A 
ATOM      3  C   UNL     1      -6.663   2.803 122.928  0.00  0.00    +0.000 A 
ATOM      4  C   UNL     1      -7.323   2.144 123.969  0.00  0.00    +0.000 A 
ATOM      5  C   UNL     1      -6.838   2.103 125.279  0.00  0.00    +0.000 A 
ATOM      6  C   UNL     1      -6.004   3.180 125.580  0.00  0.00    +0.000 A 
ATOM      7  C   UNL     1      -5.552   4.070 124.578  0.00  0.00    +0.000 A 
BRANCH   2   9
ATOM      8  C   UNL     1      -5.749   4.041 120.923  0.00  0.00    +0.000 C 
ATOM      9  O   UNL     1      -5.465   4.618 122.184  0.00  0.00    +0.000 OA
ENDBRANCH   2   9
ENDBRANCH   1   5
BRANCH   1  10
ATOM     10  S   UNL     1      -6.610  -0.509 126.085  0.00  0.00    +0.000 S 
ATOM     11  O   UNL     1      -5.280  -0.427 125.514  0.00  0.00    +0.000 OA
ATOM     12  O   UNL     1      -6.799  -1.126 127.388  0.00  0.00    +0.000 OA
BRANCH  10  13
ATOM     13  C   UNL     1      -7.551  -1.530 124.948  0.00  0.00    +0.000 A 
ATOM     14  C   UNL     1      -7.419  -1.505 123.562  0.00  0.00    +0.000 A 
ATOM     15  C   UNL     1      -8.318  -2.149 122.724  0.00  0.00    +0.000 A 
ATOM     16  C   UNL     1      -9.221  -3.039 123.272  0.00  0.00    +0.000 A 
ATOM     17  C   UNL     1      -9.283  -3.195 124.656  0.00  0.00    +0.000 A 
ATOM     18  C   UNL     1      -8.476  -2.423 125.498  0.00  0.00    +0.000 A 
ENDBRANCH  10  13
ENDBRANCH   1  10
BRANCH   1  19
ATOM     19  C   UNL     1      -8.577   1.196 127.075  0.00  0.00    +0.000 C 
BRANCH  19  20
ATOM     20  C   UNL     1      -8.568   1.849 128.410  0.00  0.00    +0.000 C 
ATOM     21  O   UNL     1      -8.847   3.003 128.293  0.00  0.00    +0.000 OA
ATOM     22  N   UNL     1      -8.446   1.262 129.645  0.00  0.00    +0.000 N 
ATOM     23  H   UNL     1      -8.749   0.302 129.783  0.00  0.00    +0.000 HD
BRANCH  22  24
ATOM     24  C   UNL     1      -8.279   2.041 130.859  0.00  0.00    +0.000 A 
ATOM     25  C   UNL     1      -9.352   1.982 131.767  0.00  0.00    +0.000 A 
ATOM     26  C   UNL     1      -9.340   2.729 132.958  0.00  0.00    +0.000 A 
ATOM     27  C   UNL     1      -8.225   3.476 133.314  0.00  0.00    +0.000 A 
ATOM     28 CL   UNL     1      -8.152   4.322 134.804  0.00  0.00    +0.000 Cl
ATOM     29  C   UNL     1      -7.142   3.524 132.468  0.00  0.00    +0.000 A 
ATOM     30  C   UNL     1      -7.152   2.836 131.245  0.00  0.00    +0.000 A 
ATOM     31  C   UNL     1      -5.855   3.045 130.516  0.00  0.00    +0.000 C 
ENDBRANCH  22  24
ENDBRANCH  19  20
ENDBRANCH   1  19
TORSDOF 7
ENDMDL
MODEL 8
REMARK VINA RESULT:      -7.5      4.208      5.345
REMARK  Name = CHEMBL200682
REMARK  9 active torsions:
REMARK  status: ('A' for Active; 'I' for Inactive)
REMARK    1  A    between atoms: C_1  and  O_2
REMARK    2  A    between atoms: O_2  and  C_3
REMARK    3  A    between atoms: C_6  and  N_7
REMARK    4  A    between atoms: N_7  and  C_8
REMARK    5  A    between atoms: N_7  and  S_20
REMARK    6  A    between atoms: C_8  and  C_9
REMARK    7  A    between atoms: N_11  and  C_12
REMARK    8  A    between atoms: C_18  and  C_19
REMARK    9  A    between atoms: S_20  and  C_23
REMARK                            x       y       z     vdW  Elec       q    Type
REMARK                         _______ _______ _______ _____ _____    ______ ____
ROOT
ATOM      1  N   UNL     1      -8.253  -0.934 127.140  0.00  0.00    +0.000 N 
ENDROOT
BRANCH   1   5
ATOM      2  C   UNL     1      -6.249  -3.342 130.171  0.00  0.00    +0.000 A 
ATOM      3  C   UNL     1      -7.604  -3.165 130.170  0.00  0.00    +0.000 A 
ATOM      4  C   UNL     1      -8.209  -2.634 129.028  0.00  0.00    +0.000 A 
ATOM      5  C   UNL     1      -7.532  -1.836 128.102  0.00  0.00    +0.000 A 
ATOM      6  C   UNL     1      -6.156  -2.068 128.093  0.00  0.00    +0.000 A 
ATOM      7  C   UNL     1      -5.534  -2.868 129.080  0.00  0.00    +0.000 A 
BRANCH   2   9
ATOM      8  C   UNL     1      -5.555  -5.482 130.750  0.00  0.00    +0.000 C 
ATOM      9  O   UNL     1      -5.779  -4.148 131.163  0.00  0.00    +0.000 OA
ENDBRANCH   2   9
ENDBRANCH   1   5
BRANCH   1  10
ATOM     10  S   UNL     1      -8.829  -1.682 125.690  0.00  0.00    +0.000 S 
ATOM     11  O   UNL     1      -9.546  -2.905 125.995  0.00  0.00    +0.000 OA
ATOM     12  O   UNL     1      -9.508  -0.605 124.988  0.00  0.00    +0.000 OA
BRANCH  10  13
ATOM     13  C   UNL     1      -7.493  -2.177 124.599  0.00  0.00    +0.000 A 
ATOM     14  C   UNL     1      -6.666  -3.279 124.803  0.00  0.00    +0.000 A 
ATOM     15  C   UNL     1      -5.518  -3.488 124.054  0.00  0.00    +0.000 A 
ATOM     16  C   UNL     1      -5.314  -2.729 122.919  0.00  0.00    +0.000 A 
ATOM     17  C   UNL     1      -6.205  -1.703 122.606  0.00  0.00    +0.000 A 
ATOM     18  C   UNL     1      -7.275  -1.403 123.456  0.00  0.00    +0.000 A 
ENDBRANCH  10  13
ENDBRANCH   1  10
BRANCH   1  19
ATOM     19  C   UNL     1      -8.104   0.579 127.146  0.00  0.00    +0.000 C 
BRANCH  19  20
ATOM     20  C   UNL     1      -8.043   1.324 128.430  0.00  0.00    +0.000 C 
ATOM     21  O   UNL     1      -6.907   1.428 128.778  0.00  0.00    +0.000 OA
ATOM     22  N   UNL     1      -9.057   1.976 129.087  0.00  0.00    +0.000 N 
ATOM     23  H   UNL     1      -9.846   2.345 128.563  0.00  0.00    +0.000 HD
BRANCH  22  24
ATOM     24  C   UNL     1      -8.892   2.517 130.424  0.00  0.00    +0.000 A 
ATOM     25  C   UNL     1      -8.694   3.908 130.492  0.00  0.00    +0.000 A 
ATOM     26  C   UNL     1      -8.470   4.552 131.723  0.00  0.00    +0.000 A 
ATOM     27  C   UNL     1      -8.529   3.842 132.914  0.00  0.00    +0.000 A 
ATOM     28 CL   UNL     1      -8.350   4.622 134.431  0.00  0.00    +0.000 Cl
ATOM     29  C   UNL     1      -8.761   2.486 132.886  0.00  0.00    +0.000 A 
ATOM     30  C   UNL     1      -8.928   1.809 131.669  0.00  0.00    +0.000 A 
ATOM     31  C   UNL     1      -9.172   0.347 131.912  0.00  0.00    +0.000 C 
ENDBRANCH  22  24
ENDBRANCH  19  20
ENDBRANCH   1  19
TORSDOF 7
ENDMDL
MODEL 9
REMARK VINA RESULT:      -7.5      3.052      5.816
REMARK  Name = CHEMBL200682
REMARK  9 active torsions:
REMARK  status: ('A' for Active; 'I' for Inactive)
REMARK    1  A    between atoms: C_1  and  O_2
REMARK    2  A    between atoms: O_2  and  C_3
REMARK    3  A    between atoms: C_6  and  N_7
REMARK    4  A    between atoms: N_7  and  C_8
REMARK    5  A    between atoms: N_7  and  S_20
REMARK    6  A    between atoms: C_8  and  C_9
REMARK    7  A    between atoms: N_11  and  C_12
REMARK    8  A    between atoms: C_18  and  C_19
REMARK    9  A    between atoms: S_20  and  C_23
REMARK                            x       y       z     vdW  Elec       q    Type
REMARK                         _______ _______ _______ _____ _____    ______ ____
ROOT
ATOM      1  N   UNL     1      -8.009   0.884 125.782  0.00  0.00    +0.000 N 
ENDROOT
BRANCH   1   5
ATOM      2  C   UNL     1      -7.856   3.164 122.070  0.00  0.00    +0.000 A 
ATOM      3  C   UNL     1      -6.731   2.886 122.793  0.00  0.00    +0.000 A 
ATOM      4  C   UNL     1      -6.803   1.921 123.801  0.00  0.00    +0.000 A 
ATOM      5  C   UNL     1      -7.993   1.576 124.449  0.00  0.00    +0.000 A 
ATOM      6  C   UNL     1      -9.124   1.830 123.672  0.00  0.00    +0.000 A 
ATOM      7  C   UNL     1      -9.043   2.558 122.462  0.00  0.00    +0.000 A 
BRANCH   2   9
ATOM      8  C   UNL     1      -6.275   3.926 120.548  0.00  0.00    +0.000 C 
ATOM      9  O   UNL     1      -7.639   3.856 120.918  0.00  0.00    +0.000 OA
ENDBRANCH   2   9
ENDBRANCH   1   5
BRANCH   1  10
ATOM     10  S   UNL     1      -8.317  -0.818 125.747  0.00  0.00    +0.000 S 
ATOM     11  O   UNL     1      -8.203  -1.386 127.075  0.00  0.00    +0.000 OA
ATOM     12  O   UNL     1      -9.572  -0.930 125.021  0.00  0.00    +0.000 OA
BRANCH  10  13
ATOM     13  C   UNL     1      -7.122  -1.708 124.747  0.00  0.00    +0.000 A 
ATOM     14  C   UNL     1      -6.137  -2.554 125.251  0.00  0.00    +0.000 A 
ATOM     15  C   UNL     1      -5.107  -3.040 124.459  0.00  0.00    +0.000 A 
ATOM     16  C   UNL     1      -5.190  -2.889 123.089  0.00  0.00    +0.000 A 
ATOM     17  C   UNL     1      -6.246  -2.164 122.538  0.00  0.00    +0.000 A 
ATOM     18  C   UNL     1      -7.194  -1.547 123.360  0.00  0.00    +0.000 A 
ENDBRANCH  10  13
ENDBRANCH   1  10
BRANCH   1  19
ATOM     19  C   UNL     1      -8.225   1.616 127.098  0.00  0.00    +0.000 C 
BRANCH  19  20
ATOM     20  C   UNL     1      -7.132   2.425 127.697  0.00  0.00    +0.000 C 
ATOM     21  O   UNL     1      -7.594   3.215 128.463  0.00  0.00    +0.000 OA
ATOM     22  N   UNL     1      -5.777   2.247 127.581  0.00  0.00    +0.000 N 
ATOM     23  H   UNL     1      -5.400   1.319 127.406  0.00  0.00    +0.000 HD
BRANCH  22  24
ATOM     24  C   UNL     1      -4.822   3.220 128.080  0.00  0.00    +0.000 A 
ATOM     25  C   UNL     1      -4.524   4.279 127.203  0.00  0.00    +0.000 A 
ATOM     26  C   UNL     1      -3.577   5.262 127.544  0.00  0.00    +0.000 A 
ATOM     27  C   UNL     1      -2.976   5.262 128.794  0.00  0.00    +0.000 A 
ATOM     28 CL   UNL     1      -1.888   6.502 129.264  0.00  0.00    +0.000 Cl
ATOM     29  C   UNL     1      -3.275   4.264 129.692  0.00  0.00    +0.000 A 
ATOM     30  C   UNL     1      -4.170   3.238 129.356  0.00  0.00    +0.000 A 
ATOM     31  C   UNL     1      -4.327   2.283 130.504  0.00  0.00    +0.000 C 
ENDBRANCH  22  24
ENDBRANCH  19  20
ENDBRANCH   1  19
TORSDOF 7
ENDMDL
