MODEL 1
REMARK VINA RESULT:      -8.3      0.000      0.000
REMARK  Name = CHEMBL1630524
REMARK  23 active torsions:
REMARK  status: ('A' for Active; 'I' for Inactive)
REMARK    1  A    between atoms: C_1  and  C_2
REMARK    2  A    between atoms: C_2  and  C_3
REMARK    3  A    between atoms: C_3  and  C_4
REMARK    4  A    between atoms: C_3  and  C_5
REMARK    5  A    between atoms: C_9  and  C_10
REMARK    6  A    between atoms: C_10  and  C_11
REMARK    7  A    between atoms: C_14  and  O_15
REMARK    8  A    between atoms: C_21  and  N_22
REMARK    9  A    between atoms: C_27  and  C_28
REMARK   10  A    between atoms: C_34  and  C_35
REMARK   11  A    between atoms: N_37  and  C_38
REMARK   12  A    between atoms: C_38  and  C_39
REMARK   13  A    between atoms: C_38  and  N_43
REMARK   14  A    between atoms: C_39  and  C_40
REMARK   15  A    between atoms: C_40  and  C_41
REMARK   16  A    between atoms: C_40  and  C_42
REMARK   17  A    between atoms: N_43  and  C_44
REMARK   18  A    between atoms: C_44  and  C_45
REMARK   19  A    between atoms: C_51  and  C_52
REMARK   20  A    between atoms: C_52  and  C_53
REMARK   21  A    between atoms: C_59  and  C_60
REMARK   22  A    between atoms: C_60  and  C_61
REMARK   23  A    between atoms: C_61  and  C_62
REMARK                            x       y       z     vdW  Elec       q    Type
REMARK                         _______ _______ _______ _____ _____    ______ ____
ROOT
ATOM      1  C   UNL     1      -3.574   6.859 128.732  0.00  0.00    +0.000 C 
ATOM      2  N   UNL     1      -5.613  -5.078 130.917  0.00  0.00    +0.000 N 
ATOM      3  C   UNL     1      -5.729  -3.696 131.404  0.00  0.00    +0.000 C 
ATOM      4  O   UNL     1      -4.695  -3.075 131.805  0.00  0.00    +0.000 OA
ATOM      5  C   UNL     1      -7.084  -3.010 131.425  0.00  0.00    +0.000 C 
ATOM      6  N   UNL     1      -7.415  -2.623 132.805  0.00  0.00    +0.000 N 
ATOM      7  C   UNL     1      -6.539  -1.702 133.541  0.00  0.00    +0.000 C 
ATOM      8  O   UNL     1      -6.826  -1.368 134.733  0.00  0.00    +0.000 OA
ATOM      9  C   UNL     1      -5.289  -1.147 132.877  0.00  0.00    +0.000 C 
ATOM     10  C   UNL     1      -5.373   0.369 132.824  0.00  0.00    +0.000 C 
ATOM     11 SE   UNL     1      -5.515   1.079 134.644  0.00  0.00    +0.000 Se
ATOM     12 SE   UNL     1      -5.648   3.474 134.561  0.00  0.00    +0.000 Se
ATOM     13  C   UNL     1      -5.790   4.184 136.383  0.00  0.00    +0.000 C 
ATOM     14  C   UNL     1      -5.875   5.701 136.329  0.00  0.00    +0.000 C 
ATOM     15  N   UNL     1      -4.665   6.238 135.686  0.00  0.00    +0.000 N 
ATOM     16  C   UNL     1      -4.334   5.852 134.308  0.00  0.00    +0.000 C 
ATOM     17  O   UNL     1      -3.289   6.315 133.752  0.00  0.00    +0.000 OA
ATOM     18  C   UNL     1      -5.240   4.899 133.546  0.00  0.00    +0.000 C 
ATOM     19  N   UNL     1      -5.746   5.565 132.337  0.00  0.00    +0.000 N 
ATOM     20  C   UNL     1      -4.806   6.051 131.318  0.00  0.00    +0.000 C 
ATOM     21  O   UNL     1      -5.243   6.627 130.272  0.00  0.00    +0.000 OA
ATOM     22  C   UNL     1      -3.310   5.865 131.513  0.00  0.00    +0.000 C 
ATOM     23  N   UNL     1      -2.768   5.059 130.410  0.00  0.00    +0.000 N 
ATOM     24  C   UNL     1      -2.889   5.535 129.024  0.00  0.00    +0.000 C 
ATOM     25  O   UNL     1      -2.420   4.837 128.070  0.00  0.00    +0.000 OA
ATOM     26  H   UNL     1      -5.657  -6.059 130.839  0.00  0.00    +0.000 HD
ATOM     27  H   UNL     1      -8.225  -2.982 133.235  0.00  0.00    +0.000 HD
ATOM     28  H   UNL     1      -4.079   6.855 136.180  0.00  0.00    +0.000 HD
ATOM     29  H   UNL     1      -6.715   5.686 132.210  0.00  0.00    +0.000 HD
ATOM     30  H   UNL     1      -2.325   4.201 130.599  0.00  0.00    +0.000 HD
ENDROOT
BRANCH  14  31
ATOM     31  C   UNL     1      -5.984   6.253 137.742  0.00  0.00    +0.000 C 
ATOM     32  O   UNL     1      -5.105   5.957 138.609  0.00  0.00    +0.000 OA
ATOM     33  N   UNL     1      -7.109   7.128 138.103  0.00  0.00    +0.000 N 
ATOM     34  C   UNL     1      -8.528   6.918 137.765  0.00  0.00    +0.000 C 
ATOM     35  C   UNL     1      -8.989   8.318 137.470  0.00  0.00    +0.000 C 
ATOM     36  C   UNL     1      -8.339   9.150 138.616  0.00  0.00    +0.000 C 
ATOM     37  C   UNL     1      -7.009   8.432 138.862  0.00  0.00    +0.000 C 
BRANCH  37  38
ATOM     38  C   UNL     1      -6.814   8.169 140.347  0.00  0.00    +0.000 C 
ATOM     39  O   UNL     1      -6.735   9.141 141.160  0.00  0.00    +0.000 OA
ATOM     40  N   UNL     1      -6.715   6.788 140.840  0.00  0.00    +0.000 N 
ATOM     41  H   UNL     1      -6.776   6.034 140.209  0.00  0.00    +0.000 HD
BRANCH  40  42
ATOM     42  C   UNL     1      -6.526   6.532 142.275  0.00  0.00    +0.000 C 
BRANCH  42  43
ATOM     43  N   UNL     1      -5.204   7.024 142.690  0.00  0.00    +0.000 NA
ATOM     44  H   UNL     1      -5.134   6.995 143.708  0.00  0.00    +0.000 HD
BRANCH  43  45
ATOM     45  C   UNL     1      -4.158   6.173 142.103  0.00  0.00    +0.000 C 
BRANCH  45  46
ATOM     46  C   UNL     1      -3.070   7.048 141.502  0.00  0.00    +0.000 C 
ATOM     47  N   UNL     1      -3.280   7.687 140.195  0.00  0.00    +0.000 N 
ATOM     48  O   UNL     1      -1.981   7.228 142.131  0.00  0.00    +0.000 OA
ATOM     49  H   UNL     1      -4.125   7.548 139.708  0.00  0.00    +0.000 HD
ATOM     50  H   UNL     1      -2.576   8.254 139.806  0.00  0.00    +0.000 HD
ENDBRANCH  45  46
ENDBRANCH  43  45
ENDBRANCH  42  43
BRANCH  42  51
ATOM     51  C   UNL     1      -6.618   5.039 142.540  0.00  0.00    +0.000 C 
BRANCH  51  52
ATOM     52  C   UNL     1      -7.243   4.348 141.340  0.00  0.00    +0.000 C 
ATOM     53  C   UNL     1      -6.340   3.215 140.880  0.00  0.00    +0.000 C 
ATOM     54  C   UNL     1      -8.601   3.787 141.728  0.00  0.00    +0.000 C 
ENDBRANCH  51  52
ENDBRANCH  42  51
ENDBRANCH  40  42
ENDBRANCH  37  38
ENDBRANCH  14  31
BRANCH   9  55
ATOM     55  N   UNL     1      -5.183  -1.681 131.511  0.00  0.00    +0.000 NA
ATOM     56  H   UNL     1      -4.936  -0.926 130.869  0.00  0.00    +0.000 HD
ATOM     57  H   UNL     1      -6.077  -2.085 131.232  0.00  0.00    +0.000 HD
ENDBRANCH   9  55
BRANCH   1  58
ATOM     58  C   UNL     1      -4.040   7.487 130.035  0.00  0.00    +0.000 C 
ATOM     59  C   UNL     1      -3.784   8.985 129.995  0.00  0.00    +0.000 C 
BRANCH  58  61
ATOM     60  C   UNL     1      -4.179   7.767 129.762  0.00  0.00    +0.000 C 
ATOM     61  C   UNL     1      -5.526   7.231 130.218  0.00  0.00    +0.000 C 
ENDBRANCH  58  61
ENDBRANCH   1  58
BRANCH  18  62
ATOM     62  C   UNL     1      -4.455   3.660 133.150  0.00  0.00    +0.000 C 
BRANCH  62  63
ATOM     63  C   UNL     1      -5.272   3.169 131.966  0.00  0.00    +0.000 C 
ATOM     64  N   UNL     1      -4.595   2.596 130.793  0.00  0.00    +0.000 N 
ATOM     65  O   UNL     1      -6.540   3.254 131.989  0.00  0.00    +0.000 OA
ATOM     66  H   UNL     1      -3.612   2.531 130.775  0.00  0.00    +0.000 HD
ATOM     67  H   UNL     1      -5.124   2.278 130.026  0.00  0.00    +0.000 HD
ENDBRANCH  62  63
ENDBRANCH  18  62
BRANCH   5  68
ATOM     68  C   UNL     1      -7.037  -1.767 130.549  0.00  0.00    +0.000 C 
BRANCH  68  69
ATOM     69  C   UNL     1      -7.653  -2.154 129.214  0.00  0.00    +0.000 A 
ATOM     70  C   UNL     1      -7.521  -1.316 128.129  0.00  0.00    +0.000 A 
ATOM     71  C   UNL     1      -8.067  -1.654 126.886  0.00  0.00    +0.000 A 
ATOM     72  C   UNL     1      -8.740  -2.889 126.783  0.00  0.00    +0.000 A 
ATOM     73  C   UNL     1      -8.890  -3.703 127.880  0.00  0.00    +0.000 A 
ATOM     74  C   UNL     1      -8.339  -3.338 129.094  0.00  0.00    +0.000 A 
BRANCH  72  75
ATOM     75  O   UNL     1      -9.280  -3.309 125.616  0.00  0.00    +0.000 OA
ATOM     76  H   UNL     1      -9.378  -2.709 124.903  0.00  0.00    +0.000 HD
ENDBRANCH  72  75
ENDBRANCH  68  69
ENDBRANCH   5  68
BRANCH  22  77
ATOM     77  C   UNL     1      -2.629   7.224 131.530  0.00  0.00    +0.000 C 
BRANCH  77  78
ATOM     78  C   UNL     1      -1.154   7.047 131.855  0.00  0.00    +0.000 C 
BRANCH  78  79
ATOM     79  C   UNL     1      -0.758   8.015 132.958  0.00  0.00    +0.000 C 
ATOM     80  N   UNL     1      -1.684   9.080 133.368  0.00  0.00    +0.000 N 
ATOM     81  O   UNL     1       0.374   7.904 133.524  0.00  0.00    +0.000 OA
ATOM     82  H   UNL     1      -2.561   9.165 132.929  0.00  0.00    +0.000 HD
ATOM     83  H   UNL     1      -1.428   9.706 134.083  0.00  0.00    +0.000 HD
ENDBRANCH  78  79
ENDBRANCH  77  78
ENDBRANCH  22  77
TORSDOF 19
ENDMDL
MODEL 2
REMARK VINA RESULT:      -8.1      4.474     11.249
REMARK  Name = CHEMBL1630524
REMARK  23 active torsions:
REMARK  status: ('A' for Active; 'I' for Inactive)
REMARK    1  A    between atoms: C_1  and  C_2
REMARK    2  A    between atoms: C_2  and  C_3
REMARK    3  A    between atoms: C_3  and  C_4
REMARK    4  A    between atoms: C_3  and  C_5
REMARK    5  A    between atoms: C_9  and  C_10
REMARK    6  A    between atoms: C_10  and  C_11
REMARK    7  A    between atoms: C_14  and  O_15
REMARK    8  A    between atoms: C_21  and  N_22
REMARK    9  A    between atoms: C_27  and  C_28
REMARK   10  A    between atoms: C_34  and  C_35
REMARK   11  A    between atoms: N_37  and  C_38
REMARK   12  A    between atoms: C_38  and  C_39
REMARK   13  A    between atoms: C_38  and  N_43
REMARK   14  A    between atoms: C_39  and  C_40
REMARK   15  A    between atoms: C_40  and  C_41
REMARK   16  A    between atoms: C_40  and  C_42
REMARK   17  A    between atoms: N_43  and  C_44
REMARK   18  A    between atoms: C_44  and  C_45
REMARK   19  A    between atoms: C_51  and  C_52
REMARK   20  A    between atoms: C_52  and  C_53
REMARK   21  A    between atoms: C_59  and  C_60
REMARK   22  A    between atoms: C_60  and  C_61
REMARK   23  A    between atoms: C_61  and  C_62
REMARK                            x       y       z     vdW  Elec       q    Type
REMARK                         _______ _______ _______ _____ _____    ______ ____
ROOT
ATOM      1  C   UNL     1      -3.979   6.859 133.099  0.00  0.00    +0.000 C 
ATOM      2  N   UNL     1      -4.857  -3.654 139.435  0.00  0.00    +0.000 N 
ATOM      3  C   UNL     1      -4.875  -2.999 138.119  0.00  0.00    +0.000 C 
ATOM      4  O   UNL     1      -5.881  -2.305 137.769  0.00  0.00    +0.000 OA
ATOM      5  C   UNL     1      -3.692  -3.154 137.178  0.00  0.00    +0.000 C 
ATOM      6  N   UNL     1      -4.140  -3.783 135.927  0.00  0.00    +0.000 N 
ATOM      7  C   UNL     1      -5.167  -3.130 135.102  0.00  0.00    +0.000 C 
ATOM      8  O   UNL     1      -5.554  -3.674 134.021  0.00  0.00    +0.000 OA
ATOM      9  C   UNL     1      -5.767  -1.805 135.543  0.00  0.00    +0.000 C 
ATOM     10  C   UNL     1      -5.497  -0.749 134.483  0.00  0.00    +0.000 C 
ATOM     11 SE   UNL     1      -6.309  -1.302 132.789  0.00  0.00    +0.000 Se
ATOM     12 SE   UNL     1      -5.883   0.364 131.115  0.00  0.00    +0.000 Se
ATOM     13  C   UNL     1      -6.696  -0.189 129.420  0.00  0.00    +0.000 C 
ATOM     14  C   UNL     1      -6.425   0.867 128.360  0.00  0.00    +0.000 C 
ATOM     15  N   UNL     1      -7.005   2.149 128.786  0.00  0.00    +0.000 N 
ATOM     16  C   UNL     1      -6.557   2.778 130.036  0.00  0.00    +0.000 C 
ATOM     17  O   UNL     1      -7.059   3.886 130.405  0.00  0.00    +0.000 OA
ATOM     18  C   UNL     1      -5.496   2.104 130.890  0.00  0.00    +0.000 C 
ATOM     19  N   UNL     1      -4.333   2.994 131.019  0.00  0.00    +0.000 N 
ATOM     20  C   UNL     1      -4.488   4.321 131.629  0.00  0.00    +0.000 C 
ATOM     21  O   UNL     1      -3.483   5.092 131.741  0.00  0.00    +0.000 OA
ATOM     22  C   UNL     1      -5.851   4.774 132.128  0.00  0.00    +0.000 C 
ATOM     23  N   UNL     1      -5.777   5.055 133.569  0.00  0.00    +0.000 N 
ATOM     24  C   UNL     1      -4.856   6.085 134.070  0.00  0.00    +0.000 C 
ATOM     25  O   UNL     1      -4.792   6.329 135.317  0.00  0.00    +0.000 OA
ATOM     26  H   UNL     1      -4.888  -4.321 140.159  0.00  0.00    +0.000 HD
ATOM     27  H   UNL     1      -3.752  -4.641 135.641  0.00  0.00    +0.000 HD
ATOM     28  H   UNL     1      -7.693   2.586 128.234  0.00  0.00    +0.000 HD
ATOM     29  H   UNL     1      -3.450   2.701 130.695  0.00  0.00    +0.000 HD
ATOM     30  H   UNL     1      -6.344   4.555 134.198  0.00  0.00    +0.000 HD
ENDROOT
BRANCH  14  31
ATOM     31  C   UNL     1      -7.056   0.438 127.044  0.00  0.00    +0.000 C 
ATOM     32  O   UNL     1      -7.684  -0.664 126.970  0.00  0.00    +0.000 OA
ATOM     33  N   UNL     1      -6.936   1.298 125.859  0.00  0.00    +0.000 N 
ATOM     34  C   UNL     1      -5.716   1.976 125.385  0.00  0.00    +0.000 C 
ATOM     35  C   UNL     1      -6.257   3.295 124.907  0.00  0.00    +0.000 C 
ATOM     36  C   UNL     1      -7.545   2.884 124.132  0.00  0.00    +0.000 C 
ATOM     37  C   UNL     1      -8.060   1.676 124.920  0.00  0.00    +0.000 C 
BRANCH  37  38
ATOM     38  C   UNL     1      -8.377   0.524 123.980  0.00  0.00    +0.000 C 
ATOM     39  O   UNL     1      -9.379   0.595 123.203  0.00  0.00    +0.000 OA
ATOM     40  N   UNL     1      -7.524  -0.673 123.971  0.00  0.00    +0.000 N 
ATOM     41  H   UNL     1      -6.746  -0.727 124.574  0.00  0.00    +0.000 HD
BRANCH  40  42
ATOM     42  C   UNL     1      -7.829  -1.786 123.063  0.00  0.00    +0.000 C 
BRANCH  42  43
ATOM     43  N   UNL     1      -9.227  -2.203 123.251  0.00  0.00    +0.000 NA
ATOM     44  H   UNL     1      -9.637  -2.439 122.348  0.00  0.00    +0.000 HD
BRANCH  43  45
ATOM     45  C   UNL     1      -9.273  -3.379 124.133  0.00  0.00    +0.000 C 
BRANCH  45  46
ATOM     46  C   UNL     1      -9.431  -2.924 125.575  0.00  0.00    +0.000 C 
ATOM     47  N   UNL     1      -8.830  -3.711 126.663  0.00  0.00    +0.000 N 
ATOM     48  O   UNL     1     -10.081  -1.866 125.840  0.00  0.00    +0.000 OA
ATOM     49  H   UNL     1      -8.325  -4.530 126.458  0.00  0.00    +0.000 HD
ATOM     50  H   UNL     1      -8.932  -3.416 127.597  0.00  0.00    +0.000 HD
ENDBRANCH  45  46
ENDBRANCH  43  45
ENDBRANCH  42  43
BRANCH  42  51
ATOM     51  C   UNL     1      -6.907  -2.956 123.366  0.00  0.00    +0.000 C 
BRANCH  51  52
ATOM     52  C   UNL     1      -5.592  -2.433 123.922  0.00  0.00    +0.000 C 
ATOM     53  C   UNL     1      -5.556  -2.654 125.426  0.00  0.00    +0.000 C 
ATOM     54  C   UNL     1      -4.436  -3.176 123.273  0.00  0.00    +0.000 C 
ENDBRANCH  51  52
ENDBRANCH  42  51
ENDBRANCH  40  42
ENDBRANCH  37  38
ENDBRANCH  14  31
BRANCH   9  55
ATOM     55  N   UNL     1      -5.157  -1.390 136.816  0.00  0.00    +0.000 NA
ATOM     56  H   UNL     1      -4.979  -0.385 136.796  0.00  0.00    +0.000 HD
ATOM     57  H   UNL     1      -4.278  -1.888 136.950  0.00  0.00    +0.000 HD
ENDBRANCH   9  55
BRANCH   1  58
ATOM     58  C   UNL     1      -4.247   6.379 131.682  0.00  0.00    +0.000 C 
ATOM     59  C   UNL     1      -4.391   7.579 130.760  0.00  0.00    +0.000 C 
BRANCH  58  61
ATOM     60  C   UNL     1      -3.960   6.679 131.656  0.00  0.00    +0.000 C 
ATOM     61  C   UNL     1      -3.088   5.515 131.212  0.00  0.00    +0.000 C 
ENDBRANCH  58  61
ENDBRANCH   1  58
BRANCH  18  62
ATOM     62  C   UNL     1      -6.063   1.810 132.268  0.00  0.00    +0.000 C 
BRANCH  62  63
ATOM     63  C   UNL     1      -4.795   1.805 133.105  0.00  0.00    +0.000 C 
ATOM     64  N   UNL     1      -3.603   1.088 132.629  0.00  0.00    +0.000 N 
ATOM     65  O   UNL     1      -4.764   2.421 134.217  0.00  0.00    +0.000 OA
ATOM     66  H   UNL     1      -3.627   0.610 131.768  0.00  0.00    +0.000 HD
ATOM     67  H   UNL     1      -2.781   1.085 133.171  0.00  0.00    +0.000 HD
ENDBRANCH  62  63
ENDBRANCH  18  62
BRANCH   5  68
ATOM     68  C   UNL     1      -3.105  -1.784 136.874  0.00  0.00    +0.000 C 
BRANCH  68  69
ATOM     69  C   UNL     1      -1.843  -2.024 136.060  0.00  0.00    +0.000 A 
ATOM     70  C   UNL     1      -0.867  -2.869 136.539  0.00  0.00    +0.000 A 
ATOM     71  C   UNL     1       0.298  -3.115 135.804  0.00  0.00    +0.000 A 
ATOM     72  C   UNL     1       0.424  -2.482 134.550  0.00  0.00    +0.000 A 
ATOM     73  C   UNL     1      -0.543  -1.618 134.096  0.00  0.00    +0.000 A 
ATOM     74  C   UNL     1      -1.681  -1.396 134.848  0.00  0.00    +0.000 A 
BRANCH  72  75
ATOM     75  O   UNL     1       1.505  -2.679 133.761  0.00  0.00    +0.000 OA
ATOM     76  H   UNL     1       2.185  -3.263 134.035  0.00  0.00    +0.000 HD
ENDBRANCH  72  75
ENDBRANCH  68  69
ENDBRANCH   5  68
BRANCH  22  77
ATOM     77  C   UNL     1      -6.269   6.034 131.386  0.00  0.00    +0.000 C 
BRANCH  77  78
ATOM     78  C   UNL     1      -7.622   6.498 131.900  0.00  0.00    +0.000 C 
BRANCH  78  79
ATOM     79  C   UNL     1      -8.576   6.675 130.730  0.00  0.00    +0.000 C 
ATOM     80  N   UNL     1      -9.537   5.614 130.398  0.00  0.00    +0.000 N 
ATOM     81  O   UNL     1      -8.540   7.739 130.037  0.00  0.00    +0.000 OA
ATOM     82  H   UNL     1      -9.564   4.789 130.936  0.00  0.00    +0.000 HD
ATOM     83  H   UNL     1     -10.155   5.728 129.641  0.00  0.00    +0.000 HD
ENDBRANCH  78  79
ENDBRANCH  77  78
ENDBRANCH  22  77
TORSDOF 19
ENDMDL
MODEL 3
REMARK VINA RESULT:      -8.0      4.383     11.213
REMARK  Name = CHEMBL1630524
REMARK  23 active torsions:
REMARK  status: ('A' for Active; 'I' for Inactive)
REMARK    1  A    between atoms: C_1  and  C_2
REMARK    2  A    between atoms: C_2  and  C_3
REMARK    3  A    between atoms: C_3  and  C_4
REMARK    4  A    between atoms: C_3  and  C_5
REMARK    5  A    between atoms: C_9  and  C_10
REMARK    6  A    between atoms: C_10  and  C_11
REMARK    7  A    between atoms: C_14  and  O_15
REMARK    8  A    between atoms: C_21  and  N_22
REMARK    9  A    between atoms: C_27  and  C_28
REMARK   10  A    between atoms: C_34  and  C_35
REMARK   11  A    between atoms: N_37  and  C_38
REMARK   12  A    between atoms: C_38  and  C_39
REMARK   13  A    between atoms: C_38  and  N_43
REMARK   14  A    between atoms: C_39  and  C_40
REMARK   15  A    between atoms: C_40  and  C_41
REMARK   16  A    between atoms: C_40  and  C_42
REMARK   17  A    between atoms: N_43  and  C_44
REMARK   18  A    between atoms: C_44  and  C_45
REMARK   19  A    between atoms: C_51  and  C_52
REMARK   20  A    between atoms: C_52  and  C_53
REMARK   21  A    between atoms: C_59  and  C_60
REMARK   22  A    between atoms: C_60  and  C_61
REMARK   23  A    between atoms: C_61  and  C_62
REMARK                            x       y       z     vdW  Elec       q    Type
REMARK                         _______ _______ _______ _____ _____    ______ ____
ROOT
ATOM      1  C   UNL     1      -2.630   6.334 134.372  0.00  0.00    +0.000 C 
ATOM      2  N   UNL     1      -4.725  -4.526 139.768  0.00  0.00    +0.000 N 
ATOM      3  C   UNL     1      -4.607  -3.773 138.510  0.00  0.00    +0.000 C 
ATOM      4  O   UNL     1      -5.531  -2.974 138.160  0.00  0.00    +0.000 OA
ATOM      5  C   UNL     1      -3.381  -3.951 137.631  0.00  0.00    +0.000 C 
ATOM      6  N   UNL     1      -3.794  -4.444 136.309  0.00  0.00    +0.000 N 
ATOM      7  C   UNL     1      -4.712  -3.648 135.481  0.00  0.00    +0.000 C 
ATOM      8  O   UNL     1      -5.068  -4.075 134.339  0.00  0.00    +0.000 OA
ATOM      9  C   UNL     1      -5.235  -2.316 135.992  0.00  0.00    +0.000 C 
ATOM     10  C   UNL     1      -4.816  -1.208 135.040  0.00  0.00    +0.000 C 
ATOM     11 SE   UNL     1      -5.556  -1.561 133.261  0.00  0.00    +0.000 Se
ATOM     12 SE   UNL     1      -4.895   0.188 131.757  0.00  0.00    +0.000 Se
ATOM     13  C   UNL     1      -5.636  -0.166 129.977  0.00  0.00    +0.000 C 
ATOM     14  C   UNL     1      -5.217   0.942 129.025  0.00  0.00    +0.000 C 
ATOM     15  N   UNL     1      -5.723   2.232 129.519  0.00  0.00    +0.000 N 
ATOM     16  C   UNL     1      -5.310   2.724 130.841  0.00  0.00    +0.000 C 
ATOM     17  O   UNL     1      -5.748   3.839 131.268  0.00  0.00    +0.000 OA
ATOM     18  C   UNL     1      -4.361   1.902 131.697  0.00  0.00    +0.000 C 
ATOM     19  N   UNL     1      -3.144   2.681 131.966  0.00  0.00    +0.000 N 
ATOM     20  C   UNL     1      -3.236   3.967 132.673  0.00  0.00    +0.000 C 
ATOM     21  O   UNL     1      -2.184   4.641 132.906  0.00  0.00    +0.000 OA
ATOM     22  C   UNL     1      -4.589   4.490 133.126  0.00  0.00    +0.000 C 
ATOM     23  N   UNL     1      -4.588   4.653 134.587  0.00  0.00    +0.000 N 
ATOM     24  C   UNL     1      -3.625   5.563 135.224  0.00  0.00    +0.000 C 
ATOM     25  O   UNL     1      -3.624   5.704 136.487  0.00  0.00    +0.000 OA
ATOM     26  H   UNL     1      -4.854  -5.241 140.432  0.00  0.00    +0.000 HD
ATOM     27  H   UNL     1      -3.455  -5.307 135.978  0.00  0.00    +0.000 HD
ATOM     28  H   UNL     1      -6.338   2.764 128.964  0.00  0.00    +0.000 HD
ATOM     29  H   UNL     1      -2.267   2.343 131.673  0.00  0.00    +0.000 HD
ATOM     30  H   UNL     1      -5.232   4.154 135.138  0.00  0.00    +0.000 HD
ENDROOT
BRANCH  14  31
ATOM     31  C   UNL     1      -5.791   0.669 127.644  0.00  0.00    +0.000 C 
ATOM     32  O   UNL     1      -6.422  -0.411 127.421  0.00  0.00    +0.000 OA
ATOM     33  N   UNL     1      -5.615   1.654 126.568  0.00  0.00    +0.000 N 
ATOM     34  C   UNL     1      -4.371   2.368 126.225  0.00  0.00    +0.000 C 
ATOM     35  C   UNL     1      -4.884   3.737 125.874  0.00  0.00    +0.000 C 
ATOM     36  C   UNL     1      -6.139   3.428 125.004  0.00  0.00    +0.000 C 
ATOM     37  C   UNL     1      -6.695   2.145 125.629  0.00  0.00    +0.000 C 
BRANCH  37  38
ATOM     38  C   UNL     1      -6.977   1.108 124.554  0.00  0.00    +0.000 C 
ATOM     39  O   UNL     1      -6.643   1.334 123.350  0.00  0.00    +0.000 OA
ATOM     40  N   UNL     1      -7.635  -0.158 124.910  0.00  0.00    +0.000 N 
ATOM     41  H   UNL     1      -7.893  -0.333 125.844  0.00  0.00    +0.000 HD
BRANCH  40  42
ATOM     42  C   UNL     1      -7.907  -1.161 123.871  0.00  0.00    +0.000 C 
BRANCH  42  43
ATOM     43  N   UNL     1      -9.360  -1.321 123.713  0.00  0.00    +0.000 NA
ATOM     44  H   UNL     1      -9.835  -0.949 124.536  0.00  0.00    +0.000 HD
BRANCH  43  45
ATOM     45  C   UNL     1      -9.806  -0.590 122.517  0.00  0.00    +0.000 C 
BRANCH  45  46
ATOM     46  C   UNL     1     -10.204   0.824 122.907  0.00  0.00    +0.000 C 
ATOM     47  N   UNL     1      -9.489   1.973 122.331  0.00  0.00    +0.000 N 
ATOM     48  O   UNL     1     -11.153   1.013 123.729  0.00  0.00    +0.000 OA
ATOM     49  H   UNL     1      -8.754   1.827 121.693  0.00  0.00    +0.000 HD
ATOM     50  H   UNL     1      -9.747   2.889 122.583  0.00  0.00    +0.000 HD
ENDBRANCH  45  46
ENDBRANCH  43  45
ENDBRANCH  42  43
BRANCH  42  51
ATOM     51  C   UNL     1      -7.292  -2.490 124.277  0.00  0.00    +0.000 C 
BRANCH  51  52
ATOM     52  C   UNL     1      -5.847  -2.545 123.808  0.00  0.00    +0.000 C 
ATOM     53  C   UNL     1      -5.328  -3.968 123.934  0.00  0.00    +0.000 C 
ATOM     54  C   UNL     1      -5.769  -2.103 122.356  0.00  0.00    +0.000 C 
ENDBRANCH  51  52
ENDBRANCH  42  51
ENDBRANCH  40  42
ENDBRANCH  37  38
ENDBRANCH  14  31
BRANCH   9  55
ATOM     55  N   UNL     1      -4.679  -2.051 137.328  0.00  0.00    +0.000 NA
ATOM     56  H   UNL     1      -5.224  -1.318 137.783  0.00  0.00    +0.000 HD
ATOM     57  H   UNL     1      -3.710  -1.749 137.240  0.00  0.00    +0.000 HD
ENDBRANCH   9  55
BRANCH   1  58
ATOM     58  C   UNL     1      -2.841   5.988 132.907  0.00  0.00    +0.000 C 
ATOM     59  C   UNL     1      -2.851   7.264 132.082  0.00  0.00    +0.000 C 
BRANCH  58  61
ATOM     60  C   UNL     1      -2.539   6.273 132.899  0.00  0.00    +0.000 C 
ATOM     61  C   UNL     1      -1.715   5.085 132.433  0.00  0.00    +0.000 C 
ENDBRANCH  58  61
ENDBRANCH   1  58
BRANCH  18  62
ATOM     62  C   UNL     1      -5.038   1.551 133.011  0.00  0.00    +0.000 C 
BRANCH  62  63
ATOM     63  C   UNL     1      -3.833   1.409 133.926  0.00  0.00    +0.000 C 
ATOM     64  N   UNL     1      -2.649   0.666 133.471  0.00  0.00    +0.000 N 
ATOM     65  O   UNL     1      -3.848   1.932 135.084  0.00  0.00    +0.000 OA
ATOM     66  H   UNL     1      -2.637   0.260 132.573  0.00  0.00    +0.000 HD
ATOM     67  H   UNL     1      -1.868   0.574 134.062  0.00  0.00    +0.000 HD
ENDBRANCH  62  63
ENDBRANCH  18  62
BRANCH   5  68
ATOM     68  C   UNL     1      -2.671  -2.615 137.475  0.00  0.00    +0.000 C 
BRANCH  68  69
ATOM     69  C   UNL     1      -1.500  -2.853 136.536  0.00  0.00    +0.000 A 
ATOM     70  C   UNL     1      -1.247  -1.965 135.514  0.00  0.00    +0.000 A 
ATOM     71  C   UNL     1      -0.168  -2.155 134.643  0.00  0.00    +0.000 A 
ATOM     72  C   UNL     1       0.658  -3.277 134.863  0.00  0.00    +0.000 A 
ATOM     73  C   UNL     1       0.378  -4.171 135.868  0.00  0.00    +0.000 A 
ATOM     74  C   UNL     1      -0.696  -3.954 136.710  0.00  0.00    +0.000 A 
BRANCH  72  75
ATOM     75  O   UNL     1       1.737  -3.527 134.086  0.00  0.00    +0.000 OA
ATOM     76  H   UNL     1       2.341  -2.839 133.889  0.00  0.00    +0.000 HD
ENDBRANCH  72  75
ENDBRANCH  68  69
ENDBRANCH   5  68
BRANCH  22  77
ATOM     77  C   UNL     1      -4.860   5.832 132.466  0.00  0.00    +0.000 C 
BRANCH  77  78
ATOM     78  C   UNL     1      -6.323   6.203 132.654  0.00  0.00    +0.000 C 
BRANCH  78  79
ATOM     79  C   UNL     1      -6.852   6.840 131.379  0.00  0.00    +0.000 C 
ATOM     80  N   UNL     1      -8.294   6.836 131.099  0.00  0.00    +0.000 N 
ATOM     81  O   UNL     1      -6.045   7.376 130.556  0.00  0.00    +0.000 OA
ATOM     82  H   UNL     1      -8.918   6.421 131.738  0.00  0.00    +0.000 HD
ATOM     83  H   UNL     1      -8.637   7.249 130.274  0.00  0.00    +0.000 HD
ENDBRANCH  78  79
ENDBRANCH  77  78
ENDBRANCH  22  77
TORSDOF 19
ENDMDL
MODEL 4
REMARK VINA RESULT:      -7.7      1.573      3.015
REMARK  Name = CHEMBL1630524
REMARK  23 active torsions:
REMARK  status: ('A' for Active; 'I' for Inactive)
REMARK    1  A    between atoms: C_1  and  C_2
REMARK    2  A    between atoms: C_2  and  C_3
REMARK    3  A    between atoms: C_3  and  C_4
REMARK    4  A    between atoms: C_3  and  C_5
REMARK    5  A    between atoms: C_9  and  C_10
REMARK    6  A    between atoms: C_10  and  C_11
REMARK    7  A    between atoms: C_14  and  O_15
REMARK    8  A    between atoms: C_21  and  N_22
REMARK    9  A    between atoms: C_27  and  C_28
REMARK   10  A    between atoms: C_34  and  C_35
REMARK   11  A    between atoms: N_37  and  C_38
REMARK   12  A    between atoms: C_38  and  C_39
REMARK   13  A    between atoms: C_38  and  N_43
REMARK   14  A    between atoms: C_39  and  C_40
REMARK   15  A    between atoms: C_40  and  C_41
REMARK   16  A    between atoms: C_40  and  C_42
REMARK   17  A    between atoms: N_43  and  C_44
REMARK   18  A    between atoms: C_44  and  C_45
REMARK   19  A    between atoms: C_51  and  C_52
REMARK   20  A    between atoms: C_52  and  C_53
REMARK   21  A    between atoms: C_59  and  C_60
REMARK   22  A    between atoms: C_60  and  C_61
REMARK   23  A    between atoms: C_61  and  C_62
REMARK                            x       y       z     vdW  Elec       q    Type
REMARK                         _______ _______ _______ _____ _____    ______ ____
ROOT
ATOM      1  C   UNL     1      -3.453   6.775 128.592  0.00  0.00    +0.000 C 
ATOM      2  N   UNL     1      -5.665  -5.119 130.844  0.00  0.00    +0.000 N 
ATOM      3  C   UNL     1      -5.795  -3.729 131.305  0.00  0.00    +0.000 C 
ATOM      4  O   UNL     1      -4.777  -3.108 131.746  0.00  0.00    +0.000 OA
ATOM      5  C   UNL     1      -7.146  -3.035 131.254  0.00  0.00    +0.000 C 
ATOM      6  N   UNL     1      -7.538  -2.628 132.611  0.00  0.00    +0.000 N 
ATOM      7  C   UNL     1      -6.691  -1.700 133.375  0.00  0.00    +0.000 C 
ATOM      8  O   UNL     1      -7.031  -1.349 134.548  0.00  0.00    +0.000 OA
ATOM      9  C   UNL     1      -5.409  -1.163 132.762  0.00  0.00    +0.000 C 
ATOM     10  C   UNL     1      -5.481   0.354 132.685  0.00  0.00    +0.000 C 
ATOM     11 SE   UNL     1      -5.703   1.090 134.486  0.00  0.00    +0.000 Se
ATOM     12 SE   UNL     1      -5.817   3.484 134.364  0.00  0.00    +0.000 Se
ATOM     13  C   UNL     1      -6.039   4.221 136.167  0.00  0.00    +0.000 C 
ATOM     14  C   UNL     1      -6.112   5.737 136.089  0.00  0.00    +0.000 C 
ATOM     15  N   UNL     1      -4.871   6.258 135.496  0.00  0.00    +0.000 N 
ATOM     16  C   UNL     1      -4.478   5.851 134.139  0.00  0.00    +0.000 C 
ATOM     17  O   UNL     1      -3.405   6.300 133.627  0.00  0.00    +0.000 OA
ATOM     18  C   UNL     1      -5.353   4.892 133.349  0.00  0.00    +0.000 C 
ATOM     19  N   UNL     1      -5.799   5.544 132.109  0.00  0.00    +0.000 N 
ATOM     20  C   UNL     1      -4.809   6.011 131.128  0.00  0.00    +0.000 C 
ATOM     21  O   UNL     1      -5.193   6.574 130.055  0.00  0.00    +0.000 OA
ATOM     22  C   UNL     1      -3.325   5.819 131.395  0.00  0.00    +0.000 C 
ATOM     23  N   UNL     1      -2.737   4.994 130.330  0.00  0.00    +0.000 N 
ATOM     24  C   UNL     1      -2.790   5.451 128.934  0.00  0.00    +0.000 C 
ATOM     25  O   UNL     1      -2.281   4.738 128.012  0.00  0.00    +0.000 OA
ATOM     26  H   UNL     1      -5.711  -6.100 130.777  0.00  0.00    +0.000 HD
ATOM     27  H   UNL     1      -8.369  -2.976 133.008  0.00  0.00    +0.000 HD
ATOM     28  H   UNL     1      -4.304   6.879 136.008  0.00  0.00    +0.000 HD
ATOM     29  H   UNL     1      -6.760   5.668 131.936  0.00  0.00    +0.000 HD
ATOM     30  H   UNL     1      -2.308   4.137 130.552  0.00  0.00    +0.000 HD
ENDROOT
BRANCH  14  31
ATOM     31  C   UNL     1      -6.284   6.310 137.487  0.00  0.00    +0.000 C 
ATOM     32  O   UNL     1      -7.078   7.282 137.682  0.00  0.00    +0.000 OA
ATOM     33  N   UNL     1      -5.529   5.739 138.611  0.00  0.00    +0.000 N 
ATOM     34  C   UNL     1      -4.098   5.385 138.620  0.00  0.00    +0.000 C 
ATOM     35  C   UNL     1      -4.095   4.119 139.429  0.00  0.00    +0.000 C 
ATOM     36  C   UNL     1      -5.055   4.455 140.609  0.00  0.00    +0.000 C 
ATOM     37  C   UNL     1      -6.096   5.375 139.966  0.00  0.00    +0.000 C 
BRANCH  37  38
ATOM     38  C   UNL     1      -6.298   6.623 140.810  0.00  0.00    +0.000 C 
ATOM     39  O   UNL     1      -6.799   6.528 141.974  0.00  0.00    +0.000 OA
ATOM     40  N   UNL     1      -5.914   7.938 140.279  0.00  0.00    +0.000 N 
ATOM     41  H   UNL     1      -5.527   8.011 139.377  0.00  0.00    +0.000 HD
BRANCH  40  42
ATOM     42  C   UNL     1      -6.109   9.145 141.095  0.00  0.00    +0.000 C 
BRANCH  42  43
ATOM     43  N   UNL     1      -7.538   9.491 141.124  0.00  0.00    +0.000 NA
ATOM     44  H   UNL     1      -8.096   8.646 141.004  0.00  0.00    +0.000 HD
BRANCH  43  45
ATOM     45  C   UNL     1      -7.865  10.114 142.416  0.00  0.00    +0.000 C 
BRANCH  45  46
ATOM     46  C   UNL     1      -8.707  11.357 142.180  0.00  0.00    +0.000 C 
ATOM     47  N   UNL     1     -10.117  11.224 141.784  0.00  0.00    +0.000 N 
ATOM     48  O   UNL     1      -8.194  12.509 142.327  0.00  0.00    +0.000 OA
ATOM     49  H   UNL     1     -10.516  10.331 141.672  0.00  0.00    +0.000 HD
ATOM     50  H   UNL     1     -10.663  12.030 141.632  0.00  0.00    +0.000 HD
ENDBRANCH  45  46
ENDBRANCH  43  45
ENDBRANCH  42  43
BRANCH  42  51
ATOM     51  C   UNL     1      -5.321  10.296 140.493  0.00  0.00    +0.000 C 
BRANCH  51  52
ATOM     52  C   UNL     1      -6.047  10.821 139.266  0.00  0.00    +0.000 C 
ATOM     53  C   UNL     1      -6.177  12.333 139.362  0.00  0.00    +0.000 C 
ATOM     54  C   UNL     1      -5.259  10.459 138.017  0.00  0.00    +0.000 C 
ENDBRANCH  51  52
ENDBRANCH  42  51
ENDBRANCH  40  42
ENDBRANCH  37  38
ENDBRANCH  14  31
BRANCH   9  55
ATOM     55  N   UNL     1      -5.242  -1.716 131.410  0.00  0.00    +0.000 NA
ATOM     56  H   UNL     1      -4.262  -1.646 131.132  0.00  0.00    +0.000 HD
ATOM     57  H   UNL     1      -5.819  -1.191 130.754  0.00  0.00    +0.000 HD
ENDBRANCH   9  55
BRANCH   1  58
ATOM     58  C   UNL     1      -3.975   7.424 129.863  0.00  0.00    +0.000 C 
ATOM     59  C   UNL     1      -3.748   8.926 129.795  0.00  0.00    +0.000 C 
BRANCH  58  61
ATOM     60  C   UNL     1      -4.111   7.703 129.587  0.00  0.00    +0.000 C 
ATOM     61  C   UNL     1      -5.461   7.142 130.003  0.00  0.00    +0.000 C 
ENDBRANCH  58  61
ENDBRANCH   1  58
BRANCH  18  62
ATOM     62  C   UNL     1      -4.558   3.643 133.007  0.00  0.00    +0.000 C 
BRANCH  62  63
ATOM     63  C   UNL     1      -5.320   3.142 131.792  0.00  0.00    +0.000 C 
ATOM     64  N   UNL     1      -4.591   2.551 130.660  0.00  0.00    +0.000 N 
ATOM     65  O   UNL     1      -6.587   3.234 131.753  0.00  0.00    +0.000 OA
ATOM     66  H   UNL     1      -3.609   2.480 130.691  0.00  0.00    +0.000 HD
ATOM     67  H   UNL     1      -5.084   2.226 129.873  0.00  0.00    +0.000 HD
ENDBRANCH  62  63
ENDBRANCH  18  62
BRANCH   5  68
ATOM     68  C   UNL     1      -7.050  -1.805 130.364  0.00  0.00    +0.000 C 
BRANCH  68  69
ATOM     69  C   UNL     1      -7.691  -2.179 129.037  0.00  0.00    +0.000 A 
ATOM     70  C   UNL     1      -7.606  -1.316 127.967  0.00  0.00    +0.000 A 
ATOM     71  C   UNL     1      -8.178  -1.641 126.732  0.00  0.00    +0.000 A 
ATOM     72  C   UNL     1      -8.826  -2.889 126.621  0.00  0.00    +0.000 A 
ATOM     73  C   UNL     1      -8.929  -3.728 127.704  0.00  0.00    +0.000 A 
ATOM     74  C   UNL     1      -8.354  -3.376 128.910  0.00  0.00    +0.000 A 
BRANCH  72  75
ATOM     75  O   UNL     1      -9.387  -3.297 125.459  0.00  0.00    +0.000 OA
ATOM     76  H   UNL     1      -9.253  -4.174 125.158  0.00  0.00    +0.000 HD
ENDBRANCH  72  75
ENDBRANCH  68  69
ENDBRANCH   5  68
BRANCH  22  77
ATOM     77  C   UNL     1      -2.636   7.174 131.426  0.00  0.00    +0.000 C 
BRANCH  77  78
ATOM     78  C   UNL     1      -1.179   6.993 131.820  0.00  0.00    +0.000 C 
BRANCH  78  79
ATOM     79  C   UNL     1      -0.817   7.999 132.900  0.00  0.00    +0.000 C 
ATOM     80  N   UNL     1      -1.801   9.002 133.330  0.00  0.00    +0.000 N 
ATOM     81  O   UNL     1       0.337   7.973 133.430  0.00  0.00    +0.000 OA
ATOM     82  H   UNL     1      -2.696   9.021 132.919  0.00  0.00    +0.000 HD
ATOM     83  H   UNL     1      -1.567   9.653 134.030  0.00  0.00    +0.000 HD
ENDBRANCH  78  79
ENDBRANCH  77  78
ENDBRANCH  22  77
TORSDOF 19
ENDMDL
MODEL 5
REMARK VINA RESULT:      -7.6      4.675     11.295
REMARK  Name = CHEMBL1630524
REMARK  23 active torsions:
REMARK  status: ('A' for Active; 'I' for Inactive)
REMARK    1  A    between atoms: C_1  and  C_2
REMARK    2  A    between atoms: C_2  and  C_3
REMARK    3  A    between atoms: C_3  and  C_4
REMARK    4  A    between atoms: C_3  and  C_5
REMARK    5  A    between atoms: C_9  and  C_10
REMARK    6  A    between atoms: C_10  and  C_11
REMARK    7  A    between atoms: C_14  and  O_15
REMARK    8  A    between atoms: C_21  and  N_22
REMARK    9  A    between atoms: C_27  and  C_28
REMARK   10  A    between atoms: C_34  and  C_35
REMARK   11  A    between atoms: N_37  and  C_38
REMARK   12  A    between atoms: C_38  and  C_39
REMARK   13  A    between atoms: C_38  and  N_43
REMARK   14  A    between atoms: C_39  and  C_40
REMARK   15  A    between atoms: C_40  and  C_41
REMARK   16  A    between atoms: C_40  and  C_42
REMARK   17  A    between atoms: N_43  and  C_44
REMARK   18  A    between atoms: C_44  and  C_45
REMARK   19  A    between atoms: C_51  and  C_52
REMARK   20  A    between atoms: C_52  and  C_53
REMARK   21  A    between atoms: C_59  and  C_60
REMARK   22  A    between atoms: C_60  and  C_61
REMARK   23  A    between atoms: C_61  and  C_62
REMARK                            x       y       z     vdW  Elec       q    Type
REMARK                         _______ _______ _______ _____ _____    ______ ____
ROOT
ATOM      1  C   UNL     1      -4.291   5.333 136.198  0.00  0.00    +0.000 C 
ATOM      2  N   UNL     1      -6.485  -6.643 137.984  0.00  0.00    +0.000 N 
ATOM      3  C   UNL     1      -6.235  -5.564 137.018  0.00  0.00    +0.000 C 
ATOM      4  O   UNL     1      -7.145  -4.713 136.766  0.00  0.00    +0.000 OA
ATOM      5  C   UNL     1      -4.888  -5.465 136.322  0.00  0.00    +0.000 C 
ATOM      6  N   UNL     1      -5.079  -5.570 134.868  0.00  0.00    +0.000 N 
ATOM      7  C   UNL     1      -5.916  -4.588 134.164  0.00  0.00    +0.000 C 
ATOM      8  O   UNL     1      -6.081  -4.680 132.907  0.00  0.00    +0.000 OA
ATOM      9  C   UNL     1      -6.584  -3.464 134.938  0.00  0.00    +0.000 C 
ATOM     10  C   UNL     1      -6.101  -2.125 134.406  0.00  0.00    +0.000 C 
ATOM     11 SE   UNL     1      -6.559  -1.973 132.507  0.00  0.00    +0.000 Se
ATOM     12 SE   UNL     1      -5.796   0.142 131.667  0.00  0.00    +0.000 Se
ATOM     13  C   UNL     1      -6.255   0.294 129.767  0.00  0.00    +0.000 C 
ATOM     14  C   UNL     1      -5.771   1.633 129.235  0.00  0.00    +0.000 C 
ATOM     15  N   UNL     1      -6.417   2.721 129.985  0.00  0.00    +0.000 N 
ATOM     16  C   UNL     1      -6.226   2.826 131.438  0.00  0.00    +0.000 C 
ATOM     17  O   UNL     1      -6.785   3.767 132.086  0.00  0.00    +0.000 OA
ATOM     18  C   UNL     1      -5.361   1.812 132.167  0.00  0.00    +0.000 C 
ATOM     19  N   UNL     1      -4.243   2.503 132.824  0.00  0.00    +0.000 N 
ATOM     20  C   UNL     1      -4.509   3.534 133.837  0.00  0.00    +0.000 C 
ATOM     21  O   UNL     1      -3.542   4.132 134.406  0.00  0.00    +0.000 OA
ATOM     22  C   UNL     1      -5.942   3.885 134.205  0.00  0.00    +0.000 C 
ATOM     23  N   UNL     1      -6.157   3.627 135.636  0.00  0.00    +0.000 N 
ATOM     24  C   UNL     1      -5.349   4.336 136.640  0.00  0.00    +0.000 C 
ATOM     25  O   UNL     1      -5.536   4.113 137.878  0.00  0.00    +0.000 OA
ATOM     26  H   UNL     1      -6.665  -7.520 138.396  0.00  0.00    +0.000 HD
ATOM     27  H   UNL     1      -4.646  -6.298 134.366  0.00  0.00    +0.000 HD
ATOM     28  H   UNL     1      -6.977   3.378 129.512  0.00  0.00    +0.000 HD
ATOM     29  H   UNL     1      -3.314   2.276 132.586  0.00  0.00    +0.000 HD
ATOM     30  H   UNL     1      -6.842   2.982 135.923  0.00  0.00    +0.000 HD
ENDROOT
BRANCH  14  31
ATOM     31  C   UNL     1      -6.127   1.753 127.762  0.00  0.00    +0.000 C 
ATOM     32  O   UNL     1      -7.162   1.171 127.309  0.00  0.00    +0.000 OA
ATOM     33  N   UNL     1      -5.272   2.539 126.862  0.00  0.00    +0.000 N 
ATOM     34  C   UNL     1      -3.799   2.509 126.800  0.00  0.00    +0.000 C 
ATOM     35  C   UNL     1      -3.468   3.956 126.562  0.00  0.00    +0.000 C 
ATOM     36  C   UNL     1      -4.512   4.381 125.486  0.00  0.00    +0.000 C 
ATOM     37  C   UNL     1      -5.749   3.557 125.850  0.00  0.00    +0.000 C 
BRANCH  37  38
ATOM     38  C   UNL     1      -6.306   2.861 124.618  0.00  0.00    +0.000 C 
ATOM     39  O   UNL     1      -6.168   1.606 124.481  0.00  0.00    +0.000 OA
ATOM     40  N   UNL     1      -7.004   3.641 123.586  0.00  0.00    +0.000 N 
ATOM     41  H   UNL     1      -7.111   4.614 123.693  0.00  0.00    +0.000 HD
BRANCH  40  42
ATOM     42  C   UNL     1      -7.543   2.968 122.396  0.00  0.00    +0.000 C 
BRANCH  42  43
ATOM     43  N   UNL     1      -7.325   3.815 121.214  0.00  0.00    +0.000 NA
ATOM     44  H   UNL     1      -7.695   4.749 121.392  0.00  0.00    +0.000 HD
BRANCH  43  45
ATOM     45  C   UNL     1      -5.884   3.904 120.933  0.00  0.00    +0.000 C 
BRANCH  45  46
ATOM     46  C   UNL     1      -5.628   5.038 119.954  0.00  0.00    +0.000 C 
ATOM     47  N   UNL     1      -6.360   5.087 118.679  0.00  0.00    +0.000 N 
ATOM     48  O   UNL     1      -4.783   5.942 120.237  0.00  0.00    +0.000 OA
ATOM     49  H   UNL     1      -7.016   4.386 118.460  0.00  0.00    +0.000 HD
ATOM     50  H   UNL     1      -6.194   5.821 118.045  0.00  0.00    +0.000 HD
ENDBRANCH  45  46
ENDBRANCH  43  45
ENDBRANCH  42  43
BRANCH  42  51
ATOM     51  C   UNL     1      -9.032   2.727 122.580  0.00  0.00    +0.000 C 
BRANCH  51  52
ATOM     52  C   UNL     1      -9.253   1.346 123.176  0.00  0.00    +0.000 C 
ATOM     53  C   UNL     1      -9.817   1.485 124.580  0.00  0.00    +0.000 C 
ATOM     54  C   UNL     1     -10.233   0.572 122.310  0.00  0.00    +0.000 C 
ENDBRANCH  51  52
ENDBRANCH  42  51
ENDBRANCH  40  42
ENDBRANCH  37  38
ENDBRANCH  14  31
BRANCH   9  55
ATOM     55  N   UNL     1      -6.240  -3.579 136.363  0.00  0.00    +0.000 NA
ATOM     56  H   UNL     1      -7.083  -3.461 136.927  0.00  0.00    +0.000 HD
ATOM     57  H   UNL     1      -5.563  -2.858 136.609  0.00  0.00    +0.000 HD
ENDBRANCH   9  55
BRANCH   1  58
ATOM     58  C   UNL     1      -4.272   5.412 134.680  0.00  0.00    +0.000 C 
ATOM     59  C   UNL     1      -4.153   6.865 134.250  0.00  0.00    +0.000 C 
BRANCH  58  61
ATOM     60  C   UNL     1      -3.973   5.612 134.888  0.00  0.00    +0.000 C 
ATOM     61  C   UNL     1      -3.084   4.627 134.147  0.00  0.00    +0.000 C 
ENDBRANCH  58  61
ENDBRANCH   1  58
BRANCH  18  62
ATOM     62  C   UNL     1      -6.195   1.091 133.212  0.00  0.00    +0.000 C 
BRANCH  62  63
ATOM     63  C   UNL     1      -5.122   0.695 134.213  0.00  0.00    +0.000 C 
ATOM     64  N   UNL     1      -3.854   0.119 133.740  0.00  0.00    +0.000 N 
ATOM     65  O   UNL     1      -5.320   0.861 135.457  0.00  0.00    +0.000 OA
ATOM     66  H   UNL     1      -3.702  -0.010 132.776  0.00  0.00    +0.000 HD
ATOM     67  H   UNL     1      -3.159  -0.138 134.388  0.00  0.00    +0.000 HD
ENDBRANCH  62  63
ENDBRANCH  18  62
BRANCH   5  68
ATOM     68  C   UNL     1      -4.243  -4.128 136.652  0.00  0.00    +0.000 C 
BRANCH  68  69
ATOM     69  C   UNL     1      -2.784  -4.236 136.242  0.00  0.00    +0.000 A 
ATOM     70  C   UNL     1      -2.016  -5.283 136.704  0.00  0.00    +0.000 A 
ATOM     71  C   UNL     1      -0.673  -5.412 136.331  0.00  0.00    +0.000 A 
ATOM     72  C   UNL     1      -0.144  -4.442 135.454  0.00  0.00    +0.000 A 
ATOM     73  C   UNL     1      -0.912  -3.387 135.023  0.00  0.00    +0.000 A 
ATOM     74  C   UNL     1      -2.234  -3.289 135.411  0.00  0.00    +0.000 A 
BRANCH  72  75
ATOM     75  O   UNL     1       1.137  -4.500 135.022  0.00  0.00    +0.000 OA
ATOM     76  H   UNL     1       1.838  -4.545 135.641  0.00  0.00    +0.000 HD
ENDBRANCH  72  75
ENDBRANCH  68  69
ENDBRANCH   5  68
BRANCH  22  77
ATOM     77  C   UNL     1      -6.195   5.354 133.910  0.00  0.00    +0.000 C 
BRANCH  77  78
ATOM     78  C   UNL     1      -7.564   5.748 134.441  0.00  0.00    +0.000 C 
BRANCH  78  79
ATOM     79  C   UNL     1      -8.566   5.762 133.297  0.00  0.00    +0.000 C 
ATOM     80  N   UNL     1      -9.713   4.844 133.313  0.00  0.00    +0.000 N 
ATOM     81  O   UNL     1      -8.410   6.568 132.327  0.00  0.00    +0.000 OA
ATOM     82  H   UNL     1      -9.833   4.220 134.065  0.00  0.00    +0.000 HD
ATOM     83  H   UNL     1     -10.361   4.853 132.573  0.00  0.00    +0.000 HD
ENDBRANCH  78  79
ENDBRANCH  77  78
ENDBRANCH  22  77
TORSDOF 19
ENDMDL
MODEL 6
REMARK VINA RESULT:      -7.5      3.787     12.820
REMARK  Name = CHEMBL1630524
REMARK  23 active torsions:
REMARK  status: ('A' for Active; 'I' for Inactive)
REMARK    1  A    between atoms: C_1  and  C_2
REMARK    2  A    between atoms: C_2  and  C_3
REMARK    3  A    between atoms: C_3  and  C_4
REMARK    4  A    between atoms: C_3  and  C_5
REMARK    5  A    between atoms: C_9  and  C_10
REMARK    6  A    between atoms: C_10  and  C_11
REMARK    7  A    between atoms: C_14  and  O_15
REMARK    8  A    between atoms: C_21  and  N_22
REMARK    9  A    between atoms: C_27  and  C_28
REMARK   10  A    between atoms: C_34  and  C_35
REMARK   11  A    between atoms: N_37  and  C_38
REMARK   12  A    between atoms: C_38  and  C_39
REMARK   13  A    between atoms: C_38  and  N_43
REMARK   14  A    between atoms: C_39  and  C_40
REMARK   15  A    between atoms: C_40  and  C_41
REMARK   16  A    between atoms: C_40  and  C_42
REMARK   17  A    between atoms: N_43  and  C_44
REMARK   18  A    between atoms: C_44  and  C_45
REMARK   19  A    between atoms: C_51  and  C_52
REMARK   20  A    between atoms: C_52  and  C_53
REMARK   21  A    between atoms: C_59  and  C_60
REMARK   22  A    between atoms: C_60  and  C_61
REMARK   23  A    between atoms: C_61  and  C_62
REMARK                            x       y       z     vdW  Elec       q    Type
REMARK                         _______ _______ _______ _____ _____    ______ ____
ROOT
ATOM      1  C   UNL     1      -5.937  -3.725 134.134  0.00  0.00    +0.000 C 
ATOM      2  N   UNL     1      -2.697   6.331 140.442  0.00  0.00    +0.000 N 
ATOM      3  C   UNL     1      -3.281   5.780 139.211  0.00  0.00    +0.000 C 
ATOM      4  O   UNL     1      -2.533   5.222 138.348  0.00  0.00    +0.000 OA
ATOM      5  C   UNL     1      -4.778   5.878 138.972  0.00  0.00    +0.000 C 
ATOM      6  N   UNL     1      -5.028   6.640 137.739  0.00  0.00    +0.000 N 
ATOM      7  C   UNL     1      -4.494   6.160 136.457  0.00  0.00    +0.000 C 
ATOM      8  O   UNL     1      -4.710   6.819 135.392  0.00  0.00    +0.000 OA
ATOM      9  C   UNL     1      -3.682   4.876 136.404  0.00  0.00    +0.000 C 
ATOM     10  C   UNL     1      -4.371   3.878 135.488  0.00  0.00    +0.000 C 
ATOM     11 SE   UNL     1      -4.514   4.636 133.686  0.00  0.00    +0.000 Se
ATOM     12 SE   UNL     1      -5.602   3.060 132.240  0.00  0.00    +0.000 Se
ATOM     13  C   UNL     1      -5.744   3.818 130.438  0.00  0.00    +0.000 C 
ATOM     14  C   UNL     1      -6.434   2.819 129.522  0.00  0.00    +0.000 C 
ATOM     15  N   UNL     1      -5.648   1.577 129.471  0.00  0.00    +0.000 N 
ATOM     16  C   UNL     1      -5.399   0.815 130.702  0.00  0.00    +0.000 C 
ATOM     17  O   UNL     1      -4.720  -0.259 130.658  0.00  0.00    +0.000 OA
ATOM     18  C   UNL     1      -5.951   1.310 132.029  0.00  0.00    +0.000 C 
ATOM     19  N   UNL     1      -6.853   0.297 132.593  0.00  0.00    +0.000 N 
ATOM     20  C   UNL     1      -6.347  -1.048 132.900  0.00  0.00    +0.000 C 
ATOM     21  O   UNL     1      -7.127  -1.926 133.388  0.00  0.00    +0.000 OA
ATOM     22  C   UNL     1      -4.890  -1.391 132.635  0.00  0.00    +0.000 C 
ATOM     23  N   UNL     1      -4.241  -1.783 133.894  0.00  0.00    +0.000 N 
ATOM     24  C   UNL     1      -4.745  -2.937 134.652  0.00  0.00    +0.000 C 
ATOM     25  O   UNL     1      -4.183  -3.276 135.741  0.00  0.00    +0.000 OA
ATOM     26  H   UNL     1      -2.357   6.943 141.135  0.00  0.00    +0.000 HD
ATOM     27  H   UNL     1      -5.554   7.472 137.773  0.00  0.00    +0.000 HD
ATOM     28  H   UNL     1      -5.291   1.256 128.611  0.00  0.00    +0.000 HD
ATOM     29  H   UNL     1      -7.797   0.518 132.765  0.00  0.00    +0.000 HD
ATOM     30  H   UNL     1      -3.470  -1.273 134.229  0.00  0.00    +0.000 HD
ENDROOT
BRANCH  14  31
ATOM     31  C   UNL     1      -6.545   3.406 128.123  0.00  0.00    +0.000 C 
ATOM     32  O   UNL     1      -7.632   3.942 127.744  0.00  0.00    +0.000 OA
ATOM     33  N   UNL     1      -5.394   3.350 127.211  0.00  0.00    +0.000 N 
ATOM     34  C   UNL     1      -4.523   2.186 126.966  0.00  0.00    +0.000 C 
ATOM     35  C   UNL     1      -3.170   2.831 126.839  0.00  0.00    +0.000 C 
ATOM     36  C   UNL     1      -3.459   4.077 125.949  0.00  0.00    +0.000 C 
ATOM     37  C   UNL     1      -4.868   4.496 126.376  0.00  0.00    +0.000 C 
BRANCH  37  38
ATOM     38  C   UNL     1      -5.750   4.714 125.157  0.00  0.00    +0.000 C 
ATOM     39  O   UNL     1      -6.405   5.795 125.031  0.00  0.00    +0.000 OA
ATOM     40  N   UNL     1      -5.845   3.672 124.124  0.00  0.00    +0.000 N 
ATOM     41  H   UNL     1      -5.337   2.834 124.222  0.00  0.00    +0.000 HD
BRANCH  40  42
ATOM     42  C   UNL     1      -6.698   3.882 122.946  0.00  0.00    +0.000 C 
BRANCH  42  43
ATOM     43  N   UNL     1      -8.110   3.737 123.330  0.00  0.00    +0.000 NA
ATOM     44  H   UNL     1      -8.662   4.464 122.876  0.00  0.00    +0.000 HD
BRANCH  43  45
ATOM     45  C   UNL     1      -8.599   2.415 122.911  0.00  0.00    +0.000 C 
BRANCH  45  46
ATOM     46  C   UNL     1      -8.884   1.567 124.139  0.00  0.00    +0.000 C 
ATOM     47  N   UNL     1      -8.687   2.131 125.483  0.00  0.00    +0.000 N 
ATOM     48  O   UNL     1      -9.293   0.372 124.005  0.00  0.00    +0.000 OA
ATOM     49  H   UNL     1      -8.372   3.057 125.587  0.00  0.00    +0.000 HD
ATOM     50  H   UNL     1      -8.873   1.582 126.279  0.00  0.00    +0.000 HD
ENDBRANCH  45  46
ENDBRANCH  43  45
ENDBRANCH  42  43
BRANCH  42  51
ATOM     51  C   UNL     1      -6.354   2.852 121.882  0.00  0.00    +0.000 C 
BRANCH  51  52
ATOM     52  C   UNL     1      -5.842   3.560 120.638  0.00  0.00    +0.000 C 
ATOM     53  C   UNL     1      -7.019   4.114 119.851  0.00  0.00    +0.000 C 
ATOM     54  C   UNL     1      -4.923   4.699 121.045  0.00  0.00    +0.000 C 
ENDBRANCH  51  52
ENDBRANCH  42  51
ENDBRANCH  40  42
ENDBRANCH  37  38
ENDBRANCH  14  31
BRANCH   9  55
ATOM     55  N   UNL     1      -3.575   4.309 137.756  0.00  0.00    +0.000 NA
ATOM     56  H   UNL     1      -2.590   4.191 137.998  0.00  0.00    +0.000 HD
ATOM     57  H   UNL     1      -4.041   3.403 137.783  0.00  0.00    +0.000 HD
ENDBRANCH   9  55
BRANCH   1  58
ATOM     58  C   UNL     1      -6.416  -3.118 132.825  0.00  0.00    +0.000 C 
ATOM     59  C   UNL     1      -6.552  -4.213 131.779  0.00  0.00    +0.000 C 
BRANCH  58  61
ATOM     60  C   UNL     1      -6.637  -3.462 132.901  0.00  0.00    +0.000 C 
ATOM     61  C   UNL     1      -7.765  -2.452 133.041  0.00  0.00    +0.000 C 
ENDBRANCH  58  61
ENDBRANCH   1  58
BRANCH  18  62
ATOM     62  C   UNL     1      -4.805   1.561 132.994  0.00  0.00    +0.000 C 
BRANCH  62  63
ATOM     63  C   UNL     1      -5.524   1.454 134.328  0.00  0.00    +0.000 C 
ATOM     64  N   UNL     1      -4.853   0.828 135.477  0.00  0.00    +0.000 N 
ATOM     65  O   UNL     1      -6.706   1.905 134.451  0.00  0.00    +0.000 OA
ATOM     66  H   UNL     1      -3.937   0.478 135.381  0.00  0.00    +0.000 HD
ATOM     67  H   UNL     1      -5.319   0.758 136.341  0.00  0.00    +0.000 HD
ENDBRANCH  62  63
ENDBRANCH  18  62
BRANCH   5  68
ATOM     68  C   UNL     1      -5.361   4.480 138.829  0.00  0.00    +0.000 C 
BRANCH  68  69
ATOM     69  C   UNL     1      -6.029   4.151 140.155  0.00  0.00    +0.000 A 
ATOM     70  C   UNL     1      -5.910   2.887 140.688  0.00  0.00    +0.000 A 
ATOM     71  C   UNL     1      -6.505   2.562 141.912  0.00  0.00    +0.000 A 
ATOM     72  C   UNL     1      -7.213   3.580 142.584  0.00  0.00    +0.000 A 
ATOM     73  C   UNL     1      -7.349   4.829 142.028  0.00  0.00    +0.000 A 
ATOM     74  C   UNL     1      -6.749   5.116 140.817  0.00  0.00    +0.000 A 
BRANCH  72  75
ATOM     75  O   UNL     1      -7.801   3.363 143.783  0.00  0.00    +0.000 OA
ATOM     76  H   UNL     1      -8.673   3.668 143.939  0.00  0.00    +0.000 HD
ENDBRANCH  72  75
ENDBRANCH  68  69
ENDBRANCH   5  68
BRANCH  22  77
ATOM     77  C   UNL     1      -4.813  -2.543 131.645  0.00  0.00    +0.000 C 
BRANCH  77  78
ATOM     78  C   UNL     1      -3.366  -2.761 131.234  0.00  0.00    +0.000 C 
BRANCH  78  79
ATOM     79  C   UNL     1      -3.295  -3.000 129.734  0.00  0.00    +0.000 C 
ATOM     80  N   UNL     1      -4.287  -2.382 128.844  0.00  0.00    +0.000 N 
ATOM     81  O   UNL     1      -2.377  -3.735 129.251  0.00  0.00    +0.000 OA
ATOM     82  H   UNL     1      -4.998  -1.813 129.219  0.00  0.00    +0.000 HD
ATOM     83  H   UNL     1      -4.241  -2.536 127.873  0.00  0.00    +0.000 HD
ENDBRANCH  78  79
ENDBRANCH  77  78
ENDBRANCH  22  77
TORSDOF 19
ENDMDL
MODEL 7
REMARK VINA RESULT:      -7.5      4.061     12.867
REMARK  Name = CHEMBL1630524
REMARK  23 active torsions:
REMARK  status: ('A' for Active; 'I' for Inactive)
REMARK    1  A    between atoms: C_1  and  C_2
REMARK    2  A    between atoms: C_2  and  C_3
REMARK    3  A    between atoms: C_3  and  C_4
REMARK    4  A    between atoms: C_3  and  C_5
REMARK    5  A    between atoms: C_9  and  C_10
REMARK    6  A    between atoms: C_10  and  C_11
REMARK    7  A    between atoms: C_14  and  O_15
REMARK    8  A    between atoms: C_21  and  N_22
REMARK    9  A    between atoms: C_27  and  C_28
REMARK   10  A    between atoms: C_34  and  C_35
REMARK   11  A    between atoms: N_37  and  C_38
REMARK   12  A    between atoms: C_38  and  C_39
REMARK   13  A    between atoms: C_38  and  N_43
REMARK   14  A    between atoms: C_39  and  C_40
REMARK   15  A    between atoms: C_40  and  C_41
REMARK   16  A    between atoms: C_40  and  C_42
REMARK   17  A    between atoms: N_43  and  C_44
REMARK   18  A    between atoms: C_44  and  C_45
REMARK   19  A    between atoms: C_51  and  C_52
REMARK   20  A    between atoms: C_52  and  C_53
REMARK   21  A    between atoms: C_59  and  C_60
REMARK   22  A    between atoms: C_60  and  C_61
REMARK   23  A    between atoms: C_61  and  C_62
REMARK                            x       y       z     vdW  Elec       q    Type
REMARK                         _______ _______ _______ _____ _____    ______ ____
ROOT
ATOM      1  C   UNL     1      -4.551  -1.838 135.252  0.00  0.00    +0.000 C 
ATOM      2  N   UNL     1       1.074   9.049 136.378  0.00  0.00    +0.000 N 
ATOM      3  C   UNL     1       0.049   8.254 135.687  0.00  0.00    +0.000 C 
ATOM      4  O   UNL     1       0.393   7.370 134.842  0.00  0.00    +0.000 OA
ATOM      5  C   UNL     1      -1.423   8.489 135.986  0.00  0.00    +0.000 C 
ATOM      6  N   UNL     1      -2.114   8.890 134.752  0.00  0.00    +0.000 N 
ATOM      7  C   UNL     1      -2.127   7.989 133.590  0.00  0.00    +0.000 C 
ATOM      8  O   UNL     1      -2.725   8.336 132.524  0.00  0.00    +0.000 OA
ATOM      9  C   UNL     1      -1.424   6.643 133.664  0.00  0.00    +0.000 C 
ATOM     10  C   UNL     1      -2.433   5.531 133.430  0.00  0.00    +0.000 C 
ATOM     11 SE   UNL     1      -3.246   5.747 131.661  0.00  0.00    +0.000 Se
ATOM     12 SE   UNL     1      -4.839   3.991 131.292  0.00  0.00    +0.000 Se
ATOM     13  C   UNL     1      -5.652   4.207 129.521  0.00  0.00    +0.000 C 
ATOM     14  C   UNL     1      -6.662   3.095 129.289  0.00  0.00    +0.000 C 
ATOM     15  N   UNL     1      -5.982   1.793 129.360  0.00  0.00    +0.000 N 
ATOM     16  C   UNL     1      -5.291   1.393 130.594  0.00  0.00    +0.000 C 
ATOM     17  O   UNL     1      -4.703   0.267 130.656  0.00  0.00    +0.000 OA
ATOM     18  C   UNL     1      -5.278   2.323 131.795  0.00  0.00    +0.000 C 
ATOM     19  N   UNL     1      -5.912   1.654 132.940  0.00  0.00    +0.000 N 
ATOM     20  C   UNL     1      -5.353   0.398 133.459  0.00  0.00    +0.000 C 
ATOM     21  O   UNL     1      -5.901  -0.181 134.449  0.00  0.00    +0.000 OA
ATOM     22  C   UNL     1      -4.119  -0.210 132.812  0.00  0.00    +0.000 C 
ATOM     23  N   UNL     1      -3.041  -0.308 133.807  0.00  0.00    +0.000 N 
ATOM     24  C   UNL     1      -3.236  -1.111 135.023  0.00  0.00    +0.000 C 
ATOM     25  O   UNL     1      -2.304  -1.196 135.884  0.00  0.00    +0.000 OA
ATOM     26  H   UNL     1       1.667   9.781 136.666  0.00  0.00    +0.000 HD
ATOM     27  H   UNL     1      -2.570   9.761 134.703  0.00  0.00    +0.000 HD
ATOM     28  H   UNL     1      -5.991   1.190 128.582  0.00  0.00    +0.000 HD
ATOM     29  H   UNL     1      -6.711   2.047 133.360  0.00  0.00    +0.000 HD
ATOM     30  H   UNL     1      -2.190   0.163 133.658  0.00  0.00    +0.000 HD
ENDROOT
BRANCH  14  31
ATOM     31  C   UNL     1      -7.293   3.262 127.915  0.00  0.00    +0.000 C 
ATOM     32  O   UNL     1      -8.558   3.264 127.794  0.00  0.00    +0.000 OA
ATOM     33  N   UNL     1      -6.439   3.418 126.730  0.00  0.00    +0.000 N 
ATOM     34  C   UNL     1      -5.240   2.626 126.401  0.00  0.00    +0.000 C 
ATOM     35  C   UNL     1      -4.329   3.669 125.813  0.00  0.00    +0.000 C 
ATOM     36  C   UNL     1      -5.282   4.484 124.888  0.00  0.00    +0.000 C 
ATOM     37  C   UNL     1      -6.616   4.450 125.639  0.00  0.00    +0.000 C 
BRANCH  37  38
ATOM     38  C   UNL     1      -7.743   4.045 124.702  0.00  0.00    +0.000 C 
ATOM     39  O   UNL     1      -8.948   4.088 125.102  0.00  0.00    +0.000 OA
ATOM     40  N   UNL     1      -7.438   3.604 123.334  0.00  0.00    +0.000 N 
ATOM     41  H   UNL     1      -6.504   3.571 123.024  0.00  0.00    +0.000 HD
BRANCH  40  42
ATOM     42  C   UNL     1      -8.527   3.213 122.428  0.00  0.00    +0.000 C 
BRANCH  42  43
ATOM     43  N   UNL     1      -9.044   1.894 122.824  0.00  0.00    +0.000 NA
ATOM     44  H   UNL     1      -9.462   1.435 122.015  0.00  0.00    +0.000 HD
BRANCH  43  45
ATOM     45  C   UNL     1      -7.939   1.070 123.338  0.00  0.00    +0.000 C 
BRANCH  45  46
ATOM     46  C   UNL     1      -8.406   0.307 124.567  0.00  0.00    +0.000 C 
ATOM     47  N   UNL     1      -9.089   1.019 125.657  0.00  0.00    +0.000 N 
ATOM     48  O   UNL     1      -8.205  -0.944 124.652  0.00  0.00    +0.000 OA
ATOM     49  H   UNL     1      -9.245   1.988 125.591  0.00  0.00    +0.000 HD
ATOM     50  H   UNL     1      -9.391   0.524 126.453  0.00  0.00    +0.000 HD
ENDBRANCH  45  46
ENDBRANCH  43  45
ENDBRANCH  42  43
BRANCH  42  51
ATOM     51  C   UNL     1      -8.002   3.145 121.004  0.00  0.00    +0.000 C 
BRANCH  51  52
ATOM     52  C   UNL     1      -6.680   3.888 120.915  0.00  0.00    +0.000 C 
ATOM     53  C   UNL     1      -5.533   2.895 121.015  0.00  0.00    +0.000 C 
ATOM     54  C   UNL     1      -6.599   4.623 119.587  0.00  0.00    +0.000 C 
ENDBRANCH  51  52
ENDBRANCH  42  51
ENDBRANCH  40  42
ENDBRANCH  37  38
ENDBRANCH  14  31
BRANCH   9  55
ATOM     55  N   UNL     1      -0.814   6.482 134.992  0.00  0.00    +0.000 NA
ATOM     56  H   UNL     1      -1.195   7.182 135.629  0.00  0.00    +0.000 HD
ATOM     57  H   UNL     1       0.196   6.603 134.920  0.00  0.00    +0.000 HD
ENDBRANCH   9  55
BRANCH   1  58
ATOM     58  C   UNL     1      -5.486  -1.574 134.083  0.00  0.00    +0.000 C 
ATOM     59  C   UNL     1      -6.170  -2.870 133.680  0.00  0.00    +0.000 C 
BRANCH  58  61
ATOM     60  C   UNL     1      -5.682  -1.805 134.368  0.00  0.00    +0.000 C 
ATOM     61  C   UNL     1      -6.534  -0.553 134.495  0.00  0.00    +0.000 C 
ENDBRANCH  58  61
ENDBRANCH   1  58
BRANCH  18  62
ATOM     62  C   UNL     1      -3.843   2.677 132.147  0.00  0.00    +0.000 C 
BRANCH  62  63
ATOM     63  C   UNL     1      -3.995   3.078 133.605  0.00  0.00    +0.000 C 
ATOM     64  N   UNL     1      -2.990   2.658 134.592  0.00  0.00    +0.000 N 
ATOM     65  O   UNL     1      -4.993   3.776 133.972  0.00  0.00    +0.000 OA
ATOM     66  H   UNL     1      -2.217   2.117 134.307  0.00  0.00    +0.000 HD
ATOM     67  H   UNL     1      -3.088   2.918 135.536  0.00  0.00    +0.000 HD
ENDBRANCH  62  63
ENDBRANCH  18  62
BRANCH   5  68
ATOM     68  C   UNL     1      -2.043   7.207 136.520  0.00  0.00    +0.000 C 
BRANCH  68  69
ATOM     69  C   UNL     1      -3.475   7.544 136.902  0.00  0.00    +0.000 A 
ATOM     70  C   UNL     1      -3.731   8.613 137.732  0.00  0.00    +0.000 A 
ATOM     71  C   UNL     1      -5.041   8.951 138.089  0.00  0.00    +0.000 A 
ATOM     72  C   UNL     1      -6.085   8.169 137.554  0.00  0.00    +0.000 A 
ATOM     73  C   UNL     1      -5.815   7.088 136.751  0.00  0.00    +0.000 A 
ATOM     74  C   UNL     1      -4.510   6.781 136.418  0.00  0.00    +0.000 A 
BRANCH  72  75
ATOM     75  O   UNL     1      -7.384   8.437 137.826  0.00  0.00    +0.000 OA
ATOM     76  H   UNL     1      -7.634   8.713 138.685  0.00  0.00    +0.000 HD
ENDBRANCH  72  75
ENDBRANCH  68  69
ENDBRANCH   5  68
BRANCH  22  77
ATOM     77  C   UNL     1      -4.453  -1.597 132.287  0.00  0.00    +0.000 C 
BRANCH  77  78
ATOM     78  C   UNL     1      -3.252  -2.160 131.545  0.00  0.00    +0.000 C 
BRANCH  78  79
ATOM     79  C   UNL     1      -3.729  -3.072 130.426  0.00  0.00    +0.000 C 
ATOM     80  N   UNL     1      -2.786  -3.526 129.395  0.00  0.00    +0.000 N 
ATOM     81  O   UNL     1      -4.945  -3.440 130.382  0.00  0.00    +0.000 OA
ATOM     82  H   UNL     1      -1.844  -3.240 129.429  0.00  0.00    +0.000 HD
ATOM     83  H   UNL     1      -3.095  -4.116 128.670  0.00  0.00    +0.000 HD
ENDBRANCH  78  79
ENDBRANCH  77  78
ENDBRANCH  22  77
TORSDOF 19
ENDMDL
MODEL 8
REMARK VINA RESULT:      -7.4      4.181     10.632
REMARK  Name = CHEMBL1630524
REMARK  23 active torsions:
REMARK  status: ('A' for Active; 'I' for Inactive)
REMARK    1  A    between atoms: C_1  and  C_2
REMARK    2  A    between atoms: C_2  and  C_3
REMARK    3  A    between atoms: C_3  and  C_4
REMARK    4  A    between atoms: C_3  and  C_5
REMARK    5  A    between atoms: C_9  and  C_10
REMARK    6  A    between atoms: C_10  and  C_11
REMARK    7  A    between atoms: C_14  and  O_15
REMARK    8  A    between atoms: C_21  and  N_22
REMARK    9  A    between atoms: C_27  and  C_28
REMARK   10  A    between atoms: C_34  and  C_35
REMARK   11  A    between atoms: N_37  and  C_38
REMARK   12  A    between atoms: C_38  and  C_39
REMARK   13  A    between atoms: C_38  and  N_43
REMARK   14  A    between atoms: C_39  and  C_40
REMARK   15  A    between atoms: C_40  and  C_41
REMARK   16  A    between atoms: C_40  and  C_42
REMARK   17  A    between atoms: N_43  and  C_44
REMARK   18  A    between atoms: C_44  and  C_45
REMARK   19  A    between atoms: C_51  and  C_52
REMARK   20  A    between atoms: C_52  and  C_53
REMARK   21  A    between atoms: C_59  and  C_60
REMARK   22  A    between atoms: C_60  and  C_61
REMARK   23  A    between atoms: C_61  and  C_62
REMARK                            x       y       z     vdW  Elec       q    Type
REMARK                         _______ _______ _______ _____ _____    ______ ____
ROOT
ATOM      1  C   UNL     1      -3.930   6.004 137.812  0.00  0.00    +0.000 C 
ATOM      2  N   UNL     1      -4.527  -6.285 137.597  0.00  0.00    +0.000 N 
ATOM      3  C   UNL     1      -4.540  -5.034 136.825  0.00  0.00    +0.000 C 
ATOM      4  O   UNL     1      -5.564  -4.282 136.853  0.00  0.00    +0.000 OA
ATOM      5  C   UNL     1      -3.329  -4.641 135.996  0.00  0.00    +0.000 C 
ATOM      6  N   UNL     1      -3.720  -4.522 134.584  0.00  0.00    +0.000 N 
ATOM      7  C   UNL     1      -4.753  -3.555 134.185  0.00  0.00    +0.000 C 
ATOM      8  O   UNL     1      -5.090  -3.453 132.965  0.00  0.00    +0.000 OA
ATOM      9  C   UNL     1      -5.417  -2.677 135.233  0.00  0.00    +0.000 C 
ATOM     10  C   UNL     1      -5.165  -1.215 134.904  0.00  0.00    +0.000 C 
ATOM     11 SE   UNL     1      -5.912  -0.805 133.140  0.00  0.00    +0.000 Se
ATOM     12 SE   UNL     1      -5.514   1.503 132.619  0.00  0.00    +0.000 Se
ATOM     13  C   UNL     1      -6.262   1.913 130.854  0.00  0.00    +0.000 C 
ATOM     14  C   UNL     1      -6.010   3.376 130.524  0.00  0.00    +0.000 C 
ATOM     15  N   UNL     1      -6.652   4.225 131.539  0.00  0.00    +0.000 N 
ATOM     16  C   UNL     1      -6.262   4.106 132.950  0.00  0.00    +0.000 C 
ATOM     17  O   UNL     1      -6.817   4.841 133.827  0.00  0.00    +0.000 OA
ATOM     18  C   UNL     1      -5.194   3.107 133.363  0.00  0.00    +0.000 C 
ATOM     19  N   UNL     1      -4.073   3.819 133.992  0.00  0.00    +0.000 N 
ATOM     20  C   UNL     1      -4.297   4.619 135.204  0.00  0.00    +0.000 C 
ATOM     21  O   UNL     1      -3.328   5.235 135.749  0.00  0.00    +0.000 OA
ATOM     22  C   UNL     1      -5.689   4.708 135.808  0.00  0.00    +0.000 C 
ATOM     23  N   UNL     1      -5.663   4.186 137.182  0.00  0.00    +0.000 N 
ATOM     24  C   UNL     1      -4.797   4.814 138.190  0.00  0.00    +0.000 C 
ATOM     25  O   UNL     1      -4.774   4.362 139.379  0.00  0.00    +0.000 OA
ATOM     26  H   UNL     1      -4.548  -7.235 137.857  0.00  0.00    +0.000 HD
ATOM     27  H   UNL     1      -3.289  -5.090 133.905  0.00  0.00    +0.000 HD
ATOM     28  H   UNL     1      -7.344   4.872 131.271  0.00  0.00    +0.000 HD
ATOM     29  H   UNL     1      -3.171   3.762 133.601  0.00  0.00    +0.000 HD
ATOM     30  H   UNL     1      -6.224   3.416 137.426  0.00  0.00    +0.000 HD
ENDROOT
BRANCH  14  31
ATOM     31  C   UNL     1      -6.590   3.695 129.156  0.00  0.00    +0.000 C 
ATOM     32  O   UNL     1      -7.775   4.143 129.056  0.00  0.00    +0.000 OA
ATOM     33  N   UNL     1      -5.780   3.483 127.948  0.00  0.00    +0.000 N 
ATOM     34  C   UNL     1      -4.953   2.302 127.641  0.00  0.00    +0.000 C 
ATOM     35  C   UNL     1      -3.753   2.923 126.982  0.00  0.00    +0.000 C 
ATOM     36  C   UNL     1      -4.387   3.983 126.031  0.00  0.00    +0.000 C 
ATOM     37  C   UNL     1      -5.618   4.461 126.805  0.00  0.00    +0.000 C 
BRANCH  37  38
ATOM     38  C   UNL     1      -6.849   4.443 125.913  0.00  0.00    +0.000 C 
ATOM     39  O   UNL     1      -7.832   5.205 126.171  0.00  0.00    +0.000 OA
ATOM     40  N   UNL     1      -6.900   3.544 124.751  0.00  0.00    +0.000 N 
ATOM     41  H   UNL     1      -6.138   2.953 124.552  0.00  0.00    +0.000 HD
BRANCH  40  42
ATOM     42  C   UNL     1      -8.090   3.527 123.888  0.00  0.00    +0.000 C 
BRANCH  42  43
ATOM     43  N   UNL     1      -9.207   2.896 124.606  0.00  0.00    +0.000 NA
ATOM     44  H   UNL     1     -10.087   3.150 124.158  0.00  0.00    +0.000 HD
BRANCH  43  45
ATOM     45  C   UNL     1      -9.046   1.434 124.576  0.00  0.00    +0.000 C 
BRANCH  45  46
ATOM     46  C   UNL     1      -8.971   0.903 125.998  0.00  0.00    +0.000 C 
ATOM     47  N   UNL     1      -8.895  -0.546 126.238  0.00  0.00    +0.000 N 
ATOM     48  O   UNL     1      -8.973   1.711 126.978  0.00  0.00    +0.000 OA
ATOM     49  H   UNL     1      -8.893  -1.172 125.478  0.00  0.00    +0.000 HD
ATOM     50  H   UNL     1      -8.846  -0.890 127.159  0.00  0.00    +0.000 HD
ENDBRANCH  45  46
ENDBRANCH  43  45
ENDBRANCH  42  43
BRANCH  42  51
ATOM     51  C   UNL     1      -7.788   2.736 122.626  0.00  0.00    +0.000 C 
BRANCH  51  52
ATOM     52  C   UNL     1      -7.094   3.637 121.617  0.00  0.00    +0.000 C 
ATOM     53  C   UNL     1      -5.806   2.978 121.152  0.00  0.00    +0.000 C 
ATOM     54  C   UNL     1      -8.009   3.861 120.424  0.00  0.00    +0.000 C 
ENDBRANCH  51  52
ENDBRANCH  42  51
ENDBRANCH  40  42
ENDBRANCH  37  38
ENDBRANCH  14  31
BRANCH   9  55
ATOM     55  N   UNL     1      -4.856  -2.986 136.558  0.00  0.00    +0.000 NA
ATOM     56  H   UNL     1      -5.138  -3.927 136.835  0.00  0.00    +0.000 HD
ATOM     57  H   UNL     1      -5.204  -2.313 137.239  0.00  0.00    +0.000 HD
ENDBRANCH   9  55
BRANCH   1  58
ATOM     58  C   UNL     1      -4.143   6.341 136.346  0.00  0.00    +0.000 C 
ATOM     59  C   UNL     1      -4.283   7.847 136.188  0.00  0.00    +0.000 C 
BRANCH  58  61
ATOM     60  C   UNL     1      -3.868   6.627 136.472  0.00  0.00    +0.000 C 
ATOM     61  C   UNL     1      -2.952   5.855 135.536  0.00  0.00    +0.000 C 
ENDBRANCH  58  61
ENDBRANCH   1  58
BRANCH  18  62
ATOM     62  C   UNL     1      -5.783   2.115 134.352  0.00  0.00    +0.000 C 
BRANCH  62  63
ATOM     63  C   UNL     1      -4.537   1.702 135.119  0.00  0.00    +0.000 C 
ATOM     64  N   UNL     1      -3.298   1.386 134.392  0.00  0.00    +0.000 N 
ATOM     65  O   UNL     1      -4.566   1.629 136.387  0.00  0.00    +0.000 OA
ATOM     66  H   UNL     1      -3.276   1.443 133.409  0.00  0.00    +0.000 HD
ATOM     67  H   UNL     1      -2.492   1.118 134.889  0.00  0.00    +0.000 HD
ENDBRANCH  62  63
ENDBRANCH  18  62
BRANCH   5  68
ATOM     68  C   UNL     1      -2.791  -3.305 136.486  0.00  0.00    +0.000 C 
BRANCH  68  69
ATOM     69  C   UNL     1      -1.561  -2.998 135.648  0.00  0.00    +0.000 A 
ATOM     70  C   UNL     1      -1.504  -1.836 134.911  0.00  0.00    +0.000 A 
ATOM     71  C   UNL     1      -0.378  -1.524 134.141  0.00  0.00    +0.000 A 
ATOM     72  C   UNL     1       0.699  -2.434 134.163  0.00  0.00    +0.000 A 
ATOM     73  C   UNL     1       0.619  -3.604 134.879  0.00  0.00    +0.000 A 
ATOM     74  C   UNL     1      -0.508  -3.882 135.629  0.00  0.00    +0.000 A 
BRANCH  72  75
ATOM     75  O   UNL     1       1.837  -2.204 133.468  0.00  0.00    +0.000 OA
ATOM     76  H   UNL     1       2.420  -2.912 133.277  0.00  0.00    +0.000 HD
ENDBRANCH  72  75
ENDBRANCH  68  69
ENDBRANCH   5  68
BRANCH  22  77
ATOM     77  C   UNL     1      -6.141   6.160 135.827  0.00  0.00    +0.000 C 
BRANCH  77  78
ATOM     78  C   UNL     1      -7.589   6.234 136.286  0.00  0.00    +0.000 C 
BRANCH  78  79
ATOM     79  C   UNL     1      -7.681   7.097 137.534  0.00  0.00    +0.000 C 
ATOM     80  N   UNL     1      -7.911   6.472 138.844  0.00  0.00    +0.000 N 
ATOM     81  O   UNL     1      -7.560   8.359 137.443  0.00  0.00    +0.000 OA
ATOM     82  H   UNL     1      -8.004   5.495 138.913  0.00  0.00    +0.000 HD
ATOM     83  H   UNL     1      -7.970   7.031 139.652  0.00  0.00    +0.000 HD
ENDBRANCH  78  79
ENDBRANCH  77  78
ENDBRANCH  22  77
TORSDOF 19
ENDMDL
MODEL 9
REMARK VINA RESULT:      -7.4      3.625     12.980
REMARK  Name = CHEMBL1630524
REMARK  23 active torsions:
REMARK  status: ('A' for Active; 'I' for Inactive)
REMARK    1  A    between atoms: C_1  and  C_2
REMARK    2  A    between atoms: C_2  and  C_3
REMARK    3  A    between atoms: C_3  and  C_4
REMARK    4  A    between atoms: C_3  and  C_5
REMARK    5  A    between atoms: C_9  and  C_10
REMARK    6  A    between atoms: C_10  and  C_11
REMARK    7  A    between atoms: C_14  and  O_15
REMARK    8  A    between atoms: C_21  and  N_22
REMARK    9  A    between atoms: C_27  and  C_28
REMARK   10  A    between atoms: C_34  and  C_35
REMARK   11  A    between atoms: N_37  and  C_38
REMARK   12  A    between atoms: C_38  and  C_39
REMARK   13  A    between atoms: C_38  and  N_43
REMARK   14  A    between atoms: C_39  and  C_40
REMARK   15  A    between atoms: C_40  and  C_41
REMARK   16  A    between atoms: C_40  and  C_42
REMARK   17  A    between atoms: N_43  and  C_44
REMARK   18  A    between atoms: C_44  and  C_45
REMARK   19  A    between atoms: C_51  and  C_52
REMARK   20  A    between atoms: C_52  and  C_53
REMARK   21  A    between atoms: C_59  and  C_60
REMARK   22  A    between atoms: C_60  and  C_61
REMARK   23  A    between atoms: C_61  and  C_62
REMARK                            x       y       z     vdW  Elec       q    Type
REMARK                         _______ _______ _______ _____ _____    ______ ____
ROOT
ATOM      1  C   UNL     1      -4.490  -1.596 137.871  0.00  0.00    +0.000 C 
ATOM      2  N   UNL     1      -0.246   9.732 135.616  0.00  0.00    +0.000 N 
ATOM      3  C   UNL     1      -1.001   8.574 135.117  0.00  0.00    +0.000 C 
ATOM      4  O   UNL     1      -0.386   7.514 134.779  0.00  0.00    +0.000 OA
ATOM      5  C   UNL     1      -2.515   8.644 135.007  0.00  0.00    +0.000 C 
ATOM      6  N   UNL     1      -2.914   8.434 133.607  0.00  0.00    +0.000 N 
ATOM      7  C   UNL     1      -2.565   7.180 132.923  0.00  0.00    +0.000 C 
ATOM      8  O   UNL     1      -2.910   6.999 131.714  0.00  0.00    +0.000 OA
ATOM      9  C   UNL     1      -1.792   6.100 133.662  0.00  0.00    +0.000 C 
ATOM     10  C   UNL     1      -2.616   4.824 133.703  0.00  0.00    +0.000 C 
ATOM     11 SE   UNL     1      -2.985   4.227 131.874  0.00  0.00    +0.000 Se
ATOM     12 SE   UNL     1      -4.287   2.211 131.938  0.00  0.00    +0.000 Se
ATOM     13  C   UNL     1      -4.656   1.614 130.108  0.00  0.00    +0.000 C 
ATOM     14  C   UNL     1      -5.481   0.337 130.149  0.00  0.00    +0.000 C 
ATOM     15  N   UNL     1      -4.732  -0.707 130.864  0.00  0.00    +0.000 N 
ATOM     16  C   UNL     1      -4.334  -0.497 132.263  0.00  0.00    +0.000 C 
ATOM     17  O   UNL     1      -3.687  -1.400 132.881  0.00  0.00    +0.000 OA
ATOM     18  C   UNL     1      -4.693   0.798 132.971  0.00  0.00    +0.000 C 
ATOM     19  N   UNL     1      -5.530   0.502 134.141  0.00  0.00    +0.000 N 
ATOM     20  C   UNL     1      -5.013  -0.357 135.216  0.00  0.00    +0.000 C 
ATOM     21  O   UNL     1      -5.736  -0.614 136.229  0.00  0.00    +0.000 OA
ATOM     22  C   UNL     1      -3.611  -0.937 135.117  0.00  0.00    +0.000 C 
ATOM     23  N   UNL     1      -2.806  -0.473 136.255  0.00  0.00    +0.000 N 
ATOM     24  C   UNL     1      -3.224  -0.790 137.629  0.00  0.00    +0.000 C 
ATOM     25  O   UNL     1      -2.528  -0.388 138.614  0.00  0.00    +0.000 OA
ATOM     26  H   UNL     1       0.195  10.609 135.696  0.00  0.00    +0.000 HD
ATOM     27  H   UNL     1      -3.415   9.133 133.128  0.00  0.00    +0.000 HD
ATOM     28  H   UNL     1      -4.499  -1.547 130.406  0.00  0.00    +0.000 HD
ATOM     29  H   UNL     1      -6.439   0.877 134.206  0.00  0.00    +0.000 HD
ATOM     30  H   UNL     1      -1.987   0.050 136.098  0.00  0.00    +0.000 HD
ENDROOT
BRANCH  14  31
ATOM     31  C   UNL     1      -5.767  -0.127 128.730  0.00  0.00    +0.000 C 
ATOM     32  O   UNL     1      -5.166   0.415 127.750  0.00  0.00    +0.000 OA
ATOM     33  N   UNL     1      -6.742  -1.201 128.492  0.00  0.00    +0.000 N 
ATOM     34  C   UNL     1      -8.073  -1.332 129.111  0.00  0.00    +0.000 C 
ATOM     35  C   UNL     1      -8.170  -2.816 129.331  0.00  0.00    +0.000 C 
ATOM     36  C   UNL     1      -7.618  -3.404 127.997  0.00  0.00    +0.000 C 
ATOM     37  C   UNL     1      -6.541  -2.396 127.587  0.00  0.00    +0.000 C 
BRANCH  37  38
ATOM     38  C   UNL     1      -6.715  -1.995 126.131  0.00  0.00    +0.000 C 
ATOM     39  O   UNL     1      -6.207  -2.708 125.210  0.00  0.00    +0.000 OA
ATOM     40  N   UNL     1      -7.472  -0.782 125.789  0.00  0.00    +0.000 N 
ATOM     41  H   UNL     1      -7.865  -0.230 126.503  0.00  0.00    +0.000 HD
BRANCH  40  42
ATOM     42  C   UNL     1      -7.640  -0.394 124.381  0.00  0.00    +0.000 C 
BRANCH  42  43
ATOM     43  N   UNL     1      -7.414   1.052 124.242  0.00  0.00    +0.000 NA
ATOM     44  H   UNL     1      -7.236   1.276 123.263  0.00  0.00    +0.000 HD
BRANCH  43  45
ATOM     45  C   UNL     1      -8.605   1.782 124.702  0.00  0.00    +0.000 C 
BRANCH  45  46
ATOM     46  C   UNL     1      -8.179   2.944 125.584  0.00  0.00    +0.000 C 
ATOM     47  N   UNL     1      -7.211   2.725 126.669  0.00  0.00    +0.000 N 
ATOM     48  O   UNL     1      -8.657   4.103 125.382  0.00  0.00    +0.000 OA
ATOM     49  H   UNL     1      -6.839   1.827 126.824  0.00  0.00    +0.000 HD
ATOM     50  H   UNL     1      -6.934   3.478 127.240  0.00  0.00    +0.000 HD
ENDBRANCH  45  46
ENDBRANCH  43  45
ENDBRANCH  42  43
BRANCH  42  51
ATOM     51  C   UNL     1      -9.051  -0.732 123.928  0.00  0.00    +0.000 C 
BRANCH  51  52
ATOM     52  C   UNL     1      -9.002  -1.873 122.925  0.00  0.00    +0.000 C 
ATOM     53  C   UNL     1      -7.599  -1.980 122.350  0.00  0.00    +0.000 C 
ATOM     54  C   UNL     1      -9.365  -3.175 123.619  0.00  0.00    +0.000 C 
ENDBRANCH  51  52
ENDBRANCH  42  51
ENDBRANCH  40  42
ENDBRANCH  37  38
ENDBRANCH  14  31
BRANCH   9  55
ATOM     55  N   UNL     1      -1.514   6.549 135.035  0.00  0.00    +0.000 NA
ATOM     56  H   UNL     1      -0.527   6.400 135.248  0.00  0.00    +0.000 HD
ATOM     57  H   UNL     1      -2.087   6.018 135.690  0.00  0.00    +0.000 HD
ENDBRANCH   9  55
BRANCH   1  58
ATOM     58  C   UNL     1      -5.129  -1.949 136.538  0.00  0.00    +0.000 C 
ATOM     59  C   UNL     1      -5.539  -3.413 136.544  0.00  0.00    +0.000 C 
BRANCH  58  61
ATOM     60  C   UNL     1      -5.359  -2.095 136.852  0.00  0.00    +0.000 C 
ATOM     61  C   UNL     1      -6.356  -1.079 136.319  0.00  0.00    +0.000 C 
ENDBRANCH  58  61
ENDBRANCH   1  58
BRANCH  18  62
ATOM     62  C   UNL     1      -3.423   1.500 133.421  0.00  0.00    +0.000 C 
BRANCH  62  63
ATOM     63  C   UNL     1      -3.965   2.392 134.526  0.00  0.00    +0.000 C 
ATOM     64  N   UNL     1      -3.210   2.552 135.778  0.00  0.00    +0.000 N 
ATOM     65  O   UNL     1      -5.071   3.000 134.369  0.00  0.00    +0.000 OA
ATOM     66  H   UNL     1      -2.354   2.081 135.899  0.00  0.00    +0.000 HD
ATOM     67  H   UNL     1      -3.561   3.129 136.493  0.00  0.00    +0.000 HD
ENDBRANCH  62  63
ENDBRANCH  18  62
BRANCH   5  68
ATOM     68  C   UNL     1      -3.137   7.564 135.878  0.00  0.00    +0.000 C 
BRANCH  68  69
ATOM     69  C   UNL     1      -4.315   8.207 136.591  0.00  0.00    +0.000 A 
ATOM     70  C   UNL     1      -5.440   7.462 136.867  0.00  0.00    +0.000 A 
ATOM     71  C   UNL     1      -6.534   8.026 137.533  0.00  0.00    +0.000 A 
ATOM     72  C   UNL     1      -6.433   9.378 137.924  0.00  0.00    +0.000 A 
ATOM     73  C   UNL     1      -5.317  10.118 137.617  0.00  0.00    +0.000 A 
ATOM     74  C   UNL     1      -4.255   9.530 136.958  0.00  0.00    +0.000 A 
BRANCH  72  75
ATOM     75  O   UNL     1      -7.431  10.000 138.593  0.00  0.00    +0.000 OA
ATOM     76  H   UNL     1      -8.311   9.690 138.514  0.00  0.00    +0.000 HD
ENDBRANCH  72  75
ENDBRANCH  68  69
ENDBRANCH   5  68
BRANCH  22  77
ATOM     77  C   UNL     1      -3.689  -2.455 135.136  0.00  0.00    +0.000 C 
BRANCH  77  78
ATOM     78  C   UNL     1      -2.286  -3.035 135.044  0.00  0.00    +0.000 C 
BRANCH  78  79
ATOM     79  C   UNL     1      -2.330  -4.347 134.277  0.00  0.00    +0.000 C 
ATOM     80  N   UNL     1      -2.865  -4.381 132.909  0.00  0.00    +0.000 N 
ATOM     81  O   UNL     1      -1.903  -5.414 134.820  0.00  0.00    +0.000 OA
ATOM     82  H   UNL     1      -3.195  -3.554 132.489  0.00  0.00    +0.000 HD
ATOM     83  H   UNL     1      -2.893  -5.230 132.413  0.00  0.00    +0.000 HD
ENDBRANCH  78  79
ENDBRANCH  77  78
ENDBRANCH  22  77
TORSDOF 19
ENDMDL
