MODEL 1
REMARK VINA RESULT:      -8.6      0.000      0.000
REMARK  Name = CHEMBL475395
REMARK  7 active torsions:
REMARK  status: ('A' for Active; 'I' for Inactive)
REMARK    1  A    between atoms: C_1  and  C_2
REMARK    2  A    between atoms: C_4  and  C_5
REMARK    3  A    between atoms: N_7  and  C_8
REMARK    4  A    between atoms: N_7  and  C_12
REMARK    5  A    between atoms: C_8  and  C_9
REMARK    6  A    between atoms: C_12  and  C_13
REMARK    7  A    between atoms: C_20  and  C_21
REMARK                            x       y       z     vdW  Elec       q    Type
REMARK                         _______ _______ _______ _____ _____    ______ ____
ROOT
ATOM      1  C   UNL     1      -4.767  -2.233 128.832  0.00  0.00    +0.000 C 
ATOM      2  C   UNL     1      -6.157  -2.517 128.396  0.00  0.00    +0.000 A 
ATOM      3  C   UNL     1      -6.644  -2.109 127.095  0.00  0.00    +0.000 A 
ATOM      4  C   UNL     1      -7.885  -2.539 126.644  0.00  0.00    +0.000 A 
ATOM      5  C   UNL     1      -8.383  -3.501 127.485  0.00  0.00    +0.000 A 
ATOM      6  C   UNL     1      -8.133  -3.645 128.830  0.00  0.00    +0.000 A 
ATOM      7  C   UNL     1      -6.950  -3.242 129.301  0.00  0.00    +0.000 A 
ENDROOT
BRANCH   7   8
ATOM      8  C   UNL     1      -6.684  -3.685 130.662  0.00  0.00    +0.000 A 
ATOM      9  C   UNL     1      -7.177  -2.956 131.776  0.00  0.00    +0.000 A 
ATOM     10  C   UNL     1      -6.790  -3.291 133.066  0.00  0.00    +0.000 A 
ATOM     11  C   UNL     1      -5.978  -4.404 133.252  0.00  0.00    +0.000 A 
ATOM     12  C   UNL     1      -5.444  -5.090 132.159  0.00  0.00    +0.000 A 
ATOM     13  C   UNL     1      -5.758  -4.697 130.871  0.00  0.00    +0.000 A 
ENDBRANCH   7   8
BRANCH   4  14
ATOM     14  C   UNL     1      -8.598  -2.138 125.344  0.00  0.00    +0.000 C 
ATOM     15  O   UNL     1      -9.854  -2.077 125.437  0.00  0.00    +0.000 OA
ATOM     16  N   UNL     1      -7.987  -1.854 124.070  0.00  0.00    +0.000 N 
BRANCH  16  17
ATOM     17  C   UNL     1      -6.613  -2.042 123.580  0.00  0.00    +0.000 C 
BRANCH  17  18
ATOM     18  C   UNL     1      -5.960  -3.307 123.637  0.00  0.00    +0.000 C 
ATOM     19  C   UNL     1      -4.458  -3.146 123.296  0.00  0.00    +0.000 C 
ATOM     20  C   UNL     1      -4.885  -4.226 124.190  0.00  0.00    +0.000 C 
ENDBRANCH  17  18
ENDBRANCH  16  17
BRANCH  16  21
ATOM     21  C   UNL     1      -8.878  -1.424 122.944  0.00  0.00    +0.000 C 
BRANCH  21  22
ATOM     22  C   UNL     1      -9.303   0.122 122.815  0.00  0.00    +0.000 C 
ATOM     23  C   UNL     1      -8.268   1.091 123.368  0.00  0.00    +0.000 C 
ATOM     24  C   UNL     1      -9.095   2.194 124.014  0.00  0.00    +0.000 C 
ATOM     25  C   UNL     1     -10.303   1.461 124.502  0.00  0.00    +0.000 C 
ATOM     26  O   UNL     1     -10.538   0.555 123.434  0.00  0.00    +0.000 OA
ENDBRANCH  21  22
ENDBRANCH  16  21
ENDBRANCH   4  14
TORSDOF 6
ENDMDL
MODEL 2
REMARK VINA RESULT:      -8.3      3.041      8.555
REMARK  Name = CHEMBL475395
REMARK  7 active torsions:
REMARK  status: ('A' for Active; 'I' for Inactive)
REMARK    1  A    between atoms: C_1  and  C_2
REMARK    2  A    between atoms: C_4  and  C_5
REMARK    3  A    between atoms: N_7  and  C_8
REMARK    4  A    between atoms: N_7  and  C_12
REMARK    5  A    between atoms: C_8  and  C_9
REMARK    6  A    between atoms: C_12  and  C_13
REMARK    7  A    between atoms: C_20  and  C_21
REMARK                            x       y       z     vdW  Elec       q    Type
REMARK                         _______ _______ _______ _____ _____    ______ ____
ROOT
ATOM      1  C   UNL     1      -5.396   4.061 124.226  0.00  0.00    +0.000 C 
ATOM      2  C   UNL     1      -6.376   2.992 123.908  0.00  0.00    +0.000 A 
ATOM      3  C   UNL     1      -6.794   2.024 124.899  0.00  0.00    +0.000 A 
ATOM      4  C   UNL     1      -7.837   1.149 124.629  0.00  0.00    +0.000 A 
ATOM      5  C   UNL     1      -8.463   1.508 123.464  0.00  0.00    +0.000 A 
ATOM      6  C   UNL     1      -7.909   2.158 122.385  0.00  0.00    +0.000 A 
ATOM      7  C   UNL     1      -6.903   3.008 122.605  0.00  0.00    +0.000 A 
ENDROOT
BRANCH   7   8
ATOM      8  C   UNL     1      -6.577   3.837 121.453  0.00  0.00    +0.000 A 
ATOM      9  C   UNL     1      -7.461   3.928 120.347  0.00  0.00    +0.000 A 
ATOM     10  C   UNL     1      -7.077   4.590 119.189  0.00  0.00    +0.000 A 
ATOM     11  C   UNL     1      -5.844   5.233 119.165  0.00  0.00    +0.000 A 
ATOM     12  C   UNL     1      -4.947   5.099 120.227  0.00  0.00    +0.000 A 
ATOM     13  C   UNL     1      -5.297   4.360 121.343  0.00  0.00    +0.000 A 
ENDBRANCH   7   8
BRANCH   4  14
ATOM     14  C   UNL     1      -8.352   0.005 125.515  0.00  0.00    +0.000 C 
ATOM     15  O   UNL     1      -8.525   0.320 126.724  0.00  0.00    +0.000 OA
ATOM     16  N   UNL     1      -8.629  -1.351 125.110  0.00  0.00    +0.000 N 
BRANCH  16  17
ATOM     17  C   UNL     1      -8.334  -2.080 123.868  0.00  0.00    +0.000 C 
BRANCH  17  18
ATOM     18  C   UNL     1      -7.048  -2.636 123.608  0.00  0.00    +0.000 C 
ATOM     19  C   UNL     1      -6.318  -1.806 122.523  0.00  0.00    +0.000 C 
ATOM     20  C   UNL     1      -5.536  -2.519 123.538  0.00  0.00    +0.000 C 
ENDBRANCH  17  18
ENDBRANCH  16  17
BRANCH  16  21
ATOM     21  C   UNL     1      -9.182  -2.292 126.138  0.00  0.00    +0.000 C 
BRANCH  21  22
ATOM     22  C   UNL     1      -8.174  -3.163 127.039  0.00  0.00    +0.000 C 
ATOM     23  C   UNL     1      -8.770  -3.618 128.364  0.00  0.00    +0.000 C 
ATOM     24  C   UNL     1      -7.612  -3.524 129.347  0.00  0.00    +0.000 C 
ATOM     25  C   UNL     1      -6.823  -2.367 128.823  0.00  0.00    +0.000 C 
ATOM     26  O   UNL     1      -6.905  -2.578 127.421  0.00  0.00    +0.000 OA
ENDBRANCH  21  22
ENDBRANCH  16  21
ENDBRANCH   4  14
TORSDOF 6
ENDMDL
MODEL 3
REMARK VINA RESULT:      -8.2      1.926      2.650
REMARK  Name = CHEMBL475395
REMARK  7 active torsions:
REMARK  status: ('A' for Active; 'I' for Inactive)
REMARK    1  A    between atoms: C_1  and  C_2
REMARK    2  A    between atoms: C_4  and  C_5
REMARK    3  A    between atoms: N_7  and  C_8
REMARK    4  A    between atoms: N_7  and  C_12
REMARK    5  A    between atoms: C_8  and  C_9
REMARK    6  A    between atoms: C_12  and  C_13
REMARK    7  A    between atoms: C_20  and  C_21
REMARK                            x       y       z     vdW  Elec       q    Type
REMARK                         _______ _______ _______ _____ _____    ______ ____
ROOT
ATOM      1  C   UNL     1      -9.043  -4.303 127.974  0.00  0.00    +0.000 C 
ATOM      2  C   UNL     1      -8.491  -2.959 127.671  0.00  0.00    +0.000 A 
ATOM      3  C   UNL     1      -8.934  -2.195 126.523  0.00  0.00    +0.000 A 
ATOM      4  C   UNL     1      -8.535  -0.876 126.361  0.00  0.00    +0.000 A 
ATOM      5  C   UNL     1      -7.906  -0.433 127.496  0.00  0.00    +0.000 A 
ATOM      6  C   UNL     1      -7.197  -1.184 128.405  0.00  0.00    +0.000 A 
ATOM      7  C   UNL     1      -7.552  -2.458 128.587  0.00  0.00    +0.000 A 
ENDROOT
BRANCH   7   8
ATOM      8  C   UNL     1      -6.929  -3.076 129.750  0.00  0.00    +0.000 A 
ATOM      9  C   UNL     1      -7.431  -2.842 131.056  0.00  0.00    +0.000 A 
ATOM     10  C   UNL     1      -6.743  -3.304 132.170  0.00  0.00    +0.000 A 
ATOM     11  C   UNL     1      -5.598  -4.069 131.978  0.00  0.00    +0.000 A 
ATOM     12  C   UNL     1      -5.067  -4.253 130.700  0.00  0.00    +0.000 A 
ATOM     13  C   UNL     1      -5.706  -3.713 129.597  0.00  0.00    +0.000 A 
ENDBRANCH   7   8
BRANCH   4  14
ATOM     14  C   UNL     1      -8.827   0.051 125.172  0.00  0.00    +0.000 C 
ATOM     15  O   UNL     1      -9.987   0.546 125.171  0.00  0.00    +0.000 OA
ATOM     16  N   UNL     1      -7.936   0.381 124.089  0.00  0.00    +0.000 N 
BRANCH  16  17
ATOM     17  C   UNL     1      -6.637  -0.179 123.685  0.00  0.00    +0.000 C 
BRANCH  17  18
ATOM     18  C   UNL     1      -6.446  -1.577 123.494  0.00  0.00    +0.000 C 
ATOM     19  C   UNL     1      -5.473  -2.133 124.562  0.00  0.00    +0.000 C 
ATOM     20  C   UNL     1      -6.502  -3.009 123.994  0.00  0.00    +0.000 C 
ENDBRANCH  17  18
ENDBRANCH  16  17
BRANCH  16  21
ATOM     21  C   UNL     1      -8.415   1.359 123.058  0.00  0.00    +0.000 C 
BRANCH  21  22
ATOM     22  C   UNL     1      -7.852   2.865 123.073  0.00  0.00    +0.000 C 
ATOM     23  C   UNL     1      -6.716   3.107 122.090  0.00  0.00    +0.000 C 
ATOM     24  C   UNL     1      -5.782   4.060 122.824  0.00  0.00    +0.000 C 
ATOM     25  C   UNL     1      -5.948   3.653 124.253  0.00  0.00    +0.000 C 
ATOM     26  O   UNL     1      -7.343   3.403 124.318  0.00  0.00    +0.000 OA
ENDBRANCH  21  22
ENDBRANCH  16  21
ENDBRANCH   4  14
TORSDOF 6
ENDMDL
MODEL 4
REMARK VINA RESULT:      -8.0      8.728     10.313
REMARK  Name = CHEMBL475395
REMARK  7 active torsions:
REMARK  status: ('A' for Active; 'I' for Inactive)
REMARK    1  A    between atoms: C_1  and  C_2
REMARK    2  A    between atoms: C_4  and  C_5
REMARK    3  A    between atoms: N_7  and  C_8
REMARK    4  A    between atoms: N_7  and  C_12
REMARK    5  A    between atoms: C_8  and  C_9
REMARK    6  A    between atoms: C_12  and  C_13
REMARK    7  A    between atoms: C_20  and  C_21
REMARK                            x       y       z     vdW  Elec       q    Type
REMARK                         _______ _______ _______ _____ _____    ______ ____
ROOT
ATOM      1  C   UNL     1      -5.124   5.502 134.687  0.00  0.00    +0.000 C 
ATOM      2  C   UNL     1      -5.820   5.804 133.411  0.00  0.00    +0.000 A 
ATOM      3  C   UNL     1      -7.259   5.699 133.286  0.00  0.00    +0.000 A 
ATOM      4  C   UNL     1      -7.899   6.155 132.142  0.00  0.00    +0.000 A 
ATOM      5  C   UNL     1      -7.018   6.852 131.356  0.00  0.00    +0.000 A 
ATOM      6  C   UNL     1      -5.656   6.678 131.272  0.00  0.00    +0.000 A 
ATOM      7  C   UNL     1      -5.005   6.240 132.353  0.00  0.00    +0.000 A 
ENDROOT
BRANCH   7   8
ATOM      8  C   UNL     1      -3.557   6.351 132.246  0.00  0.00    +0.000 A 
ATOM      9  C   UNL     1      -2.745   5.195 132.116  0.00  0.00    +0.000 A 
ATOM     10  C   UNL     1      -1.361   5.295 132.173  0.00  0.00    +0.000 A 
ATOM     11  C   UNL     1      -0.786   6.556 132.277  0.00  0.00    +0.000 A 
ATOM     12  C   UNL     1      -1.579   7.691 132.462  0.00  0.00    +0.000 A 
ATOM     13  C   UNL     1      -2.957   7.577 132.497  0.00  0.00    +0.000 A 
ENDBRANCH   7   8
BRANCH   4  14
ATOM     14  C   UNL     1      -9.392   6.043 131.798  0.00  0.00    +0.000 C 
ATOM     15  O   UNL     1     -10.168   6.396 132.726  0.00  0.00    +0.000 OA
ATOM     16  N   UNL     1      -9.965   5.571 130.562  0.00  0.00    +0.000 N 
BRANCH  16  17
ATOM     17  C   UNL     1      -9.366   4.899 129.399  0.00  0.00    +0.000 C 
BRANCH  17  18
ATOM     18  C   UNL     1      -8.456   3.812 129.543  0.00  0.00    +0.000 C 
ATOM     19  C   UNL     1      -7.109   4.151 128.858  0.00  0.00    +0.000 C 
ATOM     20  C   UNL     1      -7.128   3.239 130.007  0.00  0.00    +0.000 C 
ENDBRANCH  17  18
ENDBRANCH  16  17
BRANCH  16  21
ATOM     21  C   UNL     1     -11.458   5.601 130.423  0.00  0.00    +0.000 C 
BRANCH  21  22
ATOM     22  C   UNL     1     -12.186   6.969 129.997  0.00  0.00    +0.000 C 
ATOM     23  C   UNL     1     -13.094   6.830 128.784  0.00  0.00    +0.000 C 
ATOM     24  C   UNL     1     -12.904   8.136 128.023  0.00  0.00    +0.000 C 
ATOM     25  C   UNL     1     -11.479   8.483 128.310  0.00  0.00    +0.000 C 
ATOM     26  O   UNL     1     -11.367   8.120 129.678  0.00  0.00    +0.000 OA
ENDBRANCH  21  22
ENDBRANCH  16  21
ENDBRANCH   4  14
TORSDOF 6
ENDMDL
MODEL 5
REMARK VINA RESULT:      -7.8      3.190      8.515
REMARK  Name = CHEMBL475395
REMARK  7 active torsions:
REMARK  status: ('A' for Active; 'I' for Inactive)
REMARK    1  A    between atoms: C_1  and  C_2
REMARK    2  A    between atoms: C_4  and  C_5
REMARK    3  A    between atoms: N_7  and  C_8
REMARK    4  A    between atoms: N_7  and  C_12
REMARK    5  A    between atoms: C_8  and  C_9
REMARK    6  A    between atoms: C_12  and  C_13
REMARK    7  A    between atoms: C_20  and  C_21
REMARK                            x       y       z     vdW  Elec       q    Type
REMARK                         _______ _______ _______ _____ _____    ______ ____
ROOT
ATOM      1  C   UNL     1      -5.681   4.816 124.318  0.00  0.00    +0.000 C 
ATOM      2  C   UNL     1      -5.984   3.369 124.450  0.00  0.00    +0.000 A 
ATOM      3  C   UNL     1      -5.599   2.615 125.624  0.00  0.00    +0.000 A 
ATOM      4  C   UNL     1      -6.046   1.312 125.800  0.00  0.00    +0.000 A 
ATOM      5  C   UNL     1      -7.001   1.013 124.863  0.00  0.00    +0.000 A 
ATOM      6  C   UNL     1      -7.125   1.541 123.599  0.00  0.00    +0.000 A 
ATOM      7  C   UNL     1      -6.705   2.791 123.391  0.00  0.00    +0.000 A 
ENDROOT
BRANCH   7   8
ATOM      8  C   UNL     1      -7.127   3.342 122.110  0.00  0.00    +0.000 A 
ATOM      9  C   UNL     1      -8.498   3.375 121.746  0.00  0.00    +0.000 A 
ATOM     10  C   UNL     1      -8.880   3.754 120.467  0.00  0.00    +0.000 A 
ATOM     11  C   UNL     1      -7.901   4.180 119.576  0.00  0.00    +0.000 A 
ATOM     12  C   UNL     1      -6.547   4.096 119.908  0.00  0.00    +0.000 A 
ATOM     13  C   UNL     1      -6.164   3.630 121.153  0.00  0.00    +0.000 A 
ENDBRANCH   7   8
BRANCH   4  14
ATOM     14  C   UNL     1      -5.669   0.338 126.926  0.00  0.00    +0.000 C 
ATOM     15  O   UNL     1      -5.501   0.881 128.050  0.00  0.00    +0.000 OA
ATOM     16  N   UNL     1      -5.480  -1.087 126.813  0.00  0.00    +0.000 N 
BRANCH  16  17
ATOM     17  C   UNL     1      -5.386  -1.972 125.643  0.00  0.00    +0.000 C 
BRANCH  17  18
ATOM     18  C   UNL     1      -6.541  -2.404 124.930  0.00  0.00    +0.000 C 
ATOM     19  C   UNL     1      -6.195  -2.617 123.435  0.00  0.00    +0.000 C 
ATOM     20  C   UNL     1      -7.265  -3.409 124.051  0.00  0.00    +0.000 C 
ENDBRANCH  17  18
ENDBRANCH  16  17
BRANCH  16  21
ATOM     21  C   UNL     1      -5.168  -1.855 128.063  0.00  0.00    +0.000 C 
BRANCH  21  22
ATOM     22  C   UNL     1      -6.217  -2.947 128.604  0.00  0.00    +0.000 C 
ATOM     23  C   UNL     1      -7.672  -2.533 128.444  0.00  0.00    +0.000 C 
ATOM     24  C   UNL     1      -8.353  -3.064 129.699  0.00  0.00    +0.000 C 
ATOM     25  C   UNL     1      -7.275  -2.961 130.730  0.00  0.00    +0.000 C 
ATOM     26  O   UNL     1      -6.132  -3.362 129.989  0.00  0.00    +0.000 OA
ENDBRANCH  21  22
ENDBRANCH  16  21
ENDBRANCH   4  14
TORSDOF 6
ENDMDL
MODEL 6
REMARK VINA RESULT:      -7.5      6.498      8.244
REMARK  Name = CHEMBL475395
REMARK  7 active torsions:
REMARK  status: ('A' for Active; 'I' for Inactive)
REMARK    1  A    between atoms: C_1  and  C_2
REMARK    2  A    between atoms: C_4  and  C_5
REMARK    3  A    between atoms: N_7  and  C_8
REMARK    4  A    between atoms: N_7  and  C_12
REMARK    5  A    between atoms: C_8  and  C_9
REMARK    6  A    between atoms: C_12  and  C_13
REMARK    7  A    between atoms: C_20  and  C_21
REMARK                            x       y       z     vdW  Elec       q    Type
REMARK                         _______ _______ _______ _____ _____    ______ ____
ROOT
ATOM      1  C   UNL     1      -7.864   0.385 132.509  0.00  0.00    +0.000 C 
ATOM      2  C   UNL     1      -8.451   1.164 131.391  0.00  0.00    +0.000 A 
ATOM      3  C   UNL     1      -9.324   2.295 131.627  0.00  0.00    +0.000 A 
ATOM      4  C   UNL     1      -9.716   3.111 130.575  0.00  0.00    +0.000 A 
ATOM      5  C   UNL     1      -9.002   2.798 129.446  0.00  0.00    +0.000 A 
ATOM      6  C   UNL     1      -8.462   1.578 129.112  0.00  0.00    +0.000 A 
ATOM      7  C   UNL     1      -8.073   0.766 130.097  0.00  0.00    +0.000 A 
ENDROOT
BRANCH   7   8
ATOM      8  C   UNL     1      -7.275  -0.363 129.641  0.00  0.00    +0.000 A 
ATOM      9  C   UNL     1      -7.821  -1.673 129.599  0.00  0.00    +0.000 A 
ATOM     10  C   UNL     1      -7.013  -2.765 129.316  0.00  0.00    +0.000 A 
ATOM     11  C   UNL     1      -5.679  -2.544 128.992  0.00  0.00    +0.000 A 
ATOM     12  C   UNL     1      -5.123  -1.266 129.087  0.00  0.00    +0.000 A 
ATOM     13  C   UNL     1      -5.910  -0.191 129.460  0.00  0.00    +0.000 A 
ENDBRANCH   7   8
BRANCH   4  14
ATOM     14  C   UNL     1     -10.701   4.289 130.620  0.00  0.00    +0.000 C 
ATOM     15  O   UNL     1     -11.679   4.180 129.833  0.00  0.00    +0.000 OA
ATOM     16  N   UNL     1     -10.602   5.472 131.438  0.00  0.00    +0.000 N 
BRANCH  16  17
ATOM     17  C   UNL     1      -9.511   5.997 132.272  0.00  0.00    +0.000 C 
BRANCH  17  18
ATOM     18  C   UNL     1      -8.236   6.325 131.726  0.00  0.00    +0.000 C 
ATOM     19  C   UNL     1      -7.156   5.363 132.282  0.00  0.00    +0.000 C 
ATOM     20  C   UNL     1      -6.985   5.954 130.950  0.00  0.00    +0.000 C 
ENDBRANCH  17  18
ENDBRANCH  16  17
BRANCH  16  21
ATOM     21  C   UNL     1     -11.715   6.474 131.360  0.00  0.00    +0.000 C 
BRANCH  21  22
ATOM     22  C   UNL     1     -11.691   7.598 130.211  0.00  0.00    +0.000 C 
ATOM     23  C   UNL     1     -12.838   7.485 129.217  0.00  0.00    +0.000 C 
ATOM     24  C   UNL     1     -12.212   7.859 127.880  0.00  0.00    +0.000 C 
ATOM     25  C   UNL     1     -10.809   7.363 128.019  0.00  0.00    +0.000 C 
ATOM     26  O   UNL     1     -10.519   7.701 129.366  0.00  0.00    +0.000 OA
ENDBRANCH  21  22
ENDBRANCH  16  21
ENDBRANCH   4  14
TORSDOF 6
ENDMDL
MODEL 7
REMARK VINA RESULT:      -7.4      3.629      8.739
REMARK  Name = CHEMBL475395
REMARK  7 active torsions:
REMARK  status: ('A' for Active; 'I' for Inactive)
REMARK    1  A    between atoms: C_1  and  C_2
REMARK    2  A    between atoms: C_4  and  C_5
REMARK    3  A    between atoms: N_7  and  C_8
REMARK    4  A    between atoms: N_7  and  C_12
REMARK    5  A    between atoms: C_8  and  C_9
REMARK    6  A    between atoms: C_12  and  C_13
REMARK    7  A    between atoms: C_20  and  C_21
REMARK                            x       y       z     vdW  Elec       q    Type
REMARK                         _______ _______ _______ _____ _____    ______ ____
ROOT
ATOM      1  C   UNL     1      -7.797   0.141 127.552  0.00  0.00    +0.000 C 
ATOM      2  C   UNL     1      -7.689  -1.166 128.247  0.00  0.00    +0.000 A 
ATOM      3  C   UNL     1      -7.422  -1.252 129.668  0.00  0.00    +0.000 A 
ATOM      4  C   UNL     1      -7.500  -2.473 130.324  0.00  0.00    +0.000 A 
ATOM      5  C   UNL     1      -8.046  -3.418 129.494  0.00  0.00    +0.000 A 
ATOM      6  C   UNL     1      -7.983  -3.460 128.120  0.00  0.00    +0.000 A 
ATOM      7  C   UNL     1      -7.906  -2.305 127.455  0.00  0.00    +0.000 A 
ENDROOT
BRANCH   7   8
ATOM      8  C   UNL     1      -8.120  -2.444 126.021  0.00  0.00    +0.000 A 
ATOM      9  C   UNL     1      -9.362  -2.902 125.509  0.00  0.00    +0.000 A 
ATOM     10  C   UNL     1      -9.508  -3.182 124.158  0.00  0.00    +0.000 A 
ATOM     11  C   UNL     1      -8.442  -2.927 123.303  0.00  0.00    +0.000 A 
ATOM     12  C   UNL     1      -7.200  -2.531 123.807  0.00  0.00    +0.000 A 
ATOM     13  C   UNL     1      -7.031  -2.342 125.167  0.00  0.00    +0.000 A 
ENDBRANCH   7   8
BRANCH   4  14
ATOM     14  C   UNL     1      -7.164  -2.769 131.793  0.00  0.00    +0.000 C 
ATOM     15  O   UNL     1      -7.896  -2.169 132.625  0.00  0.00    +0.000 OA
ATOM     16  N   UNL     1      -6.115  -3.625 132.288  0.00  0.00    +0.000 N 
BRANCH  16  17
ATOM     17  C   UNL     1      -4.982  -4.276 131.613  0.00  0.00    +0.000 C 
BRANCH  17  18
ATOM     18  C   UNL     1      -3.968  -3.526 130.951  0.00  0.00    +0.000 C 
ATOM     19  C   UNL     1      -4.098  -3.693 129.417  0.00  0.00    +0.000 C 
ATOM     20  C   UNL     1      -3.531  -2.457 129.966  0.00  0.00    +0.000 C 
ENDBRANCH  17  18
ENDBRANCH  16  17
BRANCH  16  21
ATOM     21  C   UNL     1      -6.004  -3.813 133.772  0.00  0.00    +0.000 C 
BRANCH  21  22
ATOM     22  C   UNL     1      -5.724  -5.281 134.365  0.00  0.00    +0.000 C 
ATOM     23  C   UNL     1      -6.863  -5.830 135.212  0.00  0.00    +0.000 C 
ATOM     24  C   UNL     1      -6.164  -6.587 136.333  0.00  0.00    +0.000 C 
ATOM     25  C   UNL     1      -4.909  -5.800 136.534  0.00  0.00    +0.000 C 
ATOM     26  O   UNL     1      -4.555  -5.481 135.197  0.00  0.00    +0.000 OA
ENDBRANCH  21  22
ENDBRANCH  16  21
ENDBRANCH   4  14
TORSDOF 6
ENDMDL
MODEL 8
REMARK VINA RESULT:      -7.3      5.007      6.489
REMARK  Name = CHEMBL475395
REMARK  7 active torsions:
REMARK  status: ('A' for Active; 'I' for Inactive)
REMARK    1  A    between atoms: C_1  and  C_2
REMARK    2  A    between atoms: C_4  and  C_5
REMARK    3  A    between atoms: N_7  and  C_8
REMARK    4  A    between atoms: N_7  and  C_12
REMARK    5  A    between atoms: C_8  and  C_9
REMARK    6  A    between atoms: C_12  and  C_13
REMARK    7  A    between atoms: C_20  and  C_21
REMARK                            x       y       z     vdW  Elec       q    Type
REMARK                         _______ _______ _______ _____ _____    ______ ____
ROOT
ATOM      1  C   UNL     1      -1.777   2.931 126.913  0.00  0.00    +0.000 C 
ATOM      2  C   UNL     1      -3.256   2.960 127.030  0.00  0.00    +0.000 A 
ATOM      3  C   UNL     1      -4.108   2.264 126.089  0.00  0.00    +0.000 A 
ATOM      4  C   UNL     1      -5.473   2.159 126.321  0.00  0.00    +0.000 A 
ATOM      5  C   UNL     1      -5.769   2.595 127.586  0.00  0.00    +0.000 A 
ATOM      6  C   UNL     1      -5.088   3.534 128.327  0.00  0.00    +0.000 A 
ATOM      7  C   UNL     1      -3.774   3.663 128.132  0.00  0.00    +0.000 A 
ENDROOT
BRANCH   7   8
ATOM      8  C   UNL     1      -3.111   4.475 129.143  0.00  0.00    +0.000 A 
ATOM      9  C   UNL     1      -3.195   4.138 130.519  0.00  0.00    +0.000 A 
ATOM     10  C   UNL     1      -2.697   4.997 131.487  0.00  0.00    +0.000 A 
ATOM     11  C   UNL     1      -2.041   6.154 131.081  0.00  0.00    +0.000 A 
ATOM     12  C   UNL     1      -2.005   6.520 129.733  0.00  0.00    +0.000 A 
ATOM     13  C   UNL     1      -2.584   5.705 128.777  0.00  0.00    +0.000 A 
ENDBRANCH   7   8
BRANCH   4  14
ATOM     14  C   UNL     1      -6.534   1.544 125.397  0.00  0.00    +0.000 C 
ATOM     15  O   UNL     1      -7.474   2.326 125.091  0.00  0.00    +0.000 OA
ATOM     16  N   UNL     1      -6.563   0.198 124.882  0.00  0.00    +0.000 N 
BRANCH  16  17
ATOM     17  C   UNL     1      -5.766  -0.993 125.212  0.00  0.00    +0.000 C 
BRANCH  17  18
ATOM     18  C   UNL     1      -5.213  -1.832 124.203  0.00  0.00    +0.000 C 
ATOM     19  C   UNL     1      -5.196  -3.304 124.685  0.00  0.00    +0.000 C 
ATOM     20  C   UNL     1      -5.309  -3.012 123.252  0.00  0.00    +0.000 C 
ENDBRANCH  17  18
ENDBRANCH  16  17
BRANCH  16  21
ATOM     21  C   UNL     1      -7.673  -0.173 123.945  0.00  0.00    +0.000 C 
BRANCH  21  22
ATOM     22  C   UNL     1      -8.859  -1.128 124.461  0.00  0.00    +0.000 C 
ATOM     23  C   UNL     1      -8.872  -1.333 125.969  0.00  0.00    +0.000 C 
ATOM     24  C   UNL     1      -9.287  -2.788 126.145  0.00  0.00    +0.000 C 
ATOM     25  C   UNL     1      -8.703  -3.449 124.938  0.00  0.00    +0.000 C 
ATOM     26  O   UNL     1      -8.944  -2.474 123.934  0.00  0.00    +0.000 OA
ENDBRANCH  21  22
ENDBRANCH  16  21
ENDBRANCH   4  14
TORSDOF 6
ENDMDL
MODEL 9
REMARK VINA RESULT:      -7.3      6.640      8.347
REMARK  Name = CHEMBL475395
REMARK  7 active torsions:
REMARK  status: ('A' for Active; 'I' for Inactive)
REMARK    1  A    between atoms: C_1  and  C_2
REMARK    2  A    between atoms: C_4  and  C_5
REMARK    3  A    between atoms: N_7  and  C_8
REMARK    4  A    between atoms: N_7  and  C_12
REMARK    5  A    between atoms: C_8  and  C_9
REMARK    6  A    between atoms: C_12  and  C_13
REMARK    7  A    between atoms: C_20  and  C_21
REMARK                            x       y       z     vdW  Elec       q    Type
REMARK                         _______ _______ _______ _____ _____    ______ ____
ROOT
ATOM      1  C   UNL     1      -5.343   1.661 130.453  0.00  0.00    +0.000 C 
ATOM      2  C   UNL     1      -6.765   2.086 130.467  0.00  0.00    +0.000 A 
ATOM      3  C   UNL     1      -7.163   3.424 130.084  0.00  0.00    +0.000 A 
ATOM      4  C   UNL     1      -8.506   3.742 129.936  0.00  0.00    +0.000 A 
ATOM      5  C   UNL     1      -9.267   2.603 129.991  0.00  0.00    +0.000 A 
ATOM      6  C   UNL     1      -8.980   1.439 130.666  0.00  0.00    +0.000 A 
ATOM      7  C   UNL     1      -7.699   1.100 130.828  0.00  0.00    +0.000 A 
ENDROOT
BRANCH   7   8
ATOM      8  C   UNL     1      -7.512  -0.263 131.304  0.00  0.00    +0.000 A 
ATOM      9  C   UNL     1      -7.543  -1.360 130.404  0.00  0.00    +0.000 A 
ATOM     10  C   UNL     1      -7.522  -2.664 130.880  0.00  0.00    +0.000 A 
ATOM     11  C   UNL     1      -7.387  -2.874 132.247  0.00  0.00    +0.000 A 
ATOM     12  C   UNL     1      -7.414  -1.802 133.142  0.00  0.00    +0.000 A 
ATOM     13  C   UNL     1      -7.528  -0.506 132.670  0.00  0.00    +0.000 A 
ENDBRANCH   7   8
BRANCH   4  14
ATOM     14  C   UNL     1      -9.114   5.118 129.629  0.00  0.00    +0.000 C 
ATOM     15  O   UNL     1      -8.940   5.511 128.443  0.00  0.00    +0.000 OA
ATOM     16  N   UNL     1      -9.822   5.979 130.543  0.00  0.00    +0.000 N 
BRANCH  16  17
ATOM     17  C   UNL     1      -9.999   5.923 132.002  0.00  0.00    +0.000 C 
BRANCH  17  18
ATOM     18  C   UNL     1      -8.893   5.790 132.890  0.00  0.00    +0.000 C 
ATOM     19  C   UNL     1      -8.934   4.409 133.589  0.00  0.00    +0.000 C 
ATOM     20  C   UNL     1      -7.644   5.068 133.363  0.00  0.00    +0.000 C 
ENDBRANCH  17  18
ENDBRANCH  16  17
BRANCH  16  21
ATOM     21  C   UNL     1     -10.382   7.263 130.008  0.00  0.00    +0.000 C 
BRANCH  21  22
ATOM     22  C   UNL     1     -11.968   7.401 129.779  0.00  0.00    +0.000 C 
ATOM     23  C   UNL     1     -12.422   7.014 128.379  0.00  0.00    +0.000 C 
ATOM     24  C   UNL     1     -13.534   8.004 128.059  0.00  0.00    +0.000 C 
ATOM     25  C   UNL     1     -13.101   9.236 128.786  0.00  0.00    +0.000 C 
ATOM     26  O   UNL     1     -12.589   8.692 129.993  0.00  0.00    +0.000 OA
ENDBRANCH  21  22
ENDBRANCH  16  21
ENDBRANCH   4  14
TORSDOF 6
ENDMDL
