MODEL 1
REMARK VINA RESULT:      -8.8      0.000      0.000
REMARK  Name = CHEMBL401858
REMARK  9 active torsions:
REMARK  status: ('A' for Active; 'I' for Inactive)
REMARK    1  A    between atoms: CD1_1  and  CG1_2
REMARK    2  A    between atoms: CG1_2  and  CB_3
REMARK    3  A    between atoms: CB_3  and  CG2_4
REMARK    4  A    between atoms: CB_3  and  CA_5
REMARK    5  A    between atoms: C_9  and  C_10
REMARK    6  A    between atoms: N_21  and  C_22
REMARK    7  A    between atoms: C_22  and  C_23
REMARK    8  A    between atoms: C_22  and  C_31
REMARK    9  A    between atoms: C_34  and  C_35
REMARK                            x       y       z     vdW  Elec       q    Type
REMARK                         _______ _______ _______ _____ _____    ______ ____
ROOT
ATOM      1  CA  ILE A   2      -8.120   2.889 128.891  0.00  0.00    +0.000 C 
ATOM      2  C   ILE A   2      -8.266   4.340 128.303  0.00  0.00    +0.000 C 
ATOM      3  O   ILE A   2      -8.352   4.842 127.221  0.00  0.00    +0.000 OA
ATOM      4  N   UNK A   1      -8.589   5.235 129.217  0.00  0.00    +0.000 N 
ATOM      5  C   UNK A   1      -9.259   4.838 130.394  0.00  0.00    +0.000 C 
ATOM      6  C   UNK A   1      -8.253   3.970 131.148  0.00  0.00    +0.000 C 
ATOM      7  O   UNK A   1      -8.183   4.121 132.346  0.00  0.00    +0.000 OA
ATOM      8  N   ILE A   2      -7.521   3.073 130.302  0.00  0.00    +0.000 N 
ATOM      9  H   UNK A   1      -8.836   6.046 128.664  0.00  0.00    +0.000 HD
ENDROOT
BRANCH   5  10
ATOM     10  C   UNK A   1      -9.593   6.115 131.154  0.00  0.00    +0.000 C 
ATOM     11  C   UNK A   1     -11.124   6.156 131.369  0.00  0.00    +0.000 C 
ATOM     12  C   UNK A   1     -11.596   6.927 130.162  0.00  0.00    +0.000 A 
ATOM     13  C   UNK A   1     -12.824   6.817 129.524  0.00  0.00    +0.000 A 
ATOM     14  C   UNK A   1     -12.995   7.461 128.295  0.00  0.00    +0.000 A 
ATOM     15  C   UNK A   1     -11.941   8.176 127.703  0.00  0.00    +0.000 A 
ATOM     16  C   UNK A   1     -10.690   8.240 128.321  0.00  0.00    +0.000 A 
ATOM     17  C   UNK A   1     -10.532   7.619 129.554  0.00  0.00    +0.000 A 
ATOM     18  C   UNK A   1      -9.250   7.387 130.311  0.00  0.00    +0.000 C 
ENDBRANCH   5  10
BRANCH   1  19
ATOM     19  CB  ILE A   2      -7.373   1.991 127.911  0.00  0.00    +0.000 C 
ATOM     20  CG2 ILE A   2      -7.893   0.381 128.225  0.00  0.00    +0.000 C 
BRANCH  19  22
ATOM     21  CD1 ILE A   2      -5.603   2.631 125.856  0.00  0.00    +0.000 C 
ATOM     22  CG1 ILE A   2      -5.912   2.503 127.389  0.00  0.00    +0.000 C 
ENDBRANCH  19  22
ENDBRANCH   1  19
BRANCH   8  23
ATOM     23  C   UNK A   0      -6.219   2.421 130.807  0.00  0.00    +0.000 C 
BRANCH  23  24
ATOM     24  C   UNK A   0      -4.725   3.294 130.923  0.00  0.00    +0.000 C 
ATOM     25  O   UNK A   0      -3.649   2.689 130.805  0.00  0.00    +0.000 OA
ATOM     26  N   UNK A   0      -4.634   4.716 130.854  0.00  0.00    +0.000 N 
ATOM     27  C   UNK A   0      -5.113   5.689 131.842  0.00  0.00    +0.000 C 
ATOM     28  C   UNK A   0      -5.675   6.968 130.992  0.00  0.00    +0.000 C 
ATOM     29  O   UNK A   0      -4.820   7.530 130.041  0.00  0.00    +0.000 OA
ATOM     30  C   UNK A   0      -4.127   6.570 129.280  0.00  0.00    +0.000 C 
ATOM     31  C   UNK A   0      -3.573   5.407 130.128  0.00  0.00    +0.000 C 
ENDBRANCH  23  24
BRANCH  23  32
ATOM     32  C   UNK A   0      -6.470   1.613 132.145  0.00  0.00    +0.000 A 
ATOM     33  C   UNK A   0      -7.329   0.559 132.378  0.00  0.00    +0.000 A 
ATOM     34  O   UNK A   0      -7.075   0.014 133.591  0.00  0.00    +0.000 OA
ATOM     35  C   UNK A   0      -6.077   0.784 134.108  0.00  0.00    +0.000 A 
ATOM     36  C   UNK A   0      -5.560   0.313 135.418  0.00  0.00    +0.000 C 
ATOM     37  N   UNK A   0      -5.757   1.826 133.348  0.00  0.00    +0.000 NA
ENDBRANCH  23  32
ENDBRANCH   8  23
TORSDOF 6
ENDMDL
MODEL 2
REMARK VINA RESULT:      -8.8      4.017      7.818
REMARK  Name = CHEMBL401858
REMARK  9 active torsions:
REMARK  status: ('A' for Active; 'I' for Inactive)
REMARK    1  A    between atoms: CD1_1  and  CG1_2
REMARK    2  A    between atoms: CG1_2  and  CB_3
REMARK    3  A    between atoms: CB_3  and  CG2_4
REMARK    4  A    between atoms: CB_3  and  CA_5
REMARK    5  A    between atoms: C_9  and  C_10
REMARK    6  A    between atoms: N_21  and  C_22
REMARK    7  A    between atoms: C_22  and  C_23
REMARK    8  A    between atoms: C_22  and  C_31
REMARK    9  A    between atoms: C_34  and  C_35
REMARK                            x       y       z     vdW  Elec       q    Type
REMARK                         _______ _______ _______ _____ _____    ______ ____
ROOT
ATOM      1  CA  ILE A   2      -5.786   2.842 127.804  0.00  0.00    +0.000 C 
ATOM      2  C   ILE A   2      -5.029   2.449 129.125  0.00  0.00    +0.000 C 
ATOM      3  O   ILE A   2      -4.095   2.854 129.753  0.00  0.00    +0.000 OA
ATOM      4  N   UNK A   1      -5.698   1.582 129.861  0.00  0.00    +0.000 N 
ATOM      5  C   UNK A   1      -7.102   1.492 129.753  0.00  0.00    +0.000 C 
ATOM      6  C   UNK A   1      -7.357   0.966 128.342  0.00  0.00    +0.000 C 
ATOM      7  O   UNK A   1      -8.222   0.130 128.213  0.00  0.00    +0.000 OA
ATOM      8  N   ILE A   2      -6.513   1.559 127.346  0.00  0.00    +0.000 N 
ATOM      9  H   UNK A   1      -5.191   1.590 130.738  0.00  0.00    +0.000 HD
ENDROOT
BRANCH   5  10
ATOM     10  C   UNK A   1      -7.557   0.507 130.821  0.00  0.00    +0.000 C 
ATOM     11  C   UNK A   1      -8.965   0.931 131.295  0.00  0.00    +0.000 C 
ATOM     12  C   UNK A   1      -8.652   1.828 132.468  0.00  0.00    +0.000 A 
ATOM     13  C   UNK A   1      -9.405   2.896 132.932  0.00  0.00    +0.000 A 
ATOM     14  C   UNK A   1      -8.843   3.738 133.898  0.00  0.00    +0.000 A 
ATOM     15  C   UNK A   1      -7.535   3.527 134.363  0.00  0.00    +0.000 A 
ATOM     16  C   UNK A   1      -6.759   2.483 133.854  0.00  0.00    +0.000 A 
ATOM     17  C   UNK A   1      -7.330   1.635 132.913  0.00  0.00    +0.000 A 
ATOM     18  C   UNK A   1      -6.643   0.577 132.088  0.00  0.00    +0.000 C 
ENDBRANCH   5  10
BRANCH   1  19
ATOM     19  CB  ILE A   2      -4.829   3.508 126.821  0.00  0.00    +0.000 C 
ATOM     20  CG2 ILE A   2      -5.777   4.567 125.852  0.00  0.00    +0.000 C 
BRANCH  19  22
ATOM     21  CD1 ILE A   2      -2.059   3.200 126.791  0.00  0.00    +0.000 C 
ATOM     22  CG1 ILE A   2      -3.486   2.676 126.402  0.00  0.00    +0.000 C 
ENDBRANCH  19  22
ENDBRANCH   1  19
BRANCH   8  23
ATOM     23  C   UNK A   0      -6.351   0.889 125.968  0.00  0.00    +0.000 C 
BRANCH  23  24
ATOM     24  C   UNK A   0      -6.233  -0.831 125.778  0.00  0.00    +0.000 C 
ATOM     25  O   UNK A   0      -5.449  -1.475 126.491  0.00  0.00    +0.000 OA
ATOM     26  N   UNK A   0      -7.186  -1.613 125.059  0.00  0.00    +0.000 N 
ATOM     27  C   UNK A   0      -7.428  -1.615 123.612  0.00  0.00    +0.000 C 
ATOM     28  C   UNK A   0      -9.040  -1.808 123.417  0.00  0.00    +0.000 C 
ATOM     29  O   UNK A   0      -9.640  -2.886 124.073  0.00  0.00    +0.000 OA
ATOM     30  C   UNK A   0      -9.176  -3.063 125.390  0.00  0.00    +0.000 C 
ATOM     31  C   UNK A   0      -7.646  -2.919 125.520  0.00  0.00    +0.000 C 
ENDBRANCH  23  24
BRANCH  23  32
ATOM     32  C   UNK A   0      -7.392   1.470 124.927  0.00  0.00    +0.000 A 
ATOM     33  C   UNK A   0      -8.721   1.790 125.110  0.00  0.00    +0.000 A 
ATOM     34  O   UNK A   0      -9.188   2.465 124.033  0.00  0.00    +0.000 OA
ATOM     35  C   UNK A   0      -8.131   2.509 123.175  0.00  0.00    +0.000 A 
ATOM     36  C   UNK A   0      -8.382   3.295 121.941  0.00  0.00    +0.000 C 
ATOM     37  N   UNK A   0      -7.070   1.829 123.597  0.00  0.00    +0.000 NA
ENDBRANCH  23  32
ENDBRANCH   8  23
TORSDOF 6
ENDMDL
MODEL 3
REMARK VINA RESULT:      -8.5      3.011      7.142
REMARK  Name = CHEMBL401858
REMARK  9 active torsions:
REMARK  status: ('A' for Active; 'I' for Inactive)
REMARK    1  A    between atoms: CD1_1  and  CG1_2
REMARK    2  A    between atoms: CG1_2  and  CB_3
REMARK    3  A    between atoms: CB_3  and  CG2_4
REMARK    4  A    between atoms: CB_3  and  CA_5
REMARK    5  A    between atoms: C_9  and  C_10
REMARK    6  A    between atoms: N_21  and  C_22
REMARK    7  A    between atoms: C_22  and  C_23
REMARK    8  A    between atoms: C_22  and  C_31
REMARK    9  A    between atoms: C_34  and  C_35
REMARK                            x       y       z     vdW  Elec       q    Type
REMARK                         _______ _______ _______ _____ _____    ______ ____
ROOT
ATOM      1  CA  ILE A   2      -7.900   0.513 129.515  0.00  0.00    +0.000 C 
ATOM      2  C   ILE A   2      -6.851  -0.294 128.665  0.00  0.00    +0.000 C 
ATOM      3  O   ILE A   2      -6.183  -1.277 128.801  0.00  0.00    +0.000 OA
ATOM      4  N   UNK A   1      -6.838   0.061 127.394  0.00  0.00    +0.000 N 
ATOM      5  C   UNK A   1      -7.981   0.643 126.807  0.00  0.00    +0.000 C 
ATOM      6  C   UNK A   1      -8.142   1.992 127.506  0.00  0.00    +0.000 C 
ATOM      7  O   UNK A   1      -8.446   2.937 126.817  0.00  0.00    +0.000 OA
ATOM      8  N   ILE A   2      -7.906   1.938 128.920  0.00  0.00    +0.000 N 
ATOM      9  H   UNK A   1      -6.279  -0.664 126.962  0.00  0.00    +0.000 HD
ENDROOT
BRANCH   5  10
ATOM     10  C   UNK A   1      -7.674   0.801 125.324  0.00  0.00    +0.000 C 
ATOM     11  C   UNK A   1      -8.848   0.192 124.525  0.00  0.00    +0.000 C 
ATOM     12  C   UNK A   1      -8.390  -1.229 124.315  0.00  0.00    +0.000 A 
ATOM     13  C   UNK A   1      -9.187  -2.356 124.174  0.00  0.00    +0.000 A 
ATOM     14  C   UNK A   1      -8.575  -3.613 124.203  0.00  0.00    +0.000 A 
ATOM     15  C   UNK A   1      -7.190  -3.735 124.402  0.00  0.00    +0.000 A 
ATOM     16  C   UNK A   1      -6.397  -2.602 124.598  0.00  0.00    +0.000 A 
ATOM     17  C   UNK A   1      -7.006  -1.354 124.545  0.00  0.00    +0.000 A 
ATOM     18  C   UNK A   1      -6.409  -0.021 124.913  0.00  0.00    +0.000 C 
ENDBRANCH   5  10
BRANCH   1  19
ATOM     19  CB  ILE A   2      -7.605   0.363 131.003  0.00  0.00    +0.000 C 
ATOM     20  CG2 ILE A   2      -9.119   0.458 131.816  0.00  0.00    +0.000 C 
BRANCH  19  22
ATOM     21  CD1 ILE A   2      -5.067  -0.190 132.012  0.00  0.00    +0.000 C 
ATOM     22  CG1 ILE A   2      -6.137   0.851 131.530  0.00  0.00    +0.000 C 
ENDBRANCH  19  22
ENDBRANCH   1  19
BRANCH   8  23
ATOM     23  C   UNK A   0      -7.637   3.233 129.711  0.00  0.00    +0.000 C 
BRANCH  23  24
ATOM     24  C   UNK A   0      -6.165   4.136 129.544  0.00  0.00    +0.000 C 
ATOM     25  O   UNK A   0      -5.705   4.744 130.521  0.00  0.00    +0.000 OA
ATOM     26  N   UNK A   0      -5.276   3.997 128.437  0.00  0.00    +0.000 N 
ATOM     27  C   UNK A   0      -5.513   4.402 127.047  0.00  0.00    +0.000 C 
ATOM     28  C   UNK A   0      -4.801   3.266 126.111  0.00  0.00    +0.000 C 
ATOM     29  O   UNK A   0      -3.461   2.968 126.372  0.00  0.00    +0.000 OA
ATOM     30  C   UNK A   0      -3.172   2.872 127.747  0.00  0.00    +0.000 C 
ATOM     31  C   UNK A   0      -3.824   3.989 128.585  0.00  0.00    +0.000 C 
ENDBRANCH  23  24
BRANCH  23  32
ATOM     32  C   UNK A   0      -8.876   4.214 129.635  0.00  0.00    +0.000 A 
ATOM     33  C   UNK A   0     -10.070   4.165 130.325  0.00  0.00    +0.000 A 
ATOM     34  O   UNK A   0     -10.763   5.312 130.134  0.00  0.00    +0.000 OA
ATOM     35  C   UNK A   0      -9.989   6.038 129.279  0.00  0.00    +0.000 A 
ATOM     36  C   UNK A   0     -10.511   7.398 128.992  0.00  0.00    +0.000 C 
ATOM     37  N   UNK A   0      -8.912   5.389 128.849  0.00  0.00    +0.000 NA
ENDBRANCH  23  32
ENDBRANCH   8  23
TORSDOF 6
ENDMDL
MODEL 4
REMARK VINA RESULT:      -8.4      1.717      2.090
REMARK  Name = CHEMBL401858
REMARK  9 active torsions:
REMARK  status: ('A' for Active; 'I' for Inactive)
REMARK    1  A    between atoms: CD1_1  and  CG1_2
REMARK    2  A    between atoms: CG1_2  and  CB_3
REMARK    3  A    between atoms: CB_3  and  CG2_4
REMARK    4  A    between atoms: CB_3  and  CA_5
REMARK    5  A    between atoms: C_9  and  C_10
REMARK    6  A    between atoms: N_21  and  C_22
REMARK    7  A    between atoms: C_22  and  C_23
REMARK    8  A    between atoms: C_22  and  C_31
REMARK    9  A    between atoms: C_34  and  C_35
REMARK                            x       y       z     vdW  Elec       q    Type
REMARK                         _______ _______ _______ _____ _____    ______ ____
ROOT
ATOM      1  CA  ILE A   2      -8.128   2.753 128.757  0.00  0.00    +0.000 C 
ATOM      2  C   ILE A   2      -7.975   4.261 128.336  0.00  0.00    +0.000 C 
ATOM      3  O   ILE A   2      -7.752   4.872 127.332  0.00  0.00    +0.000 OA
ATOM      4  N   UNK A   1      -8.402   5.098 129.262  0.00  0.00    +0.000 N 
ATOM      5  C   UNK A   1      -9.366   4.684 130.206  0.00  0.00    +0.000 C 
ATOM      6  C   UNK A   1      -8.663   3.620 131.047  0.00  0.00    +0.000 C 
ATOM      7  O   UNK A   1      -8.856   3.643 132.240  0.00  0.00    +0.000 OA
ATOM      8  N   ILE A   2      -7.856   2.718 130.276  0.00  0.00    +0.000 N 
ATOM      9  H   UNK A   1      -8.424   5.985 128.773  0.00  0.00    +0.000 HD
ENDROOT
BRANCH   5  10
ATOM     10  C   UNK A   1      -9.725   5.915 131.027  0.00  0.00    +0.000 C 
ATOM     11  C   UNK A   1     -11.265   5.973 131.150  0.00  0.00    +0.000 C 
ATOM     12  C   UNK A   1     -11.648   6.832 129.970  0.00  0.00    +0.000 A 
ATOM     13  C   UNK A   1     -12.835   6.790 129.252  0.00  0.00    +0.000 A 
ATOM     14  C   UNK A   1     -12.918   7.517 128.060  0.00  0.00    +0.000 A 
ATOM     15  C   UNK A   1     -11.817   8.247 127.584  0.00  0.00    +0.000 A 
ATOM     16  C   UNK A   1     -10.606   8.244 128.281  0.00  0.00    +0.000 A 
ATOM     17  C   UNK A   1     -10.536   7.540 129.477  0.00  0.00    +0.000 A 
ATOM     18  C   UNK A   1      -9.308   7.231 130.294  0.00  0.00    +0.000 C 
ENDBRANCH   5  10
BRANCH   1  19
ATOM     19  CB  ILE A   2      -7.277   1.862 127.859  0.00  0.00    +0.000 C 
ATOM     20  CG2 ILE A   2      -8.042   0.322 127.827  0.00  0.00    +0.000 C 
BRANCH  19  22
ATOM     21  CD1 ILE A   2      -4.888   1.950 126.427  0.00  0.00    +0.000 C 
ATOM     22  CG1 ILE A   2      -5.683   2.207 127.755  0.00  0.00    +0.000 C 
ENDBRANCH  19  22
ENDBRANCH   1  19
BRANCH   8  23
ATOM     23  C   UNK A   0      -6.786   1.851 130.968  0.00  0.00    +0.000 C 
BRANCH  23  24
ATOM     24  C   UNK A   0      -5.474   2.537 131.872  0.00  0.00    +0.000 C 
ATOM     25  O   UNK A   0      -4.331   2.534 131.393  0.00  0.00    +0.000 OA
ATOM     26  N   UNK A   0      -5.655   3.375 133.012  0.00  0.00    +0.000 N 
ATOM     27  C   UNK A   0      -6.172   2.989 134.330  0.00  0.00    +0.000 C 
ATOM     28  C   UNK A   0      -7.063   4.252 134.862  0.00  0.00    +0.000 C 
ATOM     29  O   UNK A   0      -6.455   5.510 134.860  0.00  0.00    +0.000 OA
ATOM     30  C   UNK A   0      -5.703   5.762 133.698  0.00  0.00    +0.000 C 
ATOM     31  C   UNK A   0      -4.841   4.561 133.259  0.00  0.00    +0.000 C 
ENDBRANCH  23  24
BRANCH  23  32
ATOM     32  C   UNK A   0      -7.453   0.681 131.799  0.00  0.00    +0.000 A 
ATOM     33  C   UNK A   0      -8.779   0.308 131.868  0.00  0.00    +0.000 A 
ATOM     34  O   UNK A   0      -8.895  -0.876 132.515  0.00  0.00    +0.000 OA
ATOM     35  C   UNK A   0      -7.619  -1.192 132.876  0.00  0.00    +0.000 A 
ATOM     36  C   UNK A   0      -7.482  -2.518 133.528  0.00  0.00    +0.000 C 
ATOM     37  N   UNK A   0      -6.731  -0.246 132.587  0.00  0.00    +0.000 NA
ENDBRANCH  23  32
ENDBRANCH   8  23
TORSDOF 6
ENDMDL
MODEL 5
REMARK VINA RESULT:      -8.3      2.876      6.970
REMARK  Name = CHEMBL401858
REMARK  9 active torsions:
REMARK  status: ('A' for Active; 'I' for Inactive)
REMARK    1  A    between atoms: CD1_1  and  CG1_2
REMARK    2  A    between atoms: CG1_2  and  CB_3
REMARK    3  A    between atoms: CB_3  and  CG2_4
REMARK    4  A    between atoms: CB_3  and  CA_5
REMARK    5  A    between atoms: C_9  and  C_10
REMARK    6  A    between atoms: N_21  and  C_22
REMARK    7  A    between atoms: C_22  and  C_23
REMARK    8  A    between atoms: C_22  and  C_31
REMARK    9  A    between atoms: C_34  and  C_35
REMARK                            x       y       z     vdW  Elec       q    Type
REMARK                         _______ _______ _______ _____ _____    ______ ____
ROOT
ATOM      1  CA  ILE A   2      -8.001   0.679 129.341  0.00  0.00    +0.000 C 
ATOM      2  C   ILE A   2      -7.010  -0.230 128.525  0.00  0.00    +0.000 C 
ATOM      3  O   ILE A   2      -6.418  -1.254 128.698  0.00  0.00    +0.000 OA
ATOM      4  N   UNK A   1      -6.964   0.082 127.244  0.00  0.00    +0.000 N 
ATOM      5  C   UNK A   1      -8.057   0.728 126.629  0.00  0.00    +0.000 C 
ATOM      6  C   UNK A   1      -8.121   2.106 127.284  0.00  0.00    +0.000 C 
ATOM      7  O   UNK A   1      -8.350   3.049 126.563  0.00  0.00    +0.000 OA
ATOM      8  N   ILE A   2      -7.898   2.081 128.701  0.00  0.00    +0.000 N 
ATOM      9  H   UNK A   1      -6.458  -0.696 126.839  0.00  0.00    +0.000 HD
ENDROOT
BRANCH   5  10
ATOM     10  C   UNK A   1      -7.730   0.815 125.145  0.00  0.00    +0.000 C 
ATOM     11  C   UNK A   1      -8.908   0.195 124.359  0.00  0.00    +0.000 C 
ATOM     12  C   UNK A   1      -8.477  -1.243 124.217  0.00  0.00    +0.000 A 
ATOM     13  C   UNK A   1      -9.295  -2.359 124.115  0.00  0.00    +0.000 A 
ATOM     14  C   UNK A   1      -8.709  -3.626 124.206  0.00  0.00    +0.000 A 
ATOM     15  C   UNK A   1      -7.330  -3.767 124.427  0.00  0.00    +0.000 A 
ATOM     16  C   UNK A   1      -6.516  -2.642 124.583  0.00  0.00    +0.000 A 
ATOM     17  C   UNK A   1      -7.099  -1.386 124.467  0.00  0.00    +0.000 A 
ATOM     18  C   UNK A   1      -6.478  -0.049 124.784  0.00  0.00    +0.000 C 
ENDBRANCH   5  10
BRANCH   1  19
ATOM     19  CB  ILE A   2      -7.726   0.556 130.835  0.00  0.00    +0.000 C 
ATOM     20  CG2 ILE A   2      -9.231   0.801 131.633  0.00  0.00    +0.000 C 
BRANCH  19  22
ATOM     21  CD1 ILE A   2      -5.258  -0.162 131.911  0.00  0.00    +0.000 C 
ATOM     22  CG1 ILE A   2      -6.226   0.941 131.357  0.00  0.00    +0.000 C 
ENDBRANCH  19  22
ENDBRANCH   1  19
BRANCH   8  23
ATOM     23  C   UNK A   0      -7.538   3.377 129.452  0.00  0.00    +0.000 C 
BRANCH  23  24
ATOM     24  C   UNK A   0      -6.116   4.300 129.086  0.00  0.00    +0.000 C 
ATOM     25  O   UNK A   0      -5.936   4.719 127.933  0.00  0.00    +0.000 OA
ATOM     26  N   UNK A   0      -5.268   4.872 130.080  0.00  0.00    +0.000 N 
ATOM     27  C   UNK A   0      -4.391   4.163 131.019  0.00  0.00    +0.000 C 
ATOM     28  C   UNK A   0      -4.447   5.001 132.422  0.00  0.00    +0.000 C 
ATOM     29  O   UNK A   0      -4.187   6.372 132.360  0.00  0.00    +0.000 OA
ATOM     30  C   UNK A   0      -4.804   7.006 131.265  0.00  0.00    +0.000 C 
ATOM     31  C   UNK A   0      -4.686   6.205 129.953  0.00  0.00    +0.000 C 
ENDBRANCH  23  24
BRANCH  23  32
ATOM     32  C   UNK A   0      -8.789   4.341 129.554  0.00  0.00    +0.000 A 
ATOM     33  C   UNK A   0      -9.826   4.329 130.464  0.00  0.00    +0.000 A 
ATOM     34  O   UNK A   0     -10.566   5.456 130.338  0.00  0.00    +0.000 OA
ATOM     35  C   UNK A   0      -9.986   6.129 129.305  0.00  0.00    +0.000 A 
ATOM     36  C   UNK A   0     -10.581   7.464 129.038  0.00  0.00    +0.000 C 
ATOM     37  N   UNK A   0      -8.999   5.462 128.717  0.00  0.00    +0.000 NA
ENDBRANCH  23  32
ENDBRANCH   8  23
TORSDOF 6
ENDMDL
MODEL 6
REMARK VINA RESULT:      -8.2      2.860      7.137
REMARK  Name = CHEMBL401858
REMARK  9 active torsions:
REMARK  status: ('A' for Active; 'I' for Inactive)
REMARK    1  A    between atoms: CD1_1  and  CG1_2
REMARK    2  A    between atoms: CG1_2  and  CB_3
REMARK    3  A    between atoms: CB_3  and  CG2_4
REMARK    4  A    between atoms: CB_3  and  CA_5
REMARK    5  A    between atoms: C_9  and  C_10
REMARK    6  A    between atoms: N_21  and  C_22
REMARK    7  A    between atoms: C_22  and  C_23
REMARK    8  A    between atoms: C_22  and  C_31
REMARK    9  A    between atoms: C_34  and  C_35
REMARK                            x       y       z     vdW  Elec       q    Type
REMARK                         _______ _______ _______ _____ _____    ______ ____
ROOT
ATOM      1  CA  ILE A   2      -5.509   4.041 133.145  0.00  0.00    +0.000 C 
ATOM      2  C   ILE A   2      -5.114   5.473 133.660  0.00  0.00    +0.000 C 
ATOM      3  O   ILE A   2      -5.056   6.040 134.711  0.00  0.00    +0.000 OA
ATOM      4  N   UNK A   1      -4.482   6.190 132.751  0.00  0.00    +0.000 N 
ATOM      5  C   UNK A   1      -3.774   5.553 131.709  0.00  0.00    +0.000 C 
ATOM      6  C   UNK A   1      -4.846   4.859 130.871  0.00  0.00    +0.000 C 
ATOM      7  O   UNK A   1      -4.726   4.912 129.669  0.00  0.00    +0.000 OA
ATOM      8  N   ILE A   2      -5.865   4.222 131.653  0.00  0.00    +0.000 N 
ATOM      9  H   UNK A   1      -4.130   6.975 133.285  0.00  0.00    +0.000 HD
ENDROOT
BRANCH   5  10
ATOM     10  C   UNK A   1      -3.065   6.654 130.932  0.00  0.00    +0.000 C 
ATOM     11  C   UNK A   1      -1.542   6.415 131.048  0.00  0.00    +0.000 C 
ATOM     12  C   UNK A   1      -1.180   7.241 132.257  0.00  0.00    +0.000 A 
ATOM     13  C   UNK A   1      -0.144   7.011 133.151  0.00  0.00    +0.000 A 
ATOM     14  C   UNK A   1      -0.100   7.765 134.328  0.00  0.00    +0.000 A 
ATOM     15  C   UNK A   1      -1.098   8.711 134.615  0.00  0.00    +0.000 A 
ATOM     16  C   UNK A   1      -2.169   8.903 133.738  0.00  0.00    +0.000 A 
ATOM     17  C   UNK A   1      -2.195   8.169 132.559  0.00  0.00    +0.000 A 
ATOM     18  C   UNK A   1      -3.324   8.059 131.567  0.00  0.00    +0.000 C 
ENDBRANCH   5  10
BRANCH   1  19
ATOM     19  CB  ILE A   2      -6.559   3.418 134.058  0.00  0.00    +0.000 C 
ATOM     20  CG2 ILE A   2      -6.356   1.713 133.950  0.00  0.00    +0.000 C 
BRANCH  19  22
ATOM     21  CD1 ILE A   2      -9.329   3.675 133.880  0.00  0.00    +0.000 C 
ATOM     22  CG1 ILE A   2      -7.937   4.263 134.302  0.00  0.00    +0.000 C 
ENDBRANCH  19  22
ENDBRANCH   1  19
BRANCH   8  23
ATOM     23  C   UNK A   0      -7.205   3.824 131.004  0.00  0.00    +0.000 C 
BRANCH  23  24
ATOM     24  C   UNK A   0      -8.084   4.889 129.955  0.00  0.00    +0.000 C 
ATOM     25  O   UNK A   0      -7.838   4.895 128.740  0.00  0.00    +0.000 OA
ATOM     26  N   UNK A   0      -9.284   5.561 130.337  0.00  0.00    +0.000 N 
ATOM     27  C   UNK A   0      -9.426   6.642 131.319  0.00  0.00    +0.000 C 
ATOM     28  C   UNK A   0     -10.850   6.385 132.081  0.00  0.00    +0.000 C 
ATOM     29  O   UNK A   0     -11.984   6.220 131.281  0.00  0.00    +0.000 OA
ATOM     30  C   UNK A   0     -11.756   5.403 130.157  0.00  0.00    +0.000 C 
ATOM     31  C   UNK A   0     -10.426   5.711 129.441  0.00  0.00    +0.000 C 
ENDBRANCH  23  24
BRANCH  23  32
ATOM     32  C   UNK A   0      -7.114   2.386 130.350  0.00  0.00    +0.000 A 
ATOM     33  C   UNK A   0      -6.142   1.866 129.520  0.00  0.00    +0.000 A 
ATOM     34  O   UNK A   0      -6.327   0.533 129.367  0.00  0.00    +0.000 OA
ATOM     35  C   UNK A   0      -7.454   0.262 130.083  0.00  0.00    +0.000 A 
ATOM     36  C   UNK A   0      -7.807  -1.179 130.140  0.00  0.00    +0.000 C 
ATOM     37  N   UNK A   0      -8.039   1.342 130.590  0.00  0.00    +0.000 NA
ENDBRANCH  23  32
ENDBRANCH   8  23
TORSDOF 6
ENDMDL
MODEL 7
REMARK VINA RESULT:      -8.2      2.385      5.493
REMARK  Name = CHEMBL401858
REMARK  9 active torsions:
REMARK  status: ('A' for Active; 'I' for Inactive)
REMARK    1  A    between atoms: CD1_1  and  CG1_2
REMARK    2  A    between atoms: CG1_2  and  CB_3
REMARK    3  A    between atoms: CB_3  and  CG2_4
REMARK    4  A    between atoms: CB_3  and  CA_5
REMARK    5  A    between atoms: C_9  and  C_10
REMARK    6  A    between atoms: N_21  and  C_22
REMARK    7  A    between atoms: C_22  and  C_23
REMARK    8  A    between atoms: C_22  and  C_31
REMARK    9  A    between atoms: C_34  and  C_35
REMARK                            x       y       z     vdW  Elec       q    Type
REMARK                         _______ _______ _______ _____ _____    ______ ____
ROOT
ATOM      1  CA  ILE A   2      -7.211   6.312 131.162  0.00  0.00    +0.000 C 
ATOM      2  C   ILE A   2      -8.376   6.154 132.206  0.00  0.00    +0.000 C 
ATOM      3  O   ILE A   2      -8.578   6.456 133.346  0.00  0.00    +0.000 OA
ATOM      4  N   UNK A   1      -9.514   5.780 131.653  0.00  0.00    +0.000 N 
ATOM      5  C   UNK A   1      -9.768   6.055 130.293  0.00  0.00    +0.000 C 
ATOM      6  C   UNK A   1      -8.754   5.210 129.523  0.00  0.00    +0.000 C 
ATOM      7  O   UNK A   1      -9.147   4.651 128.526  0.00  0.00    +0.000 OA
ATOM      8  N   ILE A   2      -7.445   5.207 130.110  0.00  0.00    +0.000 N 
ATOM      9  H   UNK A   1     -10.184   5.917 132.400  0.00  0.00    +0.000 HD
ENDROOT
BRANCH   5  10
ATOM     10  C   UNK A   1     -11.200   5.616 130.022  0.00  0.00    +0.000 C 
ATOM     11  C   UNK A   1     -11.680   6.321 128.733  0.00  0.00    +0.000 C 
ATOM     12  C   UNK A   1     -12.324   7.573 129.273  0.00  0.00    +0.000 A 
ATOM     13  C   UNK A   1     -12.431   8.803 128.639  0.00  0.00    +0.000 A 
ATOM     14  C   UNK A   1     -12.871   9.901 129.384  0.00  0.00    +0.000 A 
ATOM     15  C   UNK A   1     -13.167   9.771 130.751  0.00  0.00    +0.000 A 
ATOM     16  C   UNK A   1     -13.007   8.545 131.400  0.00  0.00    +0.000 A 
ATOM     17  C   UNK A   1     -12.593   7.451 130.649  0.00  0.00    +0.000 A 
ATOM     18  C   UNK A   1     -12.168   6.096 131.153  0.00  0.00    +0.000 C 
ENDBRANCH   5  10
BRANCH   1  19
ATOM     19  CB  ILE A   2      -5.862   6.347 131.871  0.00  0.00    +0.000 C 
ATOM     20  CG2 ILE A   2      -4.809   7.281 130.881  0.00  0.00    +0.000 C 
BRANCH  19  22
ATOM     21  CD1 ILE A   2      -4.149   4.292 132.652  0.00  0.00    +0.000 C 
ATOM     22  CG1 ILE A   2      -5.491   5.083 132.839  0.00  0.00    +0.000 C 
ENDBRANCH  19  22
ENDBRANCH   1  19
BRANCH   8  23
ATOM     23  C   UNK A   0      -6.421   4.125 129.714  0.00  0.00    +0.000 C 
BRANCH  23  24
ATOM     24  C   UNK A   0      -6.782   2.430 129.790  0.00  0.00    +0.000 C 
ATOM     25  O   UNK A   0      -7.330   1.964 130.799  0.00  0.00    +0.000 OA
ATOM     26  N   UNK A   0      -6.762   1.567 128.654  0.00  0.00    +0.000 N 
ATOM     27  C   UNK A   0      -5.590   1.137 127.882  0.00  0.00    +0.000 C 
ATOM     28  C   UNK A   0      -6.071   1.063 126.321  0.00  0.00    +0.000 C 
ATOM     29  O   UNK A   0      -7.217   0.315 126.038  0.00  0.00    +0.000 OA
ATOM     30  C   UNK A   0      -8.253   0.513 126.970  0.00  0.00    +0.000 C 
ATOM     31  C   UNK A   0      -7.762   0.528 128.432  0.00  0.00    +0.000 C 
ENDBRANCH  23  24
BRANCH  23  32
ATOM     32  C   UNK A   0      -5.745   4.464 128.324  0.00  0.00    +0.000 A 
ATOM     33  C   UNK A   0      -4.407   4.601 128.017  0.00  0.00    +0.000 A 
ATOM     34  O   UNK A   0      -4.244   4.671 126.674  0.00  0.00    +0.000 OA
ATOM     35  C   UNK A   0      -5.511   4.620 126.175  0.00  0.00    +0.000 A 
ATOM     36  C   UNK A   0      -5.581   4.588 124.693  0.00  0.00    +0.000 C 
ATOM     37  N   UNK A   0      -6.456   4.620 127.111  0.00  0.00    +0.000 NA
ENDBRANCH  23  32
ENDBRANCH   8  23
TORSDOF 6
ENDMDL
MODEL 8
REMARK VINA RESULT:      -8.2      2.744      7.416
REMARK  Name = CHEMBL401858
REMARK  9 active torsions:
REMARK  status: ('A' for Active; 'I' for Inactive)
REMARK    1  A    between atoms: CD1_1  and  CG1_2
REMARK    2  A    between atoms: CG1_2  and  CB_3
REMARK    3  A    between atoms: CB_3  and  CG2_4
REMARK    4  A    between atoms: CB_3  and  CA_5
REMARK    5  A    between atoms: C_9  and  C_10
REMARK    6  A    between atoms: N_21  and  C_22
REMARK    7  A    between atoms: C_22  and  C_23
REMARK    8  A    between atoms: C_22  and  C_31
REMARK    9  A    between atoms: C_34  and  C_35
REMARK                            x       y       z     vdW  Elec       q    Type
REMARK                         _______ _______ _______ _____ _____    ______ ____
ROOT
ATOM      1  CA  ILE A   2      -8.457   2.026 130.792  0.00  0.00    +0.000 C 
ATOM      2  C   ILE A   2      -8.622   0.540 131.279  0.00  0.00    +0.000 C 
ATOM      3  O   ILE A   2      -9.480  -0.129 131.775  0.00  0.00    +0.000 OA
ATOM      4  N   UNK A   1      -7.653  -0.250 130.855  0.00  0.00    +0.000 N 
ATOM      5  C   UNK A   1      -6.932   0.074 129.687  0.00  0.00    +0.000 C 
ATOM      6  C   UNK A   1      -6.166   1.348 130.036  0.00  0.00    +0.000 C 
ATOM      7  O   UNK A   1      -5.023   1.428 129.649  0.00  0.00    +0.000 OA
ATOM      8  N   ILE A   2      -6.936   2.294 130.790  0.00  0.00    +0.000 N 
ATOM      9  H   UNK A   1      -8.003  -1.175 131.074  0.00  0.00    +0.000 HD
ENDROOT
BRANCH   5  10
ATOM     10  C   UNK A   1      -5.998  -1.098 129.416  0.00  0.00    +0.000 C 
ATOM     11  C   UNK A   1      -5.931  -1.312 127.886  0.00  0.00    +0.000 C 
ATOM     12  C   UNK A   1      -7.026  -2.324 127.656  0.00  0.00    +0.000 A 
ATOM     13  C   UNK A   1      -7.792  -2.486 126.511  0.00  0.00    +0.000 A 
ATOM     14  C   UNK A   1      -8.900  -3.337 126.566  0.00  0.00    +0.000 A 
ATOM     15  C   UNK A   1      -9.251  -3.987 127.760  0.00  0.00    +0.000 A 
ATOM     16  C   UNK A   1      -8.510  -3.780 128.926  0.00  0.00    +0.000 A 
ATOM     17  C   UNK A   1      -7.395  -2.953 128.860  0.00  0.00    +0.000 A 
ATOM     18  C   UNK A   1      -6.567  -2.430 130.006  0.00  0.00    +0.000 C 
ENDBRANCH   5  10
BRANCH   1  19
ATOM     19  CB  ILE A   2      -9.344   2.956 131.612  0.00  0.00    +0.000 C 
ATOM     20  CG2 ILE A   2      -9.634   4.344 130.639  0.00  0.00    +0.000 C 
BRANCH  19  22
ATOM     21  CD1 ILE A   2      -8.879   4.132 134.096  0.00  0.00    +0.000 C 
ATOM     22  CG1 ILE A   2      -9.225   2.863 133.239  0.00  0.00    +0.000 C 
ENDBRANCH  19  22
ENDBRANCH   1  19
BRANCH   8  23
ATOM     23  C   UNK A   0      -6.233   3.432 131.555  0.00  0.00    +0.000 C 
BRANCH  23  24
ATOM     24  C   UNK A   0      -5.374   3.164 133.037  0.00  0.00    +0.000 C 
ATOM     25  O   UNK A   0      -5.352   4.051 133.903  0.00  0.00    +0.000 OA
ATOM     26  N   UNK A   0      -4.926   1.880 133.469  0.00  0.00    +0.000 N 
ATOM     27  C   UNK A   0      -3.865   1.059 132.873  0.00  0.00    +0.000 C 
ATOM     28  C   UNK A   0      -4.361  -0.494 133.000  0.00  0.00    +0.000 C 
ATOM     29  O   UNK A   0      -4.752  -0.939 134.265  0.00  0.00    +0.000 OA
ATOM     30  C   UNK A   0      -5.540  -0.006 134.965  0.00  0.00    +0.000 C 
ATOM     31  C   UNK A   0      -5.010   1.438 134.857  0.00  0.00    +0.000 C 
ENDBRANCH  23  24
BRANCH  23  32
ATOM     32  C   UNK A   0      -5.353   4.314 130.579  0.00  0.00    +0.000 A 
ATOM     33  C   UNK A   0      -5.753   5.120 129.534  0.00  0.00    +0.000 A 
ATOM     34  O   UNK A   0      -4.711   5.870 129.102  0.00  0.00    +0.000 OA
ATOM     35  C   UNK A   0      -3.662   5.472 129.875  0.00  0.00    +0.000 A 
ATOM     36  C   UNK A   0      -2.410   6.236 129.642  0.00  0.00    +0.000 C 
ATOM     37  N   UNK A   0      -3.950   4.463 130.690  0.00  0.00    +0.000 NA
ENDBRANCH  23  32
ENDBRANCH   8  23
TORSDOF 6
ENDMDL
MODEL 9
REMARK VINA RESULT:      -8.1      3.765      7.125
REMARK  Name = CHEMBL401858
REMARK  9 active torsions:
REMARK  status: ('A' for Active; 'I' for Inactive)
REMARK    1  A    between atoms: CD1_1  and  CG1_2
REMARK    2  A    between atoms: CG1_2  and  CB_3
REMARK    3  A    between atoms: CB_3  and  CG2_4
REMARK    4  A    between atoms: CB_3  and  CA_5
REMARK    5  A    between atoms: C_9  and  C_10
REMARK    6  A    between atoms: N_21  and  C_22
REMARK    7  A    between atoms: C_22  and  C_23
REMARK    8  A    between atoms: C_22  and  C_31
REMARK    9  A    between atoms: C_34  and  C_35
REMARK                            x       y       z     vdW  Elec       q    Type
REMARK                         _______ _______ _______ _____ _____    ______ ____
ROOT
ATOM      1  CA  ILE A   2      -5.778   3.223 128.203  0.00  0.00    +0.000 C 
ATOM      2  C   ILE A   2      -5.229   2.729 129.591  0.00  0.00    +0.000 C 
ATOM      3  O   ILE A   2      -4.305   2.981 130.306  0.00  0.00    +0.000 OA
ATOM      4  N   UNK A   1      -6.102   1.999 130.258  0.00  0.00    +0.000 N 
ATOM      5  C   UNK A   1      -7.484   2.145 130.015  0.00  0.00    +0.000 C 
ATOM      6  C   UNK A   1      -7.688   1.647 128.585  0.00  0.00    +0.000 C 
ATOM      7  O   UNK A   1      -8.665   0.967 128.372  0.00  0.00    +0.000 OA
ATOM      8  N   ILE A   2      -6.665   2.074 127.676  0.00  0.00    +0.000 N 
ATOM      9  H   UNK A   1      -5.687   1.935 131.179  0.00  0.00    +0.000 HD
ENDROOT
BRANCH   5  10
ATOM     10  C   UNK A   1      -8.198   1.266 131.033  0.00  0.00    +0.000 C 
ATOM     11  C   UNK A   1      -9.391   2.067 131.602  0.00  0.00    +0.000 C 
ATOM     12  C   UNK A   1      -8.785   2.725 132.817  0.00  0.00    +0.000 A 
ATOM     13  C   UNK A   1      -9.155   3.933 133.390  0.00  0.00    +0.000 A 
ATOM     14  C   UNK A   1      -8.335   4.479 134.383  0.00  0.00    +0.000 A 
ATOM     15  C   UNK A   1      -7.148   3.836 134.769  0.00  0.00    +0.000 A 
ATOM     16  C   UNK A   1      -6.750   2.647 134.153  0.00  0.00    +0.000 A 
ATOM     17  C   UNK A   1      -7.580   2.097 133.184  0.00  0.00    +0.000 A 
ATOM     18  C   UNK A   1      -7.279   0.948 132.257  0.00  0.00    +0.000 C 
ENDBRANCH   5  10
BRANCH   1  19
ATOM     19  CB  ILE A   2      -4.633   3.703 127.318  0.00  0.00    +0.000 C 
ATOM     20  CG2 ILE A   2      -5.298   4.872 126.245  0.00  0.00    +0.000 C 
BRANCH  19  22
ATOM     21  CD1 ILE A   2      -1.928   3.171 126.914  0.00  0.00    +0.000 C 
ATOM     22  CG1 ILE A   2      -3.405   2.660 127.049  0.00  0.00    +0.000 C 
ENDBRANCH  19  22
ENDBRANCH   1  19
BRANCH   8  23
ATOM     23  C   UNK A   0      -6.487   1.365 126.319  0.00  0.00    +0.000 C 
BRANCH  23  24
ATOM     24  C   UNK A   0      -5.926  -0.271 126.191  0.00  0.00    +0.000 C 
ATOM     25  O   UNK A   0      -4.972  -0.537 125.445  0.00  0.00    +0.000 OA
ATOM     26  N   UNK A   0      -6.289  -1.304 127.107  0.00  0.00    +0.000 N 
ATOM     27  C   UNK A   0      -7.609  -1.922 127.275  0.00  0.00    +0.000 C 
ATOM     28  C   UNK A   0      -7.778  -2.214 128.875  0.00  0.00    +0.000 C 
ATOM     29  O   UNK A   0      -6.756  -2.926 129.507  0.00  0.00    +0.000 OA
ATOM     30  C   UNK A   0      -5.468  -2.520 129.111  0.00  0.00    +0.000 C 
ATOM     31  C   UNK A   0      -5.341  -2.303 127.590  0.00  0.00    +0.000 C 
ENDBRANCH  23  24
BRANCH  23  32
ATOM     32  C   UNK A   0      -7.762   1.565 125.402  0.00  0.00    +0.000 A 
ATOM     33  C   UNK A   0      -8.413   2.731 125.058  0.00  0.00    +0.000 A 
ATOM     34  O   UNK A   0      -9.317   2.486 124.080  0.00  0.00    +0.000 OA
ATOM     35  C   UNK A   0      -9.233   1.143 123.868  0.00  0.00    +0.000 A 
ATOM     36  C   UNK A   0     -10.080   0.648 122.754  0.00  0.00    +0.000 C 
ATOM     37  N   UNK A   0      -8.414   0.519 124.708  0.00  0.00    +0.000 NA
ENDBRANCH  23  32
ENDBRANCH   8  23
TORSDOF 6
ENDMDL
