MODEL 1
REMARK VINA RESULT:     -10.1      0.000      0.000
REMARK  Name = CHEMBL24682
REMARK  8 active torsions:
REMARK  status: ('A' for Active; 'I' for Inactive)
REMARK    1  A    between atoms: C_1  and  C_2
REMARK    2  A    between atoms: C_7  and  O_8
REMARK    3  A    between atoms: O_8  and  C_9
REMARK    4  A    between atoms: C_12  and  C_13
REMARK    5  A    between atoms: C_13  and  C_14
REMARK    6  A    between atoms: C_19  and  N_20
REMARK    7  A    between atoms: C_33  and  O_34
REMARK    8  A    between atoms: O_34  and  C_35
REMARK                            x       y       z     vdW  Elec       q    Type
REMARK                         _______ _______ _______ _____ _____    ______ ____
ROOT
ATOM      1  C   UNL     1      -7.263  -2.609 127.102  0.00  0.00    +0.000 A 
ATOM      2  C   UNL     1      -8.033  -2.923 128.208  0.00  0.00    +0.000 A 
ATOM      3  C   UNL     1      -7.794  -2.268 129.446  0.00  0.00    +0.000 A 
ATOM      4  C   UNL     1      -6.688  -1.395 129.634  0.00  0.00    +0.000 A 
ATOM      5  C   UNL     1      -5.985  -1.066 128.479  0.00  0.00    +0.000 A 
ATOM      6  C   UNL     1      -6.293  -1.651 127.271  0.00  0.00    +0.000 A 
ENDROOT
BRANCH   1   7
ATOM      7  O   UNL     1      -7.600  -3.026 125.845  0.00  0.00    +0.000 OA
BRANCH   7  14
ATOM      8  C   UNL     1      -9.416   1.907 123.029  0.00  0.00    +0.000 C 
ATOM      9  C   UNL     1      -9.715   0.425 122.904  0.00  0.00    +0.000 C 
ATOM     10  O   UNL     1     -10.524   0.023 122.068  0.00  0.00    +0.000 OA
ATOM     11  N   UNL     1      -8.935  -0.432 123.672  0.00  0.00    +0.000 N 
ATOM     12  C   UNL     1      -8.556  -1.740 123.165  0.00  0.00    +0.000 C 
ATOM     13  C   UNL     1      -9.284  -2.856 123.918  0.00  0.00    +0.000 C 
ATOM     14  C   UNL     1      -8.970  -2.804 125.425  0.00  0.00    +0.000 C 
ATOM     15  C   UNL     1      -9.371  -1.397 125.916  0.00  0.00    +0.000 C 
ATOM     16  C   UNL     1      -8.690  -0.274 125.102  0.00  0.00    +0.000 C 
ENDBRANCH   7  14
ENDBRANCH   1   7
BRANCH   4  17
ATOM     17  C   UNL     1      -6.315  -0.869 131.049  0.00  0.00    +0.000 C 
BRANCH  17  18
ATOM     18  C   UNL     1      -6.310   0.702 131.349  0.00  0.00    +0.000 C 
ATOM     19  O   UNL     1      -5.365   1.340 131.808  0.00  0.00    +0.000 OA
ATOM     20  N   UNL     1      -7.427   1.500 131.078  0.00  0.00    +0.000 N 
ATOM     21  C   UNL     1      -7.240   2.806 130.441  0.00  0.00    +0.000 C 
ATOM     22  C   UNL     1      -7.801   4.056 131.187  0.00  0.00    +0.000 C 
ATOM     23  C   UNL     1      -9.643   4.109 131.400  0.00  0.00    +0.000 C 
ATOM     24  C   UNL     1      -9.371   2.550 132.379  0.00  0.00    +0.000 C 
ATOM     25  C   UNL     1      -8.742   1.289 131.644  0.00  0.00    +0.000 C 
BRANCH  23  26
ATOM     26  N   UNL     1     -10.980   4.919 130.376  0.00  0.00    +0.000 N 
ATOM     27  C   UNL     1     -10.746   5.925 131.396  0.00  0.00    +0.000 C 
ATOM     28  O   UNL     1     -10.804   5.835 132.631  0.00  0.00    +0.000 OA
ATOM     29  O   UNL     1     -10.202   6.995 130.848  0.00  0.00    +0.000 OA
ATOM     30  C   UNL     1     -11.388   7.588 130.506  0.00  0.00    +0.000 C 
ATOM     31  C   UNL     1     -11.548   7.111 129.111  0.00  0.00    +0.000 A 
ATOM     32  C   UNL     1     -11.301   6.642 127.774  0.00  0.00    +0.000 A 
ATOM     33  C   UNL     1     -12.125   7.136 126.707  0.00  0.00    +0.000 A 
ATOM     34  C   UNL     1     -13.277   7.613 127.190  0.00  0.00    +0.000 A 
ATOM     35  C   UNL     1     -13.410   6.996 128.627  0.00  0.00    +0.000 A 
ATOM     36  C   UNL     1     -12.269   6.173 129.566  0.00  0.00    +0.000 A 
ENDBRANCH  23  26
ENDBRANCH  17  18
ENDBRANCH   4  17
BRANCH   5  37
ATOM     37  O   UNL     1      -5.116  -0.041 128.491  0.00  0.00    +0.000 OA
BRANCH  37  38
ATOM     38  C   UNL     1      -5.277   1.154 127.760  0.00  0.00    +0.000 C 
ATOM     39  F   UNL     1      -6.575   1.481 127.565  0.00  0.00    +0.000 F 
ATOM     40  F   UNL     1      -4.667   2.156 128.431  0.00  0.00    +0.000 F 
ATOM     41  F   UNL     1      -4.680   1.036 126.556  0.00  0.00    +0.000 F 
ENDBRANCH  37  38
ENDBRANCH   5  37
TORSDOF 7
ENDMDL
MODEL 2
REMARK VINA RESULT:     -10.1      2.873      8.655
REMARK  Name = CHEMBL24682
REMARK  8 active torsions:
REMARK  status: ('A' for Active; 'I' for Inactive)
REMARK    1  A    between atoms: C_1  and  C_2
REMARK    2  A    between atoms: C_7  and  O_8
REMARK    3  A    between atoms: O_8  and  C_9
REMARK    4  A    between atoms: C_12  and  C_13
REMARK    5  A    between atoms: C_13  and  C_14
REMARK    6  A    between atoms: C_19  and  N_20
REMARK    7  A    between atoms: C_33  and  O_34
REMARK    8  A    between atoms: O_34  and  C_35
REMARK                            x       y       z     vdW  Elec       q    Type
REMARK                         _______ _______ _______ _____ _____    ______ ____
ROOT
ATOM      1  C   UNL     1      -8.254   6.047 132.166  0.00  0.00    +0.000 A 
ATOM      2  C   UNL     1      -8.012   5.002 133.040  0.00  0.00    +0.000 A 
ATOM      3  C   UNL     1      -6.675   4.668 133.391  0.00  0.00    +0.000 A 
ATOM      4  C   UNL     1      -5.557   5.281 132.762  0.00  0.00    +0.000 A 
ATOM      5  C   UNL     1      -5.855   6.364 131.940  0.00  0.00    +0.000 A 
ATOM      6  C   UNL     1      -7.159   6.722 131.684  0.00  0.00    +0.000 A 
ENDROOT
BRANCH   1   7
ATOM      7  O   UNL     1      -9.508   6.559 131.983  0.00  0.00    +0.000 OA
BRANCH   7  14
ATOM      8  C   UNL     1     -13.490   8.719 128.104  0.00  0.00    +0.000 C 
ATOM      9  C   UNL     1     -12.601   7.491 128.162  0.00  0.00    +0.000 C 
ATOM     10  O   UNL     1     -12.633   6.657 127.256  0.00  0.00    +0.000 OA
ATOM     11  N   UNL     1     -11.675   7.443 129.198  0.00  0.00    +0.000 N 
ATOM     12  C   UNL     1     -10.368   6.842 128.994  0.00  0.00    +0.000 C 
ATOM     13  C   UNL     1     -10.244   5.520 129.756  0.00  0.00    +0.000 C 
ATOM     14  C   UNL     1     -10.458   5.730 131.267  0.00  0.00    +0.000 C 
ATOM     15  C   UNL     1     -11.845   6.383 131.435  0.00  0.00    +0.000 C 
ATOM     16  C   UNL     1     -11.990   7.678 130.604  0.00  0.00    +0.000 C 
ENDBRANCH   7  14
ENDBRANCH   1   7
BRANCH   4  17
ATOM     17  C   UNL     1      -4.116   4.745 132.995  0.00  0.00    +0.000 C 
BRANCH  17  18
ATOM     18  C   UNL     1      -3.690   3.310 132.433  0.00  0.00    +0.000 C 
ATOM     19  O   UNL     1      -2.737   2.641 132.827  0.00  0.00    +0.000 OA
ATOM     20  N   UNL     1      -4.419   2.677 131.420  0.00  0.00    +0.000 N 
ATOM     21  C   UNL     1      -4.716   1.246 131.534  0.00  0.00    +0.000 C 
ATOM     22  C   UNL     1      -4.246   0.320 130.371  0.00  0.00    +0.000 C 
ATOM     23  C   UNL     1      -5.028   0.638 128.720  0.00  0.00    +0.000 C 
ATOM     24  C   UNL     1      -4.228   2.310 128.890  0.00  0.00    +0.000 C 
ATOM     25  C   UNL     1      -4.655   3.238 130.108  0.00  0.00    +0.000 C 
BRANCH  23  26
ATOM     26  N   UNL     1      -6.507  -0.143 127.885  0.00  0.00    +0.000 N 
ATOM     27  C   UNL     1      -5.504  -0.226 126.839  0.00  0.00    +0.000 C 
ATOM     28  O   UNL     1      -4.827   0.668 126.311  0.00  0.00    +0.000 OA
ATOM     29  O   UNL     1      -5.191  -1.490 126.625  0.00  0.00    +0.000 OA
ATOM     30  C   UNL     1      -6.188  -1.724 125.716  0.00  0.00    +0.000 C 
ATOM     31  C   UNL     1      -7.248  -2.269 126.598  0.00  0.00    +0.000 A 
ATOM     32  C   UNL     1      -7.958  -2.915 127.670  0.00  0.00    +0.000 A 
ATOM     33  C   UNL     1      -9.131  -3.680 127.356  0.00  0.00    +0.000 A 
ATOM     34  C   UNL     1      -9.632  -3.304 126.176  0.00  0.00    +0.000 A 
ATOM     35  C   UNL     1      -9.001  -1.895 125.889  0.00  0.00    +0.000 A 
ATOM     36  C   UNL     1      -7.728  -1.097 126.665  0.00  0.00    +0.000 A 
ENDBRANCH  23  26
ENDBRANCH  17  18
ENDBRANCH   4  17
BRANCH   5  37
ATOM     37  O   UNL     1      -4.873   7.185 131.531  0.00  0.00    +0.000 OA
BRANCH  37  38
ATOM     38  C   UNL     1      -4.297   7.165 130.245  0.00  0.00    +0.000 C 
ATOM     39  F   UNL     1      -4.850   6.235 129.434  0.00  0.00    +0.000 F 
ATOM     40  F   UNL     1      -4.450   8.385 129.683  0.00  0.00    +0.000 F 
ATOM     41  F   UNL     1      -2.974   6.916 130.341  0.00  0.00    +0.000 F 
ENDBRANCH  37  38
ENDBRANCH   5  37
TORSDOF 7
ENDMDL
MODEL 3
REMARK VINA RESULT:     -10.0      4.807      7.638
REMARK  Name = CHEMBL24682
REMARK  8 active torsions:
REMARK  status: ('A' for Active; 'I' for Inactive)
REMARK    1  A    between atoms: C_1  and  C_2
REMARK    2  A    between atoms: C_7  and  O_8
REMARK    3  A    between atoms: O_8  and  C_9
REMARK    4  A    between atoms: C_12  and  C_13
REMARK    5  A    between atoms: C_13  and  C_14
REMARK    6  A    between atoms: C_19  and  N_20
REMARK    7  A    between atoms: C_33  and  O_34
REMARK    8  A    between atoms: O_34  and  C_35
REMARK                            x       y       z     vdW  Elec       q    Type
REMARK                         _______ _______ _______ _____ _____    ______ ____
ROOT
ATOM      1  C   UNL     1      -6.590  -1.938 127.975  0.00  0.00    +0.000 A 
ATOM      2  C   UNL     1      -7.563  -0.961 127.861  0.00  0.00    +0.000 A 
ATOM      3  C   UNL     1      -7.711  -0.247 126.640  0.00  0.00    +0.000 A 
ATOM      4  C   UNL     1      -6.794  -0.401 125.564  0.00  0.00    +0.000 A 
ATOM      5  C   UNL     1      -5.876  -1.436 125.706  0.00  0.00    +0.000 A 
ATOM      6  C   UNL     1      -5.811  -2.171 126.868  0.00  0.00    +0.000 A 
ENDROOT
BRANCH   1   7
ATOM      7  O   UNL     1      -6.561  -2.808 129.028  0.00  0.00    +0.000 OA
BRANCH   7  14
ATOM      8  C   UNL     1      -6.404  -5.216 134.482  0.00  0.00    +0.000 C 
ATOM      9  C   UNL     1      -5.432  -5.116 133.321  0.00  0.00    +0.000 C 
ATOM     10  O   UNL     1      -4.301  -5.595 133.414  0.00  0.00    +0.000 OA
ATOM     11  N   UNL     1      -5.934  -4.595 132.134  0.00  0.00    +0.000 N 
ATOM     12  C   UNL     1      -5.471  -5.097 130.851  0.00  0.00    +0.000 C 
ATOM     13  C   UNL     1      -4.610  -4.057 130.130  0.00  0.00    +0.000 C 
ATOM     14  C   UNL     1      -5.398  -2.755 129.892  0.00  0.00    +0.000 C 
ATOM     15  C   UNL     1      -5.883  -2.268 131.273  0.00  0.00    +0.000 C 
ATOM     16  C   UNL     1      -6.688  -3.350 132.029  0.00  0.00    +0.000 C 
ENDBRANCH   7  14
ENDBRANCH   1   7
BRANCH   4  17
ATOM     17  C   UNL     1      -6.841   0.549 124.333  0.00  0.00    +0.000 C 
BRANCH  17  18
ATOM     18  C   UNL     1      -6.507   2.103 124.501  0.00  0.00    +0.000 C 
ATOM     19  O   UNL     1      -6.768   2.983 123.685  0.00  0.00    +0.000 OA
ATOM     20  N   UNL     1      -5.883   2.594 125.653  0.00  0.00    +0.000 N 
ATOM     21  C   UNL     1      -6.374   3.832 126.265  0.00  0.00    +0.000 C 
ATOM     22  C   UNL     1      -5.354   4.997 126.449  0.00  0.00    +0.000 C 
ATOM     23  C   UNL     1      -3.940   4.657 127.601  0.00  0.00    +0.000 C 
ATOM     24  C   UNL     1      -3.531   3.316 126.376  0.00  0.00    +0.000 C 
ATOM     25  C   UNL     1      -4.591   2.156 126.135  0.00  0.00    +0.000 C 
BRANCH  23  26
ATOM     26  N   UNL     1      -3.713   5.028 129.418  0.00  0.00    +0.000 N 
ATOM     27  C   UNL     1      -3.394   6.311 128.817  0.00  0.00    +0.000 C 
ATOM     28  O   UNL     1      -2.546   6.599 127.960  0.00  0.00    +0.000 OA
ATOM     29  O   UNL     1      -4.320   7.194 129.139  0.00  0.00    +0.000 OA
ATOM     30  C   UNL     1      -3.737   7.577 130.317  0.00  0.00    +0.000 C 
ATOM     31  C   UNL     1      -4.433   6.688 131.277  0.00  0.00    +0.000 A 
ATOM     32  C   UNL     1      -5.401   5.848 131.932  0.00  0.00    +0.000 A 
ATOM     33  C   UNL     1      -5.539   5.939 133.358  0.00  0.00    +0.000 A 
ATOM     34  C   UNL     1      -4.437   6.466 133.900  0.00  0.00    +0.000 A 
ATOM     35  C   UNL     1      -3.322   6.311 132.806  0.00  0.00    +0.000 A 
ATOM     36  C   UNL     1      -3.454   5.889 131.174  0.00  0.00    +0.000 A 
ENDBRANCH  23  26
ENDBRANCH  17  18
ENDBRANCH   4  17
BRANCH   5  37
ATOM     37  O   UNL     1      -5.164  -1.851 124.645  0.00  0.00    +0.000 OA
BRANCH  37  38
ATOM     38  C   UNL     1      -5.487  -2.969 123.850  0.00  0.00    +0.000 C 
ATOM     39  F   UNL     1      -6.759  -3.393 124.029  0.00  0.00    +0.000 F 
ATOM     40  F   UNL     1      -5.313  -2.641 122.550  0.00  0.00    +0.000 F 
ATOM     41  F   UNL     1      -4.653  -3.990 124.137  0.00  0.00    +0.000 F 
ENDBRANCH  37  38
ENDBRANCH   5  37
TORSDOF 7
ENDMDL
MODEL 4
REMARK VINA RESULT:     -10.0      2.583      8.843
REMARK  Name = CHEMBL24682
REMARK  8 active torsions:
REMARK  status: ('A' for Active; 'I' for Inactive)
REMARK    1  A    between atoms: C_1  and  C_2
REMARK    2  A    between atoms: C_7  and  O_8
REMARK    3  A    between atoms: O_8  and  C_9
REMARK    4  A    between atoms: C_12  and  C_13
REMARK    5  A    between atoms: C_13  and  C_14
REMARK    6  A    between atoms: C_19  and  N_20
REMARK    7  A    between atoms: C_33  and  O_34
REMARK    8  A    between atoms: O_34  and  C_35
REMARK                            x       y       z     vdW  Elec       q    Type
REMARK                         _______ _______ _______ _____ _____    ______ ____
ROOT
ATOM      1  C   UNL     1      -8.836   6.170 131.897  0.00  0.00    +0.000 A 
ATOM      2  C   UNL     1      -7.820   6.813 131.211  0.00  0.00    +0.000 A 
ATOM      3  C   UNL     1      -6.624   6.113 130.898  0.00  0.00    +0.000 A 
ATOM      4  C   UNL     1      -6.367   4.805 131.393  0.00  0.00    +0.000 A 
ATOM      5  C   UNL     1      -7.441   4.184 132.021  0.00  0.00    +0.000 A 
ATOM      6  C   UNL     1      -8.623   4.856 132.236  0.00  0.00    +0.000 A 
ENDROOT
BRANCH   1   7
ATOM      7  O   UNL     1     -10.085   6.712 132.012  0.00  0.00    +0.000 OA
BRANCH   7  14
ATOM      8  C   UNL     1     -13.775   9.761 128.454  0.00  0.00    +0.000 C 
ATOM      9  C   UNL     1     -13.057   8.426 128.371  0.00  0.00    +0.000 C 
ATOM     10  O   UNL     1     -13.208   7.700 127.388  0.00  0.00    +0.000 OA
ATOM     11  N   UNL     1     -12.137   8.152 129.377  0.00  0.00    +0.000 N 
ATOM     12  C   UNL     1     -10.924   7.407 129.086  0.00  0.00    +0.000 C 
ATOM     13  C   UNL     1     -10.972   6.010 129.710  0.00  0.00    +0.000 C 
ATOM     14  C   UNL     1     -11.143   6.092 131.239  0.00  0.00    +0.000 C 
ATOM     15  C   UNL     1     -12.429   6.903 131.500  0.00  0.00    +0.000 C 
ATOM     16  C   UNL     1     -12.407   8.283 130.805  0.00  0.00    +0.000 C 
ENDBRANCH   7  14
ENDBRANCH   1   7
BRANCH   4  17
ATOM     17  C   UNL     1      -4.965   4.150 131.229  0.00  0.00    +0.000 C 
BRANCH  17  18
ATOM     18  C   UNL     1      -4.459   3.683 129.786  0.00  0.00    +0.000 C 
ATOM     19  O   UNL     1      -3.338   3.884 129.322  0.00  0.00    +0.000 OA
ATOM     20  N   UNL     1      -5.287   2.962 128.920  0.00  0.00    +0.000 N 
ATOM     21  C   UNL     1      -4.741   1.813 128.192  0.00  0.00    +0.000 C 
ATOM     22  C   UNL     1      -4.846   1.832 126.636  0.00  0.00    +0.000 C 
ATOM     23  C   UNL     1      -6.566   1.811 125.943  0.00  0.00    +0.000 C 
ATOM     24  C   UNL     1      -6.735   3.425 126.854  0.00  0.00    +0.000 C 
ATOM     25  C   UNL     1      -6.569   3.428 128.435  0.00  0.00    +0.000 C 
BRANCH  23  26
ATOM     26  N   UNL     1      -7.643   0.400 125.356  0.00  0.00    +0.000 N 
ATOM     27  C   UNL     1      -7.080   0.876 124.105  0.00  0.00    +0.000 C 
ATOM     28  O   UNL     1      -7.113   2.006 123.596  0.00  0.00    +0.000 OA
ATOM     29  O   UNL     1      -6.266  -0.036 123.610  0.00  0.00    +0.000 OA
ATOM     30  C   UNL     1      -7.235  -0.728 122.934  0.00  0.00    +0.000 C 
ATOM     31  C   UNL     1      -7.585  -1.767 123.932  0.00  0.00    +0.000 A 
ATOM     32  C   UNL     1      -7.543  -2.716 125.013  0.00  0.00    +0.000 A 
ATOM     33  C   UNL     1      -8.225  -3.969 124.856  0.00  0.00    +0.000 A 
ATOM     34  C   UNL     1      -9.163  -3.874 123.909  0.00  0.00    +0.000 A 
ATOM     35  C   UNL     1      -9.415  -2.335 123.729  0.00  0.00    +0.000 A 
ATOM     36  C   UNL     1      -8.533  -1.015 124.311  0.00  0.00    +0.000 A 
ENDBRANCH  23  26
ENDBRANCH  17  18
ENDBRANCH   4  17
BRANCH   5  37
ATOM     37  O   UNL     1      -7.402   2.863 132.266  0.00  0.00    +0.000 OA
BRANCH  37  38
ATOM     38  C   UNL     1      -8.047   1.884 131.483  0.00  0.00    +0.000 C 
ATOM     39  F   UNL     1      -8.841   2.414 130.525  0.00  0.00    +0.000 F 
ATOM     40  F   UNL     1      -7.106   1.111 130.896  0.00  0.00    +0.000 F 
ATOM     41  F   UNL     1      -8.801   1.092 132.273  0.00  0.00    +0.000 F 
ENDBRANCH  37  38
ENDBRANCH   5  37
TORSDOF 7
ENDMDL
MODEL 5
REMARK VINA RESULT:     -10.0      3.302      4.244
REMARK  Name = CHEMBL24682
REMARK  8 active torsions:
REMARK  status: ('A' for Active; 'I' for Inactive)
REMARK    1  A    between atoms: C_1  and  C_2
REMARK    2  A    between atoms: C_7  and  O_8
REMARK    3  A    between atoms: O_8  and  C_9
REMARK    4  A    between atoms: C_12  and  C_13
REMARK    5  A    between atoms: C_13  and  C_14
REMARK    6  A    between atoms: C_19  and  N_20
REMARK    7  A    between atoms: C_33  and  O_34
REMARK    8  A    between atoms: O_34  and  C_35
REMARK                            x       y       z     vdW  Elec       q    Type
REMARK                         _______ _______ _______ _____ _____    ______ ____
ROOT
ATOM      1  C   UNL     1      -7.596  -3.171 127.024  0.00  0.00    +0.000 A 
ATOM      2  C   UNL     1      -8.667  -3.462 127.852  0.00  0.00    +0.000 A 
ATOM      3  C   UNL     1      -8.528  -3.332 129.260  0.00  0.00    +0.000 A 
ATOM      4  C   UNL     1      -7.274  -3.050 129.870  0.00  0.00    +0.000 A 
ATOM      5  C   UNL     1      -6.250  -2.706 128.993  0.00  0.00    +0.000 A 
ATOM      6  C   UNL     1      -6.436  -2.756 127.631  0.00  0.00    +0.000 A 
ENDROOT
BRANCH   1   7
ATOM      7  O   UNL     1      -7.743  -3.048 125.671  0.00  0.00    +0.000 OA
BRANCH   7  14
ATOM      8  C   UNL     1      -9.239   2.150 123.160  0.00  0.00    +0.000 C 
ATOM      9  C   UNL     1      -9.563   0.692 122.891  0.00  0.00    +0.000 C 
ATOM     10  O   UNL     1     -10.320   0.383 121.971  0.00  0.00    +0.000 OA
ATOM     11  N   UNL     1      -8.859  -0.248 123.636  0.00  0.00    +0.000 N 
ATOM     12  C   UNL     1      -8.476  -1.520 123.049  0.00  0.00    +0.000 C 
ATOM     13  C   UNL     1      -9.282  -2.672 123.654  0.00  0.00    +0.000 C 
ATOM     14  C   UNL     1      -9.073  -2.752 125.179  0.00  0.00    +0.000 C 
ATOM     15  C   UNL     1      -9.475  -1.380 125.756  0.00  0.00    +0.000 C 
ATOM     16  C   UNL     1      -8.712  -0.214 125.088  0.00  0.00    +0.000 C 
ENDBRANCH   7  14
ENDBRANCH   1   7
BRANCH   4  17
ATOM     17  C   UNL     1      -7.098  -3.136 131.413  0.00  0.00    +0.000 C 
BRANCH  17  18
ATOM     18  C   UNL     1      -7.402  -1.861 132.330  0.00  0.00    +0.000 C 
ATOM     19  O   UNL     1      -7.898  -1.891 133.454  0.00  0.00    +0.000 OA
ATOM     20  N   UNL     1      -7.090  -0.566 131.905  0.00  0.00    +0.000 N 
ATOM     21  C   UNL     1      -6.465   0.369 132.845  0.00  0.00    +0.000 C 
ATOM     22  C   UNL     1      -7.192   1.725 133.101  0.00  0.00    +0.000 C 
ATOM     23  C   UNL     1      -7.334   2.854 131.637  0.00  0.00    +0.000 C 
ATOM     24  C   UNL     1      -8.320   1.452 130.909  0.00  0.00    +0.000 C 
ATOM     25  C   UNL     1      -7.605   0.048 130.700  0.00  0.00    +0.000 C 
BRANCH  23  26
ATOM     26  N   UNL     1      -6.262   4.274 131.065  0.00  0.00    +0.000 N 
ATOM     27  C   UNL     1      -7.567   4.906 131.142  0.00  0.00    +0.000 C 
ATOM     28  O   UNL     1      -8.632   4.602 130.587  0.00  0.00    +0.000 OA
ATOM     29  O   UNL     1      -7.572   5.796 132.116  0.00  0.00    +0.000 OA
ATOM     30  C   UNL     1      -7.092   6.830 131.356  0.00  0.00    +0.000 C 
ATOM     31  C   UNL     1      -5.638   6.727 131.630  0.00  0.00    +0.000 A 
ATOM     32  C   UNL     1      -4.362   6.474 132.243  0.00  0.00    +0.000 A 
ATOM     33  C   UNL     1      -3.307   7.430 132.059  0.00  0.00    +0.000 A 
ATOM     34  C   UNL     1      -3.543   8.183 130.979  0.00  0.00    +0.000 A 
ATOM     35  C   UNL     1      -4.605   7.384 130.142  0.00  0.00    +0.000 A 
ATOM     36  C   UNL     1      -5.536   6.040 130.570  0.00  0.00    +0.000 A 
ENDBRANCH  23  26
ENDBRANCH  17  18
ENDBRANCH   4  17
BRANCH   5  37
ATOM     37  O   UNL     1      -5.122  -2.149 129.466  0.00  0.00    +0.000 OA
BRANCH  37  38
ATOM     38  C   UNL     1      -3.911  -2.841 129.672  0.00  0.00    +0.000 C 
ATOM     39  F   UNL     1      -2.871  -2.016 129.933  0.00  0.00    +0.000 F 
ATOM     40  F   UNL     1      -4.069  -3.691 130.710  0.00  0.00    +0.000 F 
ATOM     41  F   UNL     1      -3.612  -3.571 128.578  0.00  0.00    +0.000 F 
ENDBRANCH  37  38
ENDBRANCH   5  37
TORSDOF 7
ENDMDL
MODEL 6
REMARK VINA RESULT:      -9.7      7.042     11.992
REMARK  Name = CHEMBL24682
REMARK  8 active torsions:
REMARK  status: ('A' for Active; 'I' for Inactive)
REMARK    1  A    between atoms: C_1  and  C_2
REMARK    2  A    between atoms: C_7  and  O_8
REMARK    3  A    between atoms: O_8  and  C_9
REMARK    4  A    between atoms: C_12  and  C_13
REMARK    5  A    between atoms: C_13  and  C_14
REMARK    6  A    between atoms: C_19  and  N_20
REMARK    7  A    between atoms: C_33  and  O_34
REMARK    8  A    between atoms: O_34  and  C_35
REMARK                            x       y       z     vdW  Elec       q    Type
REMARK                         _______ _______ _______ _____ _____    ______ ____
ROOT
ATOM      1  C   UNL     1      -1.597   8.135 133.162  0.00  0.00    +0.000 A 
ATOM      2  C   UNL     1      -0.623   7.380 132.532  0.00  0.00    +0.000 A 
ATOM      3  C   UNL     1      -0.995   6.425 131.547  0.00  0.00    +0.000 A 
ATOM      4  C   UNL     1      -2.356   6.110 131.281  0.00  0.00    +0.000 A 
ATOM      5  C   UNL     1      -3.291   6.939 131.894  0.00  0.00    +0.000 A 
ATOM      6  C   UNL     1      -2.898   7.916 132.780  0.00  0.00    +0.000 A 
ENDROOT
BRANCH   1   7
ATOM      7  O   UNL     1      -1.284   9.220 133.931  0.00  0.00    +0.000 OA
BRANCH   7  14
ATOM      8  C   UNL     1      -1.563  14.984 135.438  0.00  0.00    +0.000 C 
ATOM      9  C   UNL     1      -0.449  14.016 135.087  0.00  0.00    +0.000 C 
ATOM     10  O   UNL     1       0.720  14.400 135.055  0.00  0.00    +0.000 OA
ATOM     11  N   UNL     1      -0.808  12.680 134.950  0.00  0.00    +0.000 N 
ATOM     12  C   UNL     1       0.102  11.624 135.364  0.00  0.00    +0.000 C 
ATOM     13  C   UNL     1       0.664  10.874 134.154  0.00  0.00    +0.000 C 
ATOM     14  C   UNL     1      -0.467  10.248 133.316  0.00  0.00    +0.000 C 
ATOM     15  C   UNL     1      -1.414  11.398 132.914  0.00  0.00    +0.000 C 
ATOM     16  C   UNL     1      -1.919  12.198 134.136  0.00  0.00    +0.000 C 
ENDBRANCH   7  14
ENDBRANCH   1   7
BRANCH   4  17
ATOM     17  C   UNL     1      -2.735   4.908 130.369  0.00  0.00    +0.000 C 
BRANCH  17  18
ATOM     18  C   UNL     1      -3.227   5.161 128.868  0.00  0.00    +0.000 C 
ATOM     19  O   UNL     1      -2.840   6.067 128.132  0.00  0.00    +0.000 OA
ATOM     20  N   UNL     1      -4.159   4.318 128.254  0.00  0.00    +0.000 N 
ATOM     21  C   UNL     1      -3.940   3.892 126.869  0.00  0.00    +0.000 C 
ATOM     22  C   UNL     1      -5.066   4.204 125.835  0.00  0.00    +0.000 C 
ATOM     23  C   UNL     1      -6.691   3.363 126.134  0.00  0.00    +0.000 C 
ATOM     24  C   UNL     1      -6.668   4.329 127.725  0.00  0.00    +0.000 C 
ATOM     25  C   UNL     1      -5.490   4.063 128.759  0.00  0.00    +0.000 C 
BRANCH  23  26
ATOM     26  N   UNL     1      -7.399   1.771 125.457  0.00  0.00    +0.000 N 
ATOM     27  C   UNL     1      -8.157   2.763 124.717  0.00  0.00    +0.000 C 
ATOM     28  O   UNL     1      -8.864   3.694 125.128  0.00  0.00    +0.000 OA
ATOM     29  O   UNL     1      -7.822   2.716 123.442  0.00  0.00    +0.000 OA
ATOM     30  C   UNL     1      -8.725   1.743 123.102  0.00  0.00    +0.000 C 
ATOM     31  C   UNL     1      -7.889   0.526 123.235  0.00  0.00    +0.000 A 
ATOM     32  C   UNL     1      -6.784  -0.395 123.273  0.00  0.00    +0.000 A 
ATOM     33  C   UNL     1      -6.972  -1.718 122.751  0.00  0.00    +0.000 A 
ATOM     34  C   UNL     1      -8.273  -2.027 122.720  0.00  0.00    +0.000 A 
ATOM     35  C   UNL     1      -8.963  -1.006 123.693  0.00  0.00    +0.000 A 
ATOM     36  C   UNL     1      -8.349   0.396 124.409  0.00  0.00    +0.000 A 
ENDBRANCH  23  26
ENDBRANCH  17  18
ENDBRANCH   4  17
BRANCH   5  37
ATOM     37  O   UNL     1      -4.572   6.916 131.492  0.00  0.00    +0.000 OA
BRANCH  37  38
ATOM     38  C   UNL     1      -5.619   6.275 132.186  0.00  0.00    +0.000 C 
ATOM     39  F   UNL     1      -5.490   6.363 133.530  0.00  0.00    +0.000 F 
ATOM     40  F   UNL     1      -6.791   6.840 131.820  0.00  0.00    +0.000 F 
ATOM     41  F   UNL     1      -5.662   4.971 131.846  0.00  0.00    +0.000 F 
ENDBRANCH  37  38
ENDBRANCH   5  37
TORSDOF 7
ENDMDL
MODEL 7
REMARK VINA RESULT:      -9.7      6.412     10.330
REMARK  Name = CHEMBL24682
REMARK  8 active torsions:
REMARK  status: ('A' for Active; 'I' for Inactive)
REMARK    1  A    between atoms: C_1  and  C_2
REMARK    2  A    between atoms: C_7  and  O_8
REMARK    3  A    between atoms: O_8  and  C_9
REMARK    4  A    between atoms: C_12  and  C_13
REMARK    5  A    between atoms: C_13  and  C_14
REMARK    6  A    between atoms: C_19  and  N_20
REMARK    7  A    between atoms: C_33  and  O_34
REMARK    8  A    between atoms: O_34  and  C_35
REMARK                            x       y       z     vdW  Elec       q    Type
REMARK                         _______ _______ _______ _____ _____    ______ ____
ROOT
ATOM      1  C   UNL     1      -2.467   8.081 132.682  0.00  0.00    +0.000 A 
ATOM      2  C   UNL     1      -3.110   7.570 133.796  0.00  0.00    +0.000 A 
ATOM      3  C   UNL     1      -3.531   6.212 133.809  0.00  0.00    +0.000 A 
ATOM      4  C   UNL     1      -3.445   5.387 132.655  0.00  0.00    +0.000 A 
ATOM      5  C   UNL     1      -2.737   5.928 131.586  0.00  0.00    +0.000 A 
ATOM      6  C   UNL     1      -2.263   7.219 131.632  0.00  0.00    +0.000 A 
ENDROOT
BRANCH   1   7
ATOM      7  O   UNL     1      -1.836   9.293 132.705  0.00  0.00    +0.000 OA
BRANCH   7  14
ATOM      8  C   UNL     1       2.085  13.606 133.964  0.00  0.00    +0.000 C 
ATOM      9  C   UNL     1       0.613  13.375 134.246  0.00  0.00    +0.000 C 
ATOM     10  O   UNL     1      -0.032  14.197 134.898  0.00  0.00    +0.000 OA
ATOM     11  N   UNL     1       0.025  12.282 133.619  0.00  0.00    +0.000 N 
ATOM     12  C   UNL     1      -1.354  12.343 133.166  0.00  0.00    +0.000 C 
ATOM     13  C   UNL     1      -2.257  11.453 134.023  0.00  0.00    +0.000 C 
ATOM     14  C   UNL     1      -1.790   9.985 133.978  0.00  0.00    +0.000 C 
ATOM     15  C   UNL     1      -0.322   9.970 134.449  0.00  0.00    +0.000 C 
ATOM     16  C   UNL     1       0.570  10.928 133.628  0.00  0.00    +0.000 C 
ENDBRANCH   7  14
ENDBRANCH   1   7
BRANCH   4  17
ATOM     17  C   UNL     1      -4.115   3.983 132.624  0.00  0.00    +0.000 C 
BRANCH  17  18
ATOM     18  C   UNL     1      -5.591   3.783 133.205  0.00  0.00    +0.000 C 
ATOM     19  O   UNL     1      -5.882   3.138 134.210  0.00  0.00    +0.000 OA
ATOM     20  N   UNL     1      -6.702   4.373 132.594  0.00  0.00    +0.000 N 
ATOM     21  C   UNL     1      -7.724   5.015 133.426  0.00  0.00    +0.000 C 
ATOM     22  C   UNL     1      -9.191   4.508 133.281  0.00  0.00    +0.000 C 
ATOM     23  C   UNL     1      -9.976   4.771 131.621  0.00  0.00    +0.000 C 
ATOM     24  C   UNL     1      -8.602   3.667 131.023  0.00  0.00    +0.000 C 
ATOM     25  C   UNL     1      -7.099   4.146 131.222  0.00  0.00    +0.000 C 
BRANCH  23  26
ATOM     26  N   UNL     1     -11.067   6.145 130.976  0.00  0.00    +0.000 N 
ATOM     27  C   UNL     1      -9.744   6.651 130.658  0.00  0.00    +0.000 C 
ATOM     28  O   UNL     1      -8.771   6.855 131.398  0.00  0.00    +0.000 OA
ATOM     29  O   UNL     1      -9.581   6.676 129.349  0.00  0.00    +0.000 OA
ATOM     30  C   UNL     1     -10.123   7.921 129.170  0.00  0.00    +0.000 C 
ATOM     31  C   UNL     1     -11.530   7.571 128.860  0.00  0.00    +0.000 A 
ATOM     32  C   UNL     1     -12.722   6.897 128.420  0.00  0.00    +0.000 A 
ATOM     33  C   UNL     1     -13.760   7.668 127.797  0.00  0.00    +0.000 A 
ATOM     34  C   UNL     1     -13.645   8.958 128.126  0.00  0.00    +0.000 A 
ATOM     35  C   UNL     1     -12.730   8.979 129.402  0.00  0.00    +0.000 A 
ATOM     36  C   UNL     1     -11.794   7.748 130.087  0.00  0.00    +0.000 A 
ENDBRANCH  23  26
ENDBRANCH  17  18
ENDBRANCH   4  17
BRANCH   5  37
ATOM     37  O   UNL     1      -2.351   5.139 130.569  0.00  0.00    +0.000 OA
BRANCH  37  38
ATOM     38  C   UNL     1      -2.769   5.294 129.232  0.00  0.00    +0.000 C 
ATOM     39  F   UNL     1      -2.046   6.217 128.558  0.00  0.00    +0.000 F 
ATOM     40  F   UNL     1      -2.657   4.103 128.603  0.00  0.00    +0.000 F 
ATOM     41  F   UNL     1      -4.067   5.661 129.199  0.00  0.00    +0.000 F 
ENDBRANCH  37  38
ENDBRANCH   5  37
TORSDOF 7
ENDMDL
MODEL 8
REMARK VINA RESULT:      -9.7      3.075      9.025
REMARK  Name = CHEMBL24682
REMARK  8 active torsions:
REMARK  status: ('A' for Active; 'I' for Inactive)
REMARK    1  A    between atoms: C_1  and  C_2
REMARK    2  A    between atoms: C_7  and  O_8
REMARK    3  A    between atoms: O_8  and  C_9
REMARK    4  A    between atoms: C_12  and  C_13
REMARK    5  A    between atoms: C_13  and  C_14
REMARK    6  A    between atoms: C_19  and  N_20
REMARK    7  A    between atoms: C_33  and  O_34
REMARK    8  A    between atoms: O_34  and  C_35
REMARK                            x       y       z     vdW  Elec       q    Type
REMARK                         _______ _______ _______ _____ _____    ______ ____
ROOT
ATOM      1  C   UNL     1      -9.693   3.736 131.500  0.00  0.00    +0.000 A 
ATOM      2  C   UNL     1      -9.972   2.381 131.537  0.00  0.00    +0.000 A 
ATOM      3  C   UNL     1      -9.119   1.503 132.259  0.00  0.00    +0.000 A 
ATOM      4  C   UNL     1      -7.897   1.946 132.834  0.00  0.00    +0.000 A 
ATOM      5  C   UNL     1      -7.697   3.323 132.823  0.00  0.00    +0.000 A 
ATOM      6  C   UNL     1      -8.585   4.163 132.190  0.00  0.00    +0.000 A 
ENDROOT
BRANCH   1   7
ATOM      7  O   UNL     1     -10.598   4.647 131.029  0.00  0.00    +0.000 OA
BRANCH   7  14
ATOM      8  C   UNL     1     -13.366   9.122 128.223  0.00  0.00    +0.000 C 
ATOM      9  C   UNL     1     -12.901   8.867 129.645  0.00  0.00    +0.000 C 
ATOM     10  O   UNL     1     -13.064   9.723 130.515  0.00  0.00    +0.000 OA
ATOM     11  N   UNL     1     -12.427   7.589 129.923  0.00  0.00    +0.000 N 
ATOM     12  C   UNL     1     -12.666   6.979 131.220  0.00  0.00    +0.000 C 
ATOM     13  C   UNL     1     -11.371   6.879 132.029  0.00  0.00    +0.000 C 
ATOM     14  C   UNL     1     -10.313   6.046 131.281  0.00  0.00    +0.000 C 
ATOM     15  C   UNL     1     -10.104   6.719 129.908  0.00  0.00    +0.000 C 
ATOM     16  C   UNL     1     -11.427   6.885 129.127  0.00  0.00    +0.000 C 
ENDBRANCH   7  14
ENDBRANCH   1   7
BRANCH   4  17
ATOM     17  C   UNL     1      -6.874   0.930 133.420  0.00  0.00    +0.000 C 
BRANCH  17  18
ATOM     18  C   UNL     1      -6.252  -0.213 132.491  0.00  0.00    +0.000 C 
ATOM     19  O   UNL     1      -5.514  -1.119 132.870  0.00  0.00    +0.000 OA
ATOM     20  N   UNL     1      -6.535  -0.274 131.122  0.00  0.00    +0.000 N 
ATOM     21  C   UNL     1      -6.838  -1.570 130.508  0.00  0.00    +0.000 C 
ATOM     22  C   UNL     1      -5.952  -2.021 129.307  0.00  0.00    +0.000 C 
ATOM     23  C   UNL     1      -6.051  -0.962 127.788  0.00  0.00    +0.000 C 
ATOM     24  C   UNL     1      -5.392   0.364 128.917  0.00  0.00    +0.000 C 
ATOM     25  C   UNL     1      -6.259   0.788 130.180  0.00  0.00    +0.000 C 
BRANCH  23  26
ATOM     26  N   UNL     1      -7.093  -1.113 126.244  0.00  0.00    +0.000 N 
ATOM     27  C   UNL     1      -5.750  -1.192 125.698  0.00  0.00    +0.000 C 
ATOM     28  O   UNL     1      -4.803  -0.399 125.796  0.00  0.00    +0.000 OA
ATOM     29  O   UNL     1      -5.537  -2.403 125.219  0.00  0.00    +0.000 OA
ATOM     30  C   UNL     1      -6.050  -2.147 123.975  0.00  0.00    +0.000 C 
ATOM     31  C   UNL     1      -7.450  -2.602 124.151  0.00  0.00    +0.000 A 
ATOM     32  C   UNL     1      -8.636  -3.287 124.592  0.00  0.00    +0.000 A 
ATOM     33  C   UNL     1      -9.636  -3.629 123.620  0.00  0.00    +0.000 A 
ATOM     34  C   UNL     1      -9.511  -2.862 122.532  0.00  0.00    +0.000 A 
ATOM     35  C   UNL     1      -8.645  -1.634 122.990  0.00  0.00    +0.000 A 
ATOM     36  C   UNL     1      -7.758  -1.400 124.410  0.00  0.00    +0.000 A 
ENDBRANCH  23  26
ENDBRANCH  17  18
ENDBRANCH   4  17
BRANCH   5  37
ATOM     37  O   UNL     1      -6.731   3.866 133.583  0.00  0.00    +0.000 OA
BRANCH  37  38
ATOM     38  C   UNL     1      -6.961   4.637 134.741  0.00  0.00    +0.000 C 
ATOM     39  F   UNL     1      -6.846   5.966 134.520  0.00  0.00    +0.000 F 
ATOM     40  F   UNL     1      -8.207   4.374 135.196  0.00  0.00    +0.000 F 
ATOM     41  F   UNL     1      -6.084   4.286 135.704  0.00  0.00    +0.000 F 
ENDBRANCH  37  38
ENDBRANCH   5  37
TORSDOF 7
ENDMDL
MODEL 9
REMARK VINA RESULT:      -9.7      5.974     11.251
REMARK  Name = CHEMBL24682
REMARK  8 active torsions:
REMARK  status: ('A' for Active; 'I' for Inactive)
REMARK    1  A    between atoms: C_1  and  C_2
REMARK    2  A    between atoms: C_7  and  O_8
REMARK    3  A    between atoms: O_8  and  C_9
REMARK    4  A    between atoms: C_12  and  C_13
REMARK    5  A    between atoms: C_13  and  C_14
REMARK    6  A    between atoms: C_19  and  N_20
REMARK    7  A    between atoms: C_33  and  O_34
REMARK    8  A    between atoms: O_34  and  C_35
REMARK                            x       y       z     vdW  Elec       q    Type
REMARK                         _______ _______ _______ _____ _____    ______ ____
ROOT
ATOM      1  C   UNL     1      -2.853   7.558 132.568  0.00  0.00    +0.000 A 
ATOM      2  C   UNL     1      -3.763   6.795 133.278  0.00  0.00    +0.000 A 
ATOM      3  C   UNL     1      -4.901   6.255 132.618  0.00  0.00    +0.000 A 
ATOM      4  C   UNL     1      -5.219   6.590 131.273  0.00  0.00    +0.000 A 
ATOM      5  C   UNL     1      -4.242   7.307 130.590  0.00  0.00    +0.000 A 
ATOM      6  C   UNL     1      -3.106   7.745 131.231  0.00  0.00    +0.000 A 
ENDROOT
BRANCH   1   7
ATOM      7  O   UNL     1      -1.635   7.897 133.088  0.00  0.00    +0.000 OA
BRANCH   7  14
ATOM      8  C   UNL     1       1.468  12.989 132.981  0.00  0.00    +0.000 C 
ATOM      9  C   UNL     1       0.092  12.577 133.471  0.00  0.00    +0.000 C 
ATOM     10  O   UNL     1      -0.648  13.400 134.010  0.00  0.00    +0.000 OA
ATOM     11  N   UNL     1      -0.320  11.288 133.152  0.00  0.00    +0.000 N 
ATOM     12  C   UNL     1      -1.715  11.010 132.857  0.00  0.00    +0.000 C 
ATOM     13  C   UNL     1      -2.363  10.190 133.975  0.00  0.00    +0.000 C 
ATOM     14  C   UNL     1      -1.628   8.852 134.178  0.00  0.00    +0.000 C 
ATOM     15  C   UNL     1      -0.153   9.193 134.471  0.00  0.00    +0.000 C 
ATOM     16  C   UNL     1       0.474  10.084 133.375  0.00  0.00    +0.000 C 
ENDBRANCH   7  14
ENDBRANCH   1   7
BRANCH   4  17
ATOM     17  C   UNL     1      -6.580   6.172 130.646  0.00  0.00    +0.000 C 
BRANCH  17  18
ATOM     18  C   UNL     1      -7.258   4.780 131.047  0.00  0.00    +0.000 C 
ATOM     19  O   UNL     1      -7.976   4.591 132.027  0.00  0.00    +0.000 OA
ATOM     20  N   UNL     1      -7.089   3.634 130.263  0.00  0.00    +0.000 N 
ATOM     21  C   UNL     1      -8.245   2.778 129.984  0.00  0.00    +0.000 C 
ATOM     22  C   UNL     1      -8.141   1.275 130.390  0.00  0.00    +0.000 C 
ATOM     23  C   UNL     1      -6.841   0.289 129.508  0.00  0.00    +0.000 C 
ATOM     24  C   UNL     1      -5.672   1.497 130.306  0.00  0.00    +0.000 C 
ATOM     25  C   UNL     1      -5.809   3.040 129.946  0.00  0.00    +0.000 C 
BRANCH  23  26
ATOM     26  N   UNL     1      -6.934  -0.794 127.988  0.00  0.00    +0.000 N 
ATOM     27  C   UNL     1      -7.020  -1.778 129.051  0.00  0.00    +0.000 C 
ATOM     28  O   UNL     1      -6.245  -2.003 129.992  0.00  0.00    +0.000 OA
ATOM     29  O   UNL     1      -8.220  -2.326 129.053  0.00  0.00    +0.000 OA
ATOM     30  C   UNL     1      -7.923  -3.305 128.143  0.00  0.00    +0.000 C 
ATOM     31  C   UNL     1      -8.360  -2.657 126.883  0.00  0.00    +0.000 A 
ATOM     32  C   UNL     1      -9.038  -1.842 125.910  0.00  0.00    +0.000 A 
ATOM     33  C   UNL     1      -9.336  -2.407 124.625  0.00  0.00    +0.000 A 
ATOM     34  C   UNL     1      -8.542  -3.454 124.380  0.00  0.00    +0.000 A 
ATOM     35  C   UNL     1      -7.342  -3.306 125.381  0.00  0.00    +0.000 A 
ATOM     36  C   UNL     1      -7.160  -2.283 126.715  0.00  0.00    +0.000 A 
ENDBRANCH  23  26
ENDBRANCH  17  18
ENDBRANCH   4  17
BRANCH   5  37
ATOM     37  O   UNL     1      -4.309   7.425 129.253  0.00  0.00    +0.000 OA
BRANCH  37  38
ATOM     38  C   UNL     1      -3.529   6.683 128.343  0.00  0.00    +0.000 C 
ATOM     39  F   UNL     1      -2.411   7.336 127.953  0.00  0.00    +0.000 F 
ATOM     40  F   UNL     1      -3.176   5.516 128.926  0.00  0.00    +0.000 F 
ATOM     41  F   UNL     1      -4.260   6.394 127.246  0.00  0.00    +0.000 F 
ENDBRANCH  37  38
ENDBRANCH   5  37
TORSDOF 7
ENDMDL
