MODEL 1
REMARK VINA RESULT:      -8.0      0.000      0.000
REMARK  Name = CHEMBL1092498
REMARK  7 active torsions:
REMARK  status: ('A' for Active; 'I' for Inactive)
REMARK    1  A    between atoms: C_1  and  O_2
REMARK    2  A    between atoms: O_2  and  C_3
REMARK    3  A    between atoms: C_6  and  N_7
REMARK    4  A    between atoms: N_7  and  C_8
REMARK    5  A    between atoms: C_13  and  O_14
REMARK    6  A    between atoms: O_14  and  C_15
REMARK    7  A    between atoms: C_22  and  C_23
REMARK                            x       y       z     vdW  Elec       q    Type
REMARK                         _______ _______ _______ _____ _____    ______ ____
ROOT
ATOM      1  N   UNL     1      -7.879   0.425 127.106  0.00  0.00    +0.000 N 
ATOM      2  C   UNL     1      -8.067   1.638 127.906  0.00  0.00    +0.000 C 
ATOM      3  C   UNL     1      -8.215   0.443 125.699  0.00  0.00    +0.000 C 
ATOM      4  O   UNL     1      -8.110  -0.496 124.934  0.00  0.00    +0.000 OA
ATOM      5  N   UNL     1      -8.799   1.643 125.251  0.00  0.00    +0.000 N 
ATOM      6  C   UNL     1      -9.464   1.922 123.969  0.00  0.00    +0.000 C 
ATOM      7  C   UNL     1      -8.442   3.062 123.706  0.00  0.00    +0.000 C 
ATOM      8  C   UNL     1      -8.156   2.947 125.227  0.00  0.00    +0.000 C 
ENDROOT
BRANCH   1  12
ATOM      9  C   UNL     1      -6.658  -3.114 129.220  0.00  0.00    +0.000 A 
ATOM     10  C   UNL     1      -7.832  -3.131 128.496  0.00  0.00    +0.000 A 
ATOM     11  C   UNL     1      -8.232  -1.980 127.792  0.00  0.00    +0.000 A 
ATOM     12  C   UNL     1      -7.482  -0.802 127.816  0.00  0.00    +0.000 A 
ATOM     13  C   UNL     1      -6.329  -0.906 128.618  0.00  0.00    +0.000 A 
ATOM     14  N   UNL     1      -5.905  -2.008 129.310  0.00  0.00    +0.000 NA
BRANCH   9  16
ATOM     15  C   UNL     1      -4.954  -3.955 130.599  0.00  0.00    +0.000 C 
ATOM     16  O   UNL     1      -6.213  -4.172 129.966  0.00  0.00    +0.000 OA
ENDBRANCH   9  16
ENDBRANCH   1  12
BRANCH   7  17
ATOM     17  O   UNL     1      -7.391   2.810 122.710  0.00  0.00    +0.000 OA
BRANCH  17  18
ATOM     18  C   UNL     1      -7.504   3.441 121.478  0.00  0.00    +0.000 A 
ATOM     19  C   UNL     1      -8.751   3.518 120.843  0.00  0.00    +0.000 A 
ATOM     20  C   UNL     1      -8.854   4.139 119.588  0.00  0.00    +0.000 A 
ATOM     21  F   UNL     1     -10.047   4.233 118.984  0.00  0.00    +0.000 F 
ATOM     22  C   UNL     1      -7.748   4.679 118.949  0.00  0.00    +0.000 A 
ATOM     23  C   UNL     1      -6.521   4.559 119.561  0.00  0.00    +0.000 A 
ATOM     24  F   UNL     1      -5.442   5.091 118.969  0.00  0.00    +0.000 F 
ATOM     25  C   UNL     1      -6.377   3.922 120.795  0.00  0.00    +0.000 A 
ATOM     26  C   UNL     1      -5.010   3.864 121.361  0.00  0.00    +0.000 C 
ENDBRANCH  17  18
ENDBRANCH   7  17
TORSDOF 4
ENDMDL
MODEL 2
REMARK VINA RESULT:      -7.8      3.829      8.541
REMARK  Name = CHEMBL1092498
REMARK  7 active torsions:
REMARK  status: ('A' for Active; 'I' for Inactive)
REMARK    1  A    between atoms: C_1  and  O_2
REMARK    2  A    between atoms: O_2  and  C_3
REMARK    3  A    between atoms: C_6  and  N_7
REMARK    4  A    between atoms: N_7  and  C_8
REMARK    5  A    between atoms: C_13  and  O_14
REMARK    6  A    between atoms: O_14  and  C_15
REMARK    7  A    between atoms: C_22  and  C_23
REMARK                            x       y       z     vdW  Elec       q    Type
REMARK                         _______ _______ _______ _____ _____    ______ ____
ROOT
ATOM      1  N   UNL     1      -7.178   2.998 124.545  0.00  0.00    +0.000 N 
ATOM      2  C   UNL     1      -8.614   3.155 124.790  0.00  0.00    +0.000 C 
ATOM      3  C   UNL     1      -6.333   2.471 125.595  0.00  0.00    +0.000 C 
ATOM      4  O   UNL     1      -5.132   2.299 125.516  0.00  0.00    +0.000 OA
ATOM      5  N   UNL     1      -6.989   2.246 126.820  0.00  0.00    +0.000 N 
ATOM      6  C   UNL     1      -6.405   1.948 128.136  0.00  0.00    +0.000 C 
ATOM      7  C   UNL     1      -7.225   0.629 128.181  0.00  0.00    +0.000 C 
ATOM      8  C   UNL     1      -8.059   1.290 127.051  0.00  0.00    +0.000 C 
ENDROOT
BRANCH   1  12
ATOM      9  C   UNL     1      -5.551   4.543 120.878  0.00  0.00    +0.000 A 
ATOM     10  C   UNL     1      -6.644   3.702 120.831  0.00  0.00    +0.000 A 
ATOM     11  C   UNL     1      -7.189   3.202 122.028  0.00  0.00    +0.000 A 
ATOM     12  C   UNL     1      -6.645   3.517 123.276  0.00  0.00    +0.000 A 
ATOM     13  C   UNL     1      -5.515   4.353 123.182  0.00  0.00    +0.000 A 
ATOM     14  N   UNL     1      -4.963   4.863 122.039  0.00  0.00    +0.000 NA
BRANCH   9  16
ATOM     15  C   UNL     1      -5.817   5.652 118.827  0.00  0.00    +0.000 C 
ATOM     16  O   UNL     1      -4.933   5.044 119.765  0.00  0.00    +0.000 OA
ENDBRANCH   9  16
ENDBRANCH   1  12
BRANCH   7  17
ATOM     17  O   UNL     1      -6.496  -0.628 127.958  0.00  0.00    +0.000 OA
BRANCH  17  18
ATOM     18  C   UNL     1      -7.151  -1.640 127.269  0.00  0.00    +0.000 A 
ATOM     19  C   UNL     1      -8.096  -2.438 127.927  0.00  0.00    +0.000 A 
ATOM     20  C   UNL     1      -8.739  -3.473 127.229  0.00  0.00    +0.000 A 
ATOM     21  F   UNL     1      -9.658  -4.226 127.848  0.00  0.00    +0.000 F 
ATOM     22  C   UNL     1      -8.460  -3.736 125.896  0.00  0.00    +0.000 A 
ATOM     23  C   UNL     1      -7.498  -2.975 125.271  0.00  0.00    +0.000 A 
ATOM     24  F   UNL     1      -7.226  -3.201 123.978  0.00  0.00    +0.000 F 
ATOM     25  C   UNL     1      -6.818  -1.957 125.943  0.00  0.00    +0.000 A 
ATOM     26  C   UNL     1      -5.813  -1.199 125.164  0.00  0.00    +0.000 C 
ENDBRANCH  17  18
ENDBRANCH   7  17
TORSDOF 4
ENDMDL
MODEL 3
REMARK VINA RESULT:      -7.7      5.558      7.633
REMARK  Name = CHEMBL1092498
REMARK  7 active torsions:
REMARK  status: ('A' for Active; 'I' for Inactive)
REMARK    1  A    between atoms: C_1  and  O_2
REMARK    2  A    between atoms: O_2  and  C_3
REMARK    3  A    between atoms: C_6  and  N_7
REMARK    4  A    between atoms: N_7  and  C_8
REMARK    5  A    between atoms: C_13  and  O_14
REMARK    6  A    between atoms: O_14  and  C_15
REMARK    7  A    between atoms: C_22  and  C_23
REMARK                            x       y       z     vdW  Elec       q    Type
REMARK                         _______ _______ _______ _____ _____    ______ ____
ROOT
ATOM      1  N   UNL     1      -6.621   1.743 127.353  0.00  0.00    +0.000 N 
ATOM      2  C   UNL     1      -5.421   2.233 128.036  0.00  0.00    +0.000 C 
ATOM      3  C   UNL     1      -7.923   2.204 127.785  0.00  0.00    +0.000 C 
ATOM      4  O   UNL     1      -8.987   1.868 127.304  0.00  0.00    +0.000 OA
ATOM      5  N   UNL     1      -7.903   3.035 128.921  0.00  0.00    +0.000 N 
ATOM      6  C   UNL     1      -9.030   3.482 129.755  0.00  0.00    +0.000 C 
ATOM      7  C   UNL     1      -8.644   4.957 129.454  0.00  0.00    +0.000 C 
ATOM      8  C   UNL     1      -7.287   4.349 129.007  0.00  0.00    +0.000 C 
ENDROOT
BRANCH   1  12
ATOM      9  C   UNL     1      -6.128  -1.278 124.334  0.00  0.00    +0.000 A 
ATOM     10  C   UNL     1      -5.628  -1.500 125.601  0.00  0.00    +0.000 A 
ATOM     11  C   UNL     1      -5.796  -0.521 126.597  0.00  0.00    +0.000 A 
ATOM     12  C   UNL     1      -6.443   0.690 126.341  0.00  0.00    +0.000 A 
ATOM     13  C   UNL     1      -6.872   0.806 125.004  0.00  0.00    +0.000 A 
ATOM     14  N   UNL     1      -6.733  -0.127 124.012  0.00  0.00    +0.000 NA
BRANCH   9  16
ATOM     15  C   UNL     1      -4.948  -3.125 123.493  0.00  0.00    +0.000 C 
ATOM     16  O   UNL     1      -5.975  -2.156 123.295  0.00  0.00    +0.000 OA
ENDBRANCH   9  16
ENDBRANCH   1  12
BRANCH   7  17
ATOM     17  O   UNL     1      -9.495   5.699 128.512  0.00  0.00    +0.000 OA
BRANCH  17  18
ATOM     18  C   UNL     1     -10.485   6.516 129.044  0.00  0.00    +0.000 A 
ATOM     19  C   UNL     1     -10.883   6.355 130.377  0.00  0.00    +0.000 A 
ATOM     20  C   UNL     1     -11.900   7.170 130.901  0.00  0.00    +0.000 A 
ATOM     21  F   UNL     1     -12.271   7.035 132.182  0.00  0.00    +0.000 F 
ATOM     22  C   UNL     1     -12.531   8.134 130.131  0.00  0.00    +0.000 A 
ATOM     23  C   UNL     1     -12.163   8.253 128.809  0.00  0.00    +0.000 A 
ATOM     24  F   UNL     1     -12.748   9.192 128.052  0.00  0.00    +0.000 F 
ATOM     25  C   UNL     1     -11.177   7.440 128.247  0.00  0.00    +0.000 A 
ATOM     26  C   UNL     1     -10.858   7.668 126.820  0.00  0.00    +0.000 C 
ENDBRANCH  17  18
ENDBRANCH   7  17
TORSDOF 4
ENDMDL
MODEL 4
REMARK VINA RESULT:      -7.7      7.280     11.080
REMARK  Name = CHEMBL1092498
REMARK  7 active torsions:
REMARK  status: ('A' for Active; 'I' for Inactive)
REMARK    1  A    between atoms: C_1  and  O_2
REMARK    2  A    between atoms: O_2  and  C_3
REMARK    3  A    between atoms: C_6  and  N_7
REMARK    4  A    between atoms: N_7  and  C_8
REMARK    5  A    between atoms: C_13  and  O_14
REMARK    6  A    between atoms: O_14  and  C_15
REMARK    7  A    between atoms: C_22  and  C_23
REMARK                            x       y       z     vdW  Elec       q    Type
REMARK                         _______ _______ _______ _____ _____    ______ ____
ROOT
ATOM      1  N   UNL     1      -9.564   5.816 130.883  0.00  0.00    +0.000 N 
ATOM      2  C   UNL     1      -9.000   6.003 132.223  0.00  0.00    +0.000 C 
ATOM      3  C   UNL     1      -9.041   4.767 130.034  0.00  0.00    +0.000 C 
ATOM      4  O   UNL     1      -9.420   4.516 128.906  0.00  0.00    +0.000 OA
ATOM      5  N   UNL     1      -7.940   4.072 130.569  0.00  0.00    +0.000 N 
ATOM      6  C   UNL     1      -7.032   3.129 129.899  0.00  0.00    +0.000 C 
ATOM      7  C   UNL     1      -7.415   2.045 130.945  0.00  0.00    +0.000 C 
ATOM      8  C   UNL     1      -7.951   3.248 131.766  0.00  0.00    +0.000 C 
ENDROOT
BRANCH   1  12
ATOM      9  C   UNL     1     -12.397   8.715 129.453  0.00  0.00    +0.000 A 
ATOM     10  C   UNL     1     -12.745   7.890 130.503  0.00  0.00    +0.000 A 
ATOM     11  C   UNL     1     -11.819   6.947 130.984  0.00  0.00    +0.000 A 
ATOM     12  C   UNL     1     -10.550   6.803 130.417  0.00  0.00    +0.000 A 
ATOM     13  C   UNL     1     -10.334   7.677 129.334  0.00  0.00    +0.000 A 
ATOM     14  N   UNL     1     -11.207   8.611 128.845  0.00  0.00    +0.000 NA
BRANCH   9  16
ATOM     15  C   UNL     1     -13.496  10.773 129.713  0.00  0.00    +0.000 C 
ATOM     16  O   UNL     1     -13.247   9.632 128.896  0.00  0.00    +0.000 OA
ENDBRANCH   9  16
ENDBRANCH   1  12
BRANCH   7  17
ATOM     17  O   UNL     1      -8.308   0.964 130.501  0.00  0.00    +0.000 OA
BRANCH  17  18
ATOM     18  C   UNL     1      -8.025  -0.324 130.936  0.00  0.00    +0.000 A 
ATOM     19  C   UNL     1      -7.990  -0.609 132.307  0.00  0.00    +0.000 A 
ATOM     20  C   UNL     1      -7.683  -1.909 132.739  0.00  0.00    +0.000 A 
ATOM     21  F   UNL     1      -7.668  -2.192 134.049  0.00  0.00    +0.000 F 
ATOM     22  C   UNL     1      -7.403  -2.928 131.841  0.00  0.00    +0.000 A 
ATOM     23  C   UNL     1      -7.396  -2.627 130.498  0.00  0.00    +0.000 A 
ATOM     24  F   UNL     1      -7.146  -3.603 129.613  0.00  0.00    +0.000 F 
ATOM     25  C   UNL     1      -7.668  -1.338 130.035  0.00  0.00    +0.000 A 
ATOM     26  C   UNL     1      -7.643  -1.138 128.568  0.00  0.00    +0.000 C 
ENDBRANCH  17  18
ENDBRANCH   7  17
TORSDOF 4
ENDMDL
MODEL 5
REMARK VINA RESULT:      -7.6      5.654      9.141
REMARK  Name = CHEMBL1092498
REMARK  7 active torsions:
REMARK  status: ('A' for Active; 'I' for Inactive)
REMARK    1  A    between atoms: C_1  and  O_2
REMARK    2  A    between atoms: O_2  and  C_3
REMARK    3  A    between atoms: C_6  and  N_7
REMARK    4  A    between atoms: N_7  and  C_8
REMARK    5  A    between atoms: C_13  and  O_14
REMARK    6  A    between atoms: O_14  and  C_15
REMARK    7  A    between atoms: C_22  and  C_23
REMARK                            x       y       z     vdW  Elec       q    Type
REMARK                         _______ _______ _______ _____ _____    ______ ____
ROOT
ATOM      1  N   UNL     1      -6.516   3.769 126.351  0.00  0.00    +0.000 N 
ATOM      2  C   UNL     1      -5.495   3.085 127.150  0.00  0.00    +0.000 C 
ATOM      3  C   UNL     1      -7.690   4.304 127.007  0.00  0.00    +0.000 C 
ATOM      4  O   UNL     1      -8.605   4.885 126.456  0.00  0.00    +0.000 OA
ATOM      5  N   UNL     1      -7.776   4.016 128.382  0.00  0.00    +0.000 N 
ATOM      6  C   UNL     1      -8.919   4.195 129.291  0.00  0.00    +0.000 C 
ATOM      7  C   UNL     1      -8.042   5.113 130.185  0.00  0.00    +0.000 C 
ATOM      8  C   UNL     1      -6.857   4.478 129.410  0.00  0.00    +0.000 C 
ENDROOT
BRANCH   1  12
ATOM      9  C   UNL     1      -5.980   3.788 122.086  0.00  0.00    +0.000 A 
ATOM     10  C   UNL     1      -6.814   2.849 122.659  0.00  0.00    +0.000 A 
ATOM     11  C   UNL     1      -7.003   2.845 124.053  0.00  0.00    +0.000 A 
ATOM     12  C   UNL     1      -6.355   3.756 124.889  0.00  0.00    +0.000 A 
ATOM     13  C   UNL     1      -5.507   4.634 124.185  0.00  0.00    +0.000 A 
ATOM     14  N   UNL     1      -5.304   4.673 122.832  0.00  0.00    +0.000 NA
BRANCH   9  16
ATOM     15  C   UNL     1      -6.848   4.066 119.923  0.00  0.00    +0.000 C 
ATOM     16  O   UNL     1      -5.706   3.840 120.746  0.00  0.00    +0.000 OA
ENDBRANCH   9  16
ENDBRANCH   1  12
BRANCH   7  17
ATOM     17  O   UNL     1      -8.303   6.559 130.130  0.00  0.00    +0.000 OA
BRANCH  17  18
ATOM     18  C   UNL     1      -9.625   6.972 130.031  0.00  0.00    +0.000 A 
ATOM     19  C   UNL     1     -10.051   7.695 128.909  0.00  0.00    +0.000 A 
ATOM     20  C   UNL     1     -11.385   8.128 128.826  0.00  0.00    +0.000 A 
ATOM     21  F   UNL     1     -11.803   8.802 127.746  0.00  0.00    +0.000 F 
ATOM     22  C   UNL     1     -12.300   7.864 129.834  0.00  0.00    +0.000 A 
ATOM     23  C   UNL     1     -11.860   7.192 130.952  0.00  0.00    +0.000 A 
ATOM     24  F   UNL     1     -12.735   6.911 131.929  0.00  0.00    +0.000 F 
ATOM     25  C   UNL     1     -10.535   6.773 131.081  0.00  0.00    +0.000 A 
ATOM     26  C   UNL     1     -10.182   6.049 132.323  0.00  0.00    +0.000 C 
ENDBRANCH  17  18
ENDBRANCH   7  17
TORSDOF 4
ENDMDL
MODEL 6
REMARK VINA RESULT:      -7.5      7.863     10.281
REMARK  Name = CHEMBL1092498
REMARK  7 active torsions:
REMARK  status: ('A' for Active; 'I' for Inactive)
REMARK    1  A    between atoms: C_1  and  O_2
REMARK    2  A    between atoms: O_2  and  C_3
REMARK    3  A    between atoms: C_6  and  N_7
REMARK    4  A    between atoms: N_7  and  C_8
REMARK    5  A    between atoms: C_13  and  O_14
REMARK    6  A    between atoms: O_14  and  C_15
REMARK    7  A    between atoms: C_22  and  C_23
REMARK                            x       y       z     vdW  Elec       q    Type
REMARK                         _______ _______ _______ _____ _____    ______ ____
ROOT
ATOM      1  N   UNL     1      -9.548   5.742 130.285  0.00  0.00    +0.000 N 
ATOM      2  C   UNL     1      -9.690   4.467 129.578  0.00  0.00    +0.000 C 
ATOM      3  C   UNL     1      -8.514   5.886 131.288  0.00  0.00    +0.000 C 
ATOM      4  O   UNL     1      -8.300   6.887 131.944  0.00  0.00    +0.000 OA
ATOM      5  N   UNL     1      -7.787   4.711 131.555  0.00  0.00    +0.000 N 
ATOM      6  C   UNL     1      -6.847   4.438 132.653  0.00  0.00    +0.000 C 
ATOM      7  C   UNL     1      -5.743   4.127 131.606  0.00  0.00    +0.000 C 
ATOM      8  C   UNL     1      -6.931   4.006 130.615  0.00  0.00    +0.000 C 
ENDROOT
BRANCH   1  12
ATOM      9  C   UNL     1     -12.476   8.782 129.470  0.00  0.00    +0.000 A 
ATOM     10  C   UNL     1     -12.691   7.897 130.506  0.00  0.00    +0.000 A 
ATOM     11  C   UNL     1     -11.731   6.907 130.786  0.00  0.00    +0.000 A 
ATOM     12  C   UNL     1     -10.564   6.776 130.032  0.00  0.00    +0.000 A 
ATOM     13  C   UNL     1     -10.483   7.715 128.985  0.00  0.00    +0.000 A 
ATOM     14  N   UNL     1     -11.391   8.695 128.687  0.00  0.00    +0.000 NA
BRANCH   9  16
ATOM     15  C   UNL     1     -13.410  10.875 129.974  0.00  0.00    +0.000 C 
ATOM     16  O   UNL     1     -13.372   9.749 129.102  0.00  0.00    +0.000 OA
ENDBRANCH   9  16
ENDBRANCH   1  12
BRANCH   7  17
ATOM     17  O   UNL     1      -4.689   5.134 131.416  0.00  0.00    +0.000 OA
BRANCH  17  18
ATOM     18  C   UNL     1      -3.973   5.102 130.226  0.00  0.00    +0.000 A 
ATOM     19  C   UNL     1      -3.655   3.873 129.633  0.00  0.00    +0.000 A 
ATOM     20  C   UNL     1      -2.912   3.848 128.442  0.00  0.00    +0.000 A 
ATOM     21  F   UNL     1      -2.623   2.676 127.859  0.00  0.00    +0.000 F 
ATOM     22  C   UNL     1      -2.474   5.013 127.832  0.00  0.00    +0.000 A 
ATOM     23  C   UNL     1      -2.753   6.213 128.446  0.00  0.00    +0.000 A 
ATOM     24  F   UNL     1      -2.353   7.352 127.863  0.00  0.00    +0.000 F 
ATOM     25  C   UNL     1      -3.463   6.273 129.647  0.00  0.00    +0.000 A 
ATOM     26  C   UNL     1      -3.713   7.621 130.207  0.00  0.00    +0.000 C 
ENDBRANCH  17  18
ENDBRANCH   7  17
TORSDOF 4
ENDMDL
MODEL 7
REMARK VINA RESULT:      -7.5      4.932      6.905
REMARK  Name = CHEMBL1092498
REMARK  7 active torsions:
REMARK  status: ('A' for Active; 'I' for Inactive)
REMARK    1  A    between atoms: C_1  and  O_2
REMARK    2  A    between atoms: O_2  and  C_3
REMARK    3  A    between atoms: C_6  and  N_7
REMARK    4  A    between atoms: N_7  and  C_8
REMARK    5  A    between atoms: C_13  and  O_14
REMARK    6  A    between atoms: O_14  and  C_15
REMARK    7  A    between atoms: C_22  and  C_23
REMARK                            x       y       z     vdW  Elec       q    Type
REMARK                         _______ _______ _______ _____ _____    ______ ____
ROOT
ATOM      1  N   UNL     1      -5.941  -3.129 131.647  0.00  0.00    +0.000 N 
ATOM      2  C   UNL     1      -6.407  -1.778 131.974  0.00  0.00    +0.000 C 
ATOM      3  C   UNL     1      -6.480  -3.803 130.485  0.00  0.00    +0.000 C 
ATOM      4  O   UNL     1      -6.179  -4.921 130.114  0.00  0.00    +0.000 OA
ATOM      5  N   UNL     1      -7.503  -3.101 129.821  0.00  0.00    +0.000 N 
ATOM      6  C   UNL     1      -8.416  -3.578 128.771  0.00  0.00    +0.000 C 
ATOM      7  C   UNL     1      -7.903  -2.449 127.836  0.00  0.00    +0.000 C 
ATOM      8  C   UNL     1      -7.360  -1.820 129.147  0.00  0.00    +0.000 C 
ENDROOT
BRANCH   1  12
ATOM      9  C   UNL     1      -3.246  -4.999 134.425  0.00  0.00    +0.000 A 
ATOM     10  C   UNL     1      -4.593  -5.295 134.486  0.00  0.00    +0.000 A 
ATOM     11  C   UNL     1      -5.479  -4.695 133.572  0.00  0.00    +0.000 A 
ATOM     12  C   UNL     1      -5.041  -3.787 132.606  0.00  0.00    +0.000 A 
ATOM     13  C   UNL     1      -3.654  -3.545 132.674  0.00  0.00    +0.000 A 
ATOM     14  N   UNL     1      -2.762  -4.115 133.542  0.00  0.00    +0.000 NA
BRANCH   9  16
ATOM     15  C   UNL     1      -1.209  -4.643 135.535  0.00  0.00    +0.000 C 
ATOM     16  O   UNL     1      -2.320  -5.504 135.297  0.00  0.00    +0.000 OA
ENDBRANCH   9  16
ENDBRANCH   1  12
BRANCH   7  17
ATOM     17  O   UNL     1      -6.999  -2.835 126.742  0.00  0.00    +0.000 OA
BRANCH  17  18
ATOM     18  C   UNL     1      -7.441  -2.638 125.441  0.00  0.00    +0.000 A 
ATOM     19  C   UNL     1      -8.602  -3.280 124.990  0.00  0.00    +0.000 A 
ATOM     20  C   UNL     1      -9.030  -3.092 123.666  0.00  0.00    +0.000 A 
ATOM     21  F   UNL     1     -10.151  -3.687 123.235  0.00  0.00    +0.000 F 
ATOM     22  C   UNL     1      -8.328  -2.289 122.780  0.00  0.00    +0.000 A 
ATOM     23  C   UNL     1      -7.165  -1.699 123.220  0.00  0.00    +0.000 A 
ATOM     24  F   UNL     1      -6.481  -0.903 122.384  0.00  0.00    +0.000 F 
ATOM     25  C   UNL     1      -6.694  -1.887 124.520  0.00  0.00    +0.000 A 
ATOM     26  C   UNL     1      -5.437  -1.193 124.882  0.00  0.00    +0.000 C 
ENDBRANCH  17  18
ENDBRANCH   7  17
TORSDOF 4
ENDMDL
MODEL 8
REMARK VINA RESULT:      -7.5      8.803     11.596
REMARK  Name = CHEMBL1092498
REMARK  7 active torsions:
REMARK  status: ('A' for Active; 'I' for Inactive)
REMARK    1  A    between atoms: C_1  and  O_2
REMARK    2  A    between atoms: O_2  and  C_3
REMARK    3  A    between atoms: C_6  and  N_7
REMARK    4  A    between atoms: N_7  and  C_8
REMARK    5  A    between atoms: C_13  and  O_14
REMARK    6  A    between atoms: O_14  and  C_15
REMARK    7  A    between atoms: C_22  and  C_23
REMARK                            x       y       z     vdW  Elec       q    Type
REMARK                         _______ _______ _______ _____ _____    ______ ____
ROOT
ATOM      1  N   UNL     1      -9.952   5.541 131.064  0.00  0.00    +0.000 N 
ATOM      2  C   UNL     1      -9.764   4.378 130.193  0.00  0.00    +0.000 C 
ATOM      3  C   UNL     1      -9.369   5.538 132.389  0.00  0.00    +0.000 C 
ATOM      4  O   UNL     1      -9.458   6.436 133.203  0.00  0.00    +0.000 OA
ATOM      5  N   UNL     1      -8.739   4.332 132.750  0.00  0.00    +0.000 N 
ATOM      6  C   UNL     1      -8.259   3.903 134.072  0.00  0.00    +0.000 C 
ATOM      7  C   UNL     1      -6.833   3.733 133.481  0.00  0.00    +0.000 C 
ATOM      8  C   UNL     1      -7.565   3.759 132.112  0.00  0.00    +0.000 C 
ENDROOT
BRANCH   1  12
ATOM      9  C   UNL     1     -12.519   8.666 129.607  0.00  0.00    +0.000 A 
ATOM     10  C   UNL     1     -12.938   7.885 130.665  0.00  0.00    +0.000 A 
ATOM     11  C   UNL     1     -12.098   6.868 131.155  0.00  0.00    +0.000 A 
ATOM     12  C   UNL     1     -10.848   6.607 130.589  0.00  0.00    +0.000 A 
ATOM     13  C   UNL     1     -10.556   7.449 129.497  0.00  0.00    +0.000 A 
ATOM     14  N   UNL     1     -11.344   8.451 128.999  0.00  0.00    +0.000 NA
BRANCH   9  16
ATOM     15  C   UNL     1     -13.456  10.803 129.860  0.00  0.00    +0.000 C 
ATOM     16  O   UNL     1     -13.286   9.649 129.041  0.00  0.00    +0.000 OA
ENDBRANCH   9  16
ENDBRANCH   1  12
BRANCH   7  17
ATOM     17  O   UNL     1      -5.831   4.750 133.831  0.00  0.00    +0.000 OA
BRANCH  17  18
ATOM     18  C   UNL     1      -4.668   4.797 133.073  0.00  0.00    +0.000 A 
ATOM     19  C   UNL     1      -3.595   3.951 133.384  0.00  0.00    +0.000 A 
ATOM     20  C   UNL     1      -2.415   4.020 132.626  0.00  0.00    +0.000 A 
ATOM     21  F   UNL     1      -1.393   3.199 132.906  0.00  0.00    +0.000 F 
ATOM     22  C   UNL     1      -2.275   4.911 131.574  0.00  0.00    +0.000 A 
ATOM     23  C   UNL     1      -3.318   5.769 131.306  0.00  0.00    +0.000 A 
ATOM     24  F   UNL     1      -3.210   6.626 130.280  0.00  0.00    +0.000 F 
ATOM     25  C   UNL     1      -4.495   5.749 132.057  0.00  0.00    +0.000 A 
ATOM     26  C   UNL     1      -5.552   6.710 131.668  0.00  0.00    +0.000 C 
ENDBRANCH  17  18
ENDBRANCH   7  17
TORSDOF 4
ENDMDL
MODEL 9
REMARK VINA RESULT:      -7.4      3.791      8.696
REMARK  Name = CHEMBL1092498
REMARK  7 active torsions:
REMARK  status: ('A' for Active; 'I' for Inactive)
REMARK    1  A    between atoms: C_1  and  O_2
REMARK    2  A    between atoms: O_2  and  C_3
REMARK    3  A    between atoms: C_6  and  N_7
REMARK    4  A    between atoms: N_7  and  C_8
REMARK    5  A    between atoms: C_13  and  O_14
REMARK    6  A    between atoms: O_14  and  C_15
REMARK    7  A    between atoms: C_22  and  C_23
REMARK                            x       y       z     vdW  Elec       q    Type
REMARK                         _______ _______ _______ _____ _____    ______ ____
ROOT
ATOM      1  N   UNL     1      -6.623   2.489 125.677  0.00  0.00    +0.000 N 
ATOM      2  C   UNL     1      -7.892   2.879 126.298  0.00  0.00    +0.000 C 
ATOM      3  C   UNL     1      -5.671   1.707 126.438  0.00  0.00    +0.000 C 
ATOM      4  O   UNL     1      -4.588   1.328 126.038  0.00  0.00    +0.000 OA
ATOM      5  N   UNL     1      -6.039   1.477 127.777  0.00  0.00    +0.000 N 
ATOM      6  C   UNL     1      -5.224   0.938 128.876  0.00  0.00    +0.000 C 
ATOM      7  C   UNL     1      -6.259  -0.206 129.060  0.00  0.00    +0.000 C 
ATOM      8  C   UNL     1      -7.192   0.713 128.226  0.00  0.00    +0.000 C 
ENDROOT
BRANCH   1  12
ATOM      9  C   UNL     1      -5.688   4.135 121.817  0.00  0.00    +0.000 A 
ATOM     10  C   UNL     1      -6.472   3.002 121.897  0.00  0.00    +0.000 A 
ATOM     11  C   UNL     1      -6.792   2.465 123.158  0.00  0.00    +0.000 A 
ATOM     12  C   UNL     1      -6.323   3.034 124.344  0.00  0.00    +0.000 A 
ATOM     13  C   UNL     1      -5.507   4.161 124.122  0.00  0.00    +0.000 A 
ATOM     14  N   UNL     1      -5.181   4.715 122.914  0.00  0.00    +0.000 NA
BRANCH   9  16
ATOM     15  C   UNL     1      -6.274   4.637 119.601  0.00  0.00    +0.000 C 
ATOM     16  O   UNL     1      -5.296   4.701 120.635  0.00  0.00    +0.000 OA
ENDBRANCH   9  16
ENDBRANCH   1  12
BRANCH   7  17
ATOM     17  O   UNL     1      -5.879  -1.544 128.583  0.00  0.00    +0.000 OA
BRANCH  17  18
ATOM     18  C   UNL     1      -6.799  -2.237 127.807  0.00  0.00    +0.000 A 
ATOM     19  C   UNL     1      -6.742  -2.150 126.409  0.00  0.00    +0.000 A 
ATOM     20  C   UNL     1      -7.689  -2.837 125.632  0.00  0.00    +0.000 A 
ATOM     21  F   UNL     1      -7.627  -2.774 124.294  0.00  0.00    +0.000 F 
ATOM     22  C   UNL     1      -8.692  -3.599 126.210  0.00  0.00    +0.000 A 
ATOM     23  C   UNL     1      -8.766  -3.641 127.585  0.00  0.00    +0.000 A 
ATOM     24  F   UNL     1      -9.717  -4.388 128.163  0.00  0.00    +0.000 F 
ATOM     25  C   UNL     1      -7.859  -2.948 128.388  0.00  0.00    +0.000 A 
ATOM     26  C   UNL     1      -8.031  -3.078 129.853  0.00  0.00    +0.000 C 
ENDBRANCH  17  18
ENDBRANCH   7  17
TORSDOF 4
ENDMDL
