MODEL 1
REMARK VINA RESULT:     -10.2      0.000      0.000
REMARK  Name = CHEMBL24605
REMARK  8 active torsions:
REMARK  status: ('A' for Active; 'I' for Inactive)
REMARK    1  A    between atoms: C_1  and  C_2
REMARK    2  A    between atoms: N_4  and  C_5
REMARK    3  A    between atoms: C_7  and  C_8
REMARK    4  A    between atoms: N_20  and  C_21
REMARK    5  A    between atoms: C_21  and  C_22
REMARK    6  A    between atoms: N_24  and  C_25
REMARK    7  A    between atoms: C_25  and  C_26
REMARK    8  A    between atoms: C_26  and  C_27
REMARK                            x       y       z     vdW  Elec       q    Type
REMARK                         _______ _______ _______ _____ _____    ______ ____
ROOT
ATOM      1  C   UNL     1      -7.967   0.320 130.119  0.00  0.00    +0.000 C 
ATOM      2  N   UNL     1      -7.460  -0.825 130.893  0.00  0.00    +0.000 NA
ATOM      3  C   UNL     1      -7.397  -1.992 130.322  0.00  0.00    +0.000 C 
ATOM      4  C   UNL     1      -7.896  -2.310 128.944  0.00  0.00    +0.000 A 
ATOM      5  C   UNL     1      -8.495  -3.567 128.724  0.00  0.00    +0.000 A 
ATOM      6  C   UNL     1      -8.937  -3.943 127.454  0.00  0.00    +0.000 A 
ATOM      7  C   UNL     1      -8.858  -3.044 126.402  0.00  0.00    +0.000 A 
ATOM      8  C   UNL     1      -8.335  -1.773 126.623  0.00  0.00    +0.000 A 
ATOM      9  C   UNL     1      -7.759  -1.424 127.858  0.00  0.00    +0.000 A 
ATOM     10  N   UNL     1      -6.927  -0.270 127.911  0.00  0.00    +0.000 N 
ATOM     11  C   UNL     1      -6.939   0.620 128.980  0.00  0.00    +0.000 C 
ATOM     12  O   UNL     1      -6.180   1.597 128.992  0.00  0.00    +0.000 OA
ENDROOT
BRANCH   3  13
ATOM     13  C   UNL     1      -6.809  -3.120 131.126  0.00  0.00    +0.000 A 
ATOM     14  C   UNL     1      -7.115  -3.212 132.488  0.00  0.00    +0.000 A 
ATOM     15  C   UNL     1      -6.456  -4.146 133.292  0.00  0.00    +0.000 A 
ATOM     16  C   UNL     1      -5.565  -5.055 132.723  0.00  0.00    +0.000 A 
ATOM     17  C   UNL     1      -5.354  -5.050 131.344  0.00  0.00    +0.000 A 
ATOM     18  C   UNL     1      -5.940  -4.057 130.548  0.00  0.00    +0.000 A 
ENDBRANCH   3  13
BRANCH   1  22
ATOM     19  C   UNL     1      -9.144   2.881 132.674  0.00  0.00    +0.000 C 
ATOM     20  C   UNL     1      -9.109   1.607 131.869  0.00  0.00    +0.000 C 
ATOM     21  O   UNL     1      -9.987   0.755 131.993  0.00  0.00    +0.000 OA
ATOM     22  N   UNL     1      -8.047   1.472 131.000  0.00  0.00    +0.000 N 
ATOM     23  H   UNL     1      -7.283   2.130 130.974  0.00  0.00    +0.000 HD
ENDBRANCH   1  22
BRANCH  10  24
ATOM     24  C   UNL     1      -5.971   0.022 126.823  0.00  0.00    +0.000 C 
BRANCH  24  25
ATOM     25  C   UNL     1      -6.335   1.117 125.804  0.00  0.00    +0.000 C 
ATOM     26  O   UNL     1      -7.056   0.917 124.817  0.00  0.00    +0.000 OA
ATOM     27  N   UNL     1      -5.805   2.371 125.999  0.00  0.00    +0.000 N 
ATOM     28  H   UNL     1      -4.918   2.471 126.481  0.00  0.00    +0.000 HD
BRANCH  27  29
ATOM     29  C   UNL     1      -6.315   3.428 125.146  0.00  0.00    +0.000 C 
BRANCH  29  30
ATOM     30  C   UNL     1      -5.266   4.049 124.238  0.00  0.00    +0.000 C 
BRANCH  30  31
ATOM     31  C   UNL     1      -5.715   4.015 122.797  0.00  0.00    +0.000 A 
ATOM     32  C   UNL     1      -4.878   4.508 121.792  0.00  0.00    +0.000 A 
ATOM     33  C   UNL     1      -5.315   4.549 120.468  0.00  0.00    +0.000 A 
ATOM     34  C   UNL     1      -6.632   4.205 120.151  0.00  0.00    +0.000 A 
ATOM     35 CL   UNL     1      -7.159   4.458 118.526  0.00  0.00    +0.000 Cl
ATOM     36  C   UNL     1      -7.476   3.704 121.145  0.00  0.00    +0.000 A 
ATOM     37 CL   UNL     1      -9.131   3.309 120.846  0.00  0.00    +0.000 Cl
ATOM     38  C   UNL     1      -6.994   3.550 122.449  0.00  0.00    +0.000 A 
ENDBRANCH  30  31
ENDBRANCH  29  30
ENDBRANCH  27  29
ENDBRANCH  24  25
ENDBRANCH  10  24
TORSDOF 7
ENDMDL
MODEL 2
REMARK VINA RESULT:      -9.8      2.529      3.239
REMARK  Name = CHEMBL24605
REMARK  8 active torsions:
REMARK  status: ('A' for Active; 'I' for Inactive)
REMARK    1  A    between atoms: C_1  and  C_2
REMARK    2  A    between atoms: N_4  and  C_5
REMARK    3  A    between atoms: C_7  and  C_8
REMARK    4  A    between atoms: N_20  and  C_21
REMARK    5  A    between atoms: C_21  and  C_22
REMARK    6  A    between atoms: N_24  and  C_25
REMARK    7  A    between atoms: C_25  and  C_26
REMARK    8  A    between atoms: C_26  and  C_27
REMARK                            x       y       z     vdW  Elec       q    Type
REMARK                         _______ _______ _______ _____ _____    ______ ____
ROOT
ATOM      1  C   UNL     1      -7.840   0.354 130.652  0.00  0.00    +0.000 C 
ATOM      2  N   UNL     1      -7.412  -0.821 131.430  0.00  0.00    +0.000 NA
ATOM      3  C   UNL     1      -7.339  -1.976 130.837  0.00  0.00    +0.000 C 
ATOM      4  C   UNL     1      -7.752  -2.251 129.422  0.00  0.00    +0.000 A 
ATOM      5  C   UNL     1      -8.364  -3.488 129.134  0.00  0.00    +0.000 A 
ATOM      6  C   UNL     1      -8.730  -3.824 127.829  0.00  0.00    +0.000 A 
ATOM      7  C   UNL     1      -8.561  -2.904 126.806  0.00  0.00    +0.000 A 
ATOM      8  C   UNL     1      -8.024  -1.652 127.090  0.00  0.00    +0.000 A 
ATOM      9  C   UNL     1      -7.523  -1.345 128.369  0.00  0.00    +0.000 A 
ATOM     10  N   UNL     1      -6.671  -0.213 128.503  0.00  0.00    +0.000 N 
ATOM     11  C   UNL     1      -6.733   0.653 129.590  0.00  0.00    +0.000 C 
ATOM     12  O   UNL     1      -5.953   1.611 129.675  0.00  0.00    +0.000 OA
ENDROOT
BRANCH   3  13
ATOM     13  C   UNL     1      -6.831  -3.136 131.650  0.00  0.00    +0.000 A 
ATOM     14  C   UNL     1      -7.281  -3.288 132.966  0.00  0.00    +0.000 A 
ATOM     15  C   UNL     1      -6.705  -4.254 133.796  0.00  0.00    +0.000 A 
ATOM     16  C   UNL     1      -5.751  -5.134 133.289  0.00  0.00    +0.000 A 
ATOM     17  C   UNL     1      -5.393  -5.068 131.942  0.00  0.00    +0.000 A 
ATOM     18  C   UNL     1      -5.899  -4.044 131.130  0.00  0.00    +0.000 A 
ENDBRANCH   3  13
BRANCH   1  22
ATOM     19  C   UNL     1      -9.181   3.004 133.028  0.00  0.00    +0.000 C 
ATOM     20  C   UNL     1      -9.146   1.754 132.186  0.00  0.00    +0.000 C 
ATOM     21  O   UNL     1     -10.138   1.034 132.080  0.00  0.00    +0.000 OA
ATOM     22  N   UNL     1      -7.951   1.488 131.553  0.00  0.00    +0.000 N 
ATOM     23  H   UNL     1      -7.118   2.030 131.720  0.00  0.00    +0.000 HD
ENDBRANCH   1  22
BRANCH  10  24
ATOM     24  C   UNL     1      -5.638   0.080 127.488  0.00  0.00    +0.000 C 
BRANCH  24  25
ATOM     25  C   UNL     1      -5.831   1.308 126.581  0.00  0.00    +0.000 C 
ATOM     26  O   UNL     1      -4.937   2.133 126.351  0.00  0.00    +0.000 OA
ATOM     27  N   UNL     1      -7.074   1.499 126.022  0.00  0.00    +0.000 N 
ATOM     28  H   UNL     1      -7.897   1.148 126.499  0.00  0.00    +0.000 HD
BRANCH  27  29
ATOM     29  C   UNL     1      -7.179   2.543 125.020  0.00  0.00    +0.000 C 
BRANCH  29  30
ATOM     30  C   UNL     1      -6.951   2.059 123.598  0.00  0.00    +0.000 C 
BRANCH  30  31
ATOM     31  C   UNL     1      -7.567   0.696 123.390  0.00  0.00    +0.000 A 
ATOM     32  C   UNL     1      -8.941   0.578 123.160  0.00  0.00    +0.000 A 
ATOM     33  C   UNL     1      -9.530  -0.681 123.041  0.00  0.00    +0.000 A 
ATOM     34  C   UNL     1      -8.774  -1.835 123.263  0.00  0.00    +0.000 A 
ATOM     35 CL   UNL     1      -9.606  -3.348 123.286  0.00  0.00    +0.000 Cl
ATOM     36  C   UNL     1      -7.399  -1.730 123.487  0.00  0.00    +0.000 A 
ATOM     37 CL   UNL     1      -6.406  -3.103 123.826  0.00  0.00    +0.000 Cl
ATOM     38  C   UNL     1      -6.791  -0.470 123.484  0.00  0.00    +0.000 A 
ENDBRANCH  30  31
ENDBRANCH  29  30
ENDBRANCH  27  29
ENDBRANCH  24  25
ENDBRANCH  10  24
TORSDOF 7
ENDMDL
MODEL 3
REMARK VINA RESULT:      -9.6      4.021      7.192
REMARK  Name = CHEMBL24605
REMARK  8 active torsions:
REMARK  status: ('A' for Active; 'I' for Inactive)
REMARK    1  A    between atoms: C_1  and  C_2
REMARK    2  A    between atoms: N_4  and  C_5
REMARK    3  A    between atoms: C_7  and  C_8
REMARK    4  A    between atoms: N_20  and  C_21
REMARK    5  A    between atoms: C_21  and  C_22
REMARK    6  A    between atoms: N_24  and  C_25
REMARK    7  A    between atoms: C_25  and  C_26
REMARK    8  A    between atoms: C_26  and  C_27
REMARK                            x       y       z     vdW  Elec       q    Type
REMARK                         _______ _______ _______ _____ _____    ______ ____
ROOT
ATOM      1  C   UNL     1      -5.492   1.229 127.428  0.00  0.00    +0.000 C 
ATOM      2  N   UNL     1      -5.967   0.204 126.483  0.00  0.00    +0.000 NA
ATOM      3  C   UNL     1      -6.734  -0.749 126.922  0.00  0.00    +0.000 C 
ATOM      4  C   UNL     1      -7.114  -0.964 128.357  0.00  0.00    +0.000 A 
ATOM      5  C   UNL     1      -7.225  -2.289 128.827  0.00  0.00    +0.000 A 
ATOM      6  C   UNL     1      -7.620  -2.558 130.139  0.00  0.00    +0.000 A 
ATOM      7  C   UNL     1      -7.836  -1.511 131.022  0.00  0.00    +0.000 A 
ATOM      8  C   UNL     1      -7.660  -0.200 130.590  0.00  0.00    +0.000 A 
ATOM      9  C   UNL     1      -7.398   0.095 129.240  0.00  0.00    +0.000 A 
ATOM     10  N   UNL     1      -7.589   1.433 128.794  0.00  0.00    +0.000 N 
ATOM     11  C   UNL     1      -6.732   2.059 127.894  0.00  0.00    +0.000 C 
ATOM     12  O   UNL     1      -6.954   3.217 127.517  0.00  0.00    +0.000 OA
ENDROOT
BRANCH   3  13
ATOM     13  C   UNL     1      -7.252  -1.736 125.911  0.00  0.00    +0.000 A 
ATOM     14  C   UNL     1      -8.633  -1.836 125.709  0.00  0.00    +0.000 A 
ATOM     15  C   UNL     1      -9.151  -2.853 124.902  0.00  0.00    +0.000 A 
ATOM     16  C   UNL     1      -8.291  -3.711 124.218  0.00  0.00    +0.000 A 
ATOM     17  C   UNL     1      -6.910  -3.533 124.317  0.00  0.00    +0.000 A 
ATOM     18  C   UNL     1      -6.387  -2.575 125.195  0.00  0.00    +0.000 A 
ENDBRANCH   3  13
BRANCH   1  22
ATOM     19  C   UNL     1      -2.726   3.714 126.624  0.00  0.00    +0.000 C 
ATOM     20  C   UNL     1      -3.572   2.756 127.425  0.00  0.00    +0.000 C 
ATOM     21  O   UNL     1      -3.368   2.583 128.625  0.00  0.00    +0.000 OA
ATOM     22  N   UNL     1      -4.570   2.108 126.730  0.00  0.00    +0.000 N 
ATOM     23  H   UNL     1      -4.669   2.184 125.729  0.00  0.00    +0.000 HD
ENDBRANCH   1  22
BRANCH  10  24
ATOM     24  C   UNL     1      -8.751   2.223 129.253  0.00  0.00    +0.000 C 
BRANCH  24  25
ATOM     25  C   UNL     1      -8.612   3.045 130.547  0.00  0.00    +0.000 C 
ATOM     26  O   UNL     1      -9.242   2.796 131.583  0.00  0.00    +0.000 OA
ATOM     27  N   UNL     1      -7.758   4.123 130.529  0.00  0.00    +0.000 N 
ATOM     28  H   UNL     1      -7.583   4.610 129.656  0.00  0.00    +0.000 HD
BRANCH  27  29
ATOM     29  C   UNL     1      -7.492   4.760 131.805  0.00  0.00    +0.000 C 
BRANCH  29  30
ATOM     30  C   UNL     1      -7.670   6.269 131.791  0.00  0.00    +0.000 C 
BRANCH  30  31
ATOM     31  C   UNL     1      -9.048   6.642 131.297  0.00  0.00    +0.000 A 
ATOM     32  C   UNL     1     -10.181   6.184 131.976  0.00  0.00    +0.000 A 
ATOM     33  C   UNL     1     -11.457   6.462 131.484  0.00  0.00    +0.000 A 
ATOM     34  C   UNL     1     -11.612   7.100 130.251  0.00  0.00    +0.000 A 
ATOM     35 CL   UNL     1     -13.212   7.242 129.616  0.00  0.00    +0.000 Cl
ATOM     36  C   UNL     1     -10.488   7.568 129.567  0.00  0.00    +0.000 A 
ATOM     37 CL   UNL     1     -10.591   8.317 128.013  0.00  0.00    +0.000 Cl
ATOM     38  C   UNL     1      -9.216   7.395 130.124  0.00  0.00    +0.000 A 
ENDBRANCH  30  31
ENDBRANCH  29  30
ENDBRANCH  27  29
ENDBRANCH  24  25
ENDBRANCH  10  24
TORSDOF 7
ENDMDL
MODEL 4
REMARK VINA RESULT:      -9.5      5.096      8.347
REMARK  Name = CHEMBL24605
REMARK  8 active torsions:
REMARK  status: ('A' for Active; 'I' for Inactive)
REMARK    1  A    between atoms: C_1  and  C_2
REMARK    2  A    between atoms: N_4  and  C_5
REMARK    3  A    between atoms: C_7  and  C_8
REMARK    4  A    between atoms: N_20  and  C_21
REMARK    5  A    between atoms: C_21  and  C_22
REMARK    6  A    between atoms: N_24  and  C_25
REMARK    7  A    between atoms: C_25  and  C_26
REMARK    8  A    between atoms: C_26  and  C_27
REMARK                            x       y       z     vdW  Elec       q    Type
REMARK                         _______ _______ _______ _____ _____    ______ ____
ROOT
ATOM      1  C   UNL     1      -9.322   6.859 130.532  0.00  0.00    +0.000 C 
ATOM      2  N   UNL     1      -7.877   7.136 130.476  0.00  0.00    +0.000 NA
ATOM      3  C   UNL     1      -7.097   6.587 131.359  0.00  0.00    +0.000 C 
ATOM      4  C   UNL     1      -7.553   5.751 132.518  0.00  0.00    +0.000 A 
ATOM      5  C   UNL     1      -6.859   5.870 133.740  0.00  0.00    +0.000 A 
ATOM      6  C   UNL     1      -7.204   5.086 134.843  0.00  0.00    +0.000 A 
ATOM      7  C   UNL     1      -8.291   4.229 134.768  0.00  0.00    +0.000 A 
ATOM      8  C   UNL     1      -9.028   4.156 133.589  0.00  0.00    +0.000 A 
ATOM      9  C   UNL     1      -8.615   4.832 132.427  0.00  0.00    +0.000 A 
ATOM     10  N   UNL     1      -9.182   4.437 131.182  0.00  0.00    +0.000 N 
ATOM     11  C   UNL     1      -9.532   5.348 130.190  0.00  0.00    +0.000 C 
ATOM     12  O   UNL     1     -10.000   4.954 129.114  0.00  0.00    +0.000 OA
ENDROOT
BRANCH   3  13
ATOM     13  C   UNL     1      -5.620   6.841 131.225  0.00  0.00    +0.000 A 
ATOM     14  C   UNL     1      -4.725   6.012 131.909  0.00  0.00    +0.000 A 
ATOM     15  C   UNL     1      -3.363   6.323 131.937  0.00  0.00    +0.000 A 
ATOM     16  C   UNL     1      -2.876   7.403 131.203  0.00  0.00    +0.000 A 
ATOM     17  C   UNL     1      -3.748   8.157 130.416  0.00  0.00    +0.000 A 
ATOM     18  C   UNL     1      -5.126   7.906 130.458  0.00  0.00    +0.000 A 
ENDBRANCH   3  13
BRANCH   1  22
ATOM     19  C   UNL     1     -11.944   8.712 128.491  0.00  0.00    +0.000 C 
ATOM     20  C   UNL     1     -11.333   7.940 129.634  0.00  0.00    +0.000 C 
ATOM     21  O   UNL     1     -12.015   7.582 130.592  0.00  0.00    +0.000 OA
ATOM     22  N   UNL     1      -9.986   7.668 129.525  0.00  0.00    +0.000 N 
ATOM     23  H   UNL     1      -9.417   8.046 128.784  0.00  0.00    +0.000 HD
ENDBRANCH   1  22
BRANCH  10  24
ATOM     24  C   UNL     1      -9.398   3.009 130.870  0.00  0.00    +0.000 C 
BRANCH  24  25
ATOM     25  C   UNL     1      -8.286   2.245 130.130  0.00  0.00    +0.000 C 
ATOM     26  O   UNL     1      -7.343   1.687 130.707  0.00  0.00    +0.000 OA
ATOM     27  N   UNL     1      -8.342   2.209 128.757  0.00  0.00    +0.000 N 
ATOM     28  H   UNL     1      -8.789   2.967 128.252  0.00  0.00    +0.000 HD
BRANCH  27  29
ATOM     29  C   UNL     1      -7.402   1.323 128.094  0.00  0.00    +0.000 C 
BRANCH  29  30
ATOM     30  C   UNL     1      -6.721   1.940 126.884  0.00  0.00    +0.000 C 
BRANCH  30  31
ATOM     31  C   UNL     1      -5.572   2.823 127.307  0.00  0.00    +0.000 A 
ATOM     32  C   UNL     1      -5.824   4.043 127.940  0.00  0.00    +0.000 A 
ATOM     33  C   UNL     1      -4.771   4.899 128.267  0.00  0.00    +0.000 A 
ATOM     34  C   UNL     1      -3.469   4.597 127.863  0.00  0.00    +0.000 A 
ATOM     35 CL   UNL     1      -2.247   5.788 128.135  0.00  0.00    +0.000 Cl
ATOM     36  C   UNL     1      -3.202   3.377 127.236  0.00  0.00    +0.000 A 
ATOM     37 CL   UNL     1      -1.631   2.954 126.657  0.00  0.00    +0.000 Cl
ATOM     38  C   UNL     1      -4.243   2.468 127.019  0.00  0.00    +0.000 A 
ENDBRANCH  30  31
ENDBRANCH  29  30
ENDBRANCH  27  29
ENDBRANCH  24  25
ENDBRANCH  10  24
TORSDOF 7
ENDMDL
MODEL 5
REMARK VINA RESULT:      -9.5      4.701      8.780
REMARK  Name = CHEMBL24605
REMARK  8 active torsions:
REMARK  status: ('A' for Active; 'I' for Inactive)
REMARK    1  A    between atoms: C_1  and  C_2
REMARK    2  A    between atoms: N_4  and  C_5
REMARK    3  A    between atoms: C_7  and  C_8
REMARK    4  A    between atoms: N_20  and  C_21
REMARK    5  A    between atoms: C_21  and  C_22
REMARK    6  A    between atoms: N_24  and  C_25
REMARK    7  A    between atoms: C_25  and  C_26
REMARK    8  A    between atoms: C_26  and  C_27
REMARK                            x       y       z     vdW  Elec       q    Type
REMARK                         _______ _______ _______ _____ _____    ______ ____
ROOT
ATOM      1  C   UNL     1      -9.562   6.703 130.617  0.00  0.00    +0.000 C 
ATOM      2  N   UNL     1      -8.132   6.837 130.291  0.00  0.00    +0.000 NA
ATOM      3  C   UNL     1      -7.254   6.280 131.071  0.00  0.00    +0.000 C 
ATOM      4  C   UNL     1      -7.562   5.576 132.360  0.00  0.00    +0.000 A 
ATOM      5  C   UNL     1      -6.655   5.715 133.429  0.00  0.00    +0.000 A 
ATOM      6  C   UNL     1      -6.859   5.048 134.639  0.00  0.00    +0.000 A 
ATOM      7  C   UNL     1      -8.009   4.296 134.826  0.00  0.00    +0.000 A 
ATOM      8  C   UNL     1      -8.947   4.209 133.802  0.00  0.00    +0.000 A 
ATOM      9  C   UNL     1      -8.695   4.758 132.531  0.00  0.00    +0.000 A 
ATOM     10  N   UNL     1      -9.505   4.331 131.441  0.00  0.00    +0.000 N 
ATOM     11  C   UNL     1      -9.951   5.198 130.449  0.00  0.00    +0.000 C 
ATOM     12  O   UNL     1     -10.633   4.775 129.506  0.00  0.00    +0.000 OA
ENDROOT
BRANCH   3  13
ATOM     13  C   UNL     1      -5.809   6.383 130.664  0.00  0.00    +0.000 A 
ATOM     14  C   UNL     1      -5.126   5.220 130.292  0.00  0.00    +0.000 A 
ATOM     15  C   UNL     1      -3.747   5.257 130.069  0.00  0.00    +0.000 A 
ATOM     16  C   UNL     1      -3.062   6.471 130.122  0.00  0.00    +0.000 A 
ATOM     17  C   UNL     1      -3.762   7.653 130.368  0.00  0.00    +0.000 A 
ATOM     18  C   UNL     1      -5.127   7.607 130.682  0.00  0.00    +0.000 A 
ENDBRANCH   3  13
BRANCH   1  22
ATOM     19  C   UNL     1     -12.367   8.582 128.865  0.00  0.00    +0.000 C 
ATOM     20  C   UNL     1     -11.634   7.833 129.949  0.00  0.00    +0.000 C 
ATOM     21  O   UNL     1     -12.192   7.545 131.007  0.00  0.00    +0.000 OA
ATOM     22  N   UNL     1     -10.326   7.498 129.672  0.00  0.00    +0.000 N 
ATOM     23  H   UNL     1      -9.850   7.819 128.844  0.00  0.00    +0.000 HD
ENDBRANCH   1  22
BRANCH  10  24
ATOM     24  C   UNL     1      -9.888   2.912 131.296  0.00  0.00    +0.000 C 
BRANCH  24  25
ATOM     25  C   UNL     1      -8.909   1.958 130.589  0.00  0.00    +0.000 C 
ATOM     26  O   UNL     1      -8.582   2.074 129.400  0.00  0.00    +0.000 OA
ATOM     27  N   UNL     1      -8.396   0.913 131.322  0.00  0.00    +0.000 N 
ATOM     28  H   UNL     1      -8.933   0.529 132.092  0.00  0.00    +0.000 HD
BRANCH  27  29
ATOM     29  C   UNL     1      -7.331   0.148 130.701  0.00  0.00    +0.000 C 
BRANCH  29  30
ATOM     30  C   UNL     1      -7.544  -1.356 130.745  0.00  0.00    +0.000 C 
BRANCH  30  31
ATOM     31  C   UNL     1      -7.884  -1.890 129.374  0.00  0.00    +0.000 A 
ATOM     32  C   UNL     1      -8.413  -3.177 129.237  0.00  0.00    +0.000 A 
ATOM     33  C   UNL     1      -8.659  -3.707 127.971  0.00  0.00    +0.000 A 
ATOM     34  C   UNL     1      -8.276  -3.002 126.827  0.00  0.00    +0.000 A 
ATOM     35 CL   UNL     1      -8.438  -3.796 125.302  0.00  0.00    +0.000 Cl
ATOM     36  C   UNL     1      -7.753  -1.712 126.950  0.00  0.00    +0.000 A 
ATOM     37 CL   UNL     1      -7.204  -0.798 125.591  0.00  0.00    +0.000 Cl
ATOM     38  C   UNL     1      -7.621  -1.137 128.219  0.00  0.00    +0.000 A 
ENDBRANCH  30  31
ENDBRANCH  29  30
ENDBRANCH  27  29
ENDBRANCH  24  25
ENDBRANCH  10  24
TORSDOF 7
ENDMDL
MODEL 6
REMARK VINA RESULT:      -9.4      4.932      7.669
REMARK  Name = CHEMBL24605
REMARK  8 active torsions:
REMARK  status: ('A' for Active; 'I' for Inactive)
REMARK    1  A    between atoms: C_1  and  C_2
REMARK    2  A    between atoms: N_4  and  C_5
REMARK    3  A    between atoms: C_7  and  C_8
REMARK    4  A    between atoms: N_20  and  C_21
REMARK    5  A    between atoms: C_21  and  C_22
REMARK    6  A    between atoms: N_24  and  C_25
REMARK    7  A    between atoms: C_25  and  C_26
REMARK    8  A    between atoms: C_26  and  C_27
REMARK                            x       y       z     vdW  Elec       q    Type
REMARK                         _______ _______ _______ _____ _____    ______ ____
ROOT
ATOM      1  C   UNL     1      -7.754   2.240 127.970  0.00  0.00    +0.000 C 
ATOM      2  N   UNL     1      -7.580   0.954 127.275  0.00  0.00    +0.000 NA
ATOM      3  C   UNL     1      -7.025   0.944 126.099  0.00  0.00    +0.000 C 
ATOM      4  C   UNL     1      -6.621   2.161 125.321  0.00  0.00    +0.000 A 
ATOM      5  C   UNL     1      -6.786   2.143 123.921  0.00  0.00    +0.000 A 
ATOM      6  C   UNL     1      -6.387   3.225 123.135  0.00  0.00    +0.000 A 
ATOM      7  C   UNL     1      -5.888   4.370 123.738  0.00  0.00    +0.000 A 
ATOM      8  C   UNL     1      -5.787   4.427 125.125  0.00  0.00    +0.000 A 
ATOM      9  C   UNL     1      -6.054   3.300 125.924  0.00  0.00    +0.000 A 
ATOM     10  N   UNL     1      -5.590   3.304 127.269  0.00  0.00    +0.000 N 
ATOM     11  C   UNL     1      -6.333   2.787 128.325  0.00  0.00    +0.000 C 
ATOM     12  O   UNL     1      -5.877   2.792 129.476  0.00  0.00    +0.000 OA
ENDROOT
BRANCH   3  13
ATOM     13  C   UNL     1      -6.803  -0.398 125.455  0.00  0.00    +0.000 A 
ATOM     14  C   UNL     1      -5.507  -0.923 125.412  0.00  0.00    +0.000 A 
ATOM     15  C   UNL     1      -5.245  -2.083 124.678  0.00  0.00    +0.000 A 
ATOM     16  C   UNL     1      -6.289  -2.775 124.067  0.00  0.00    +0.000 A 
ATOM     17  C   UNL     1      -7.601  -2.325 124.214  0.00  0.00    +0.000 A 
ATOM     18  C   UNL     1      -7.858  -1.114 124.871  0.00  0.00    +0.000 A 
ENDBRANCH   3  13
BRANCH   1  22
ATOM     19  C   UNL     1      -9.896   2.696 131.080  0.00  0.00    +0.000 C 
ATOM     20  C   UNL     1      -9.243   3.015 129.759  0.00  0.00    +0.000 C 
ATOM     21  O   UNL     1      -9.383   4.119 129.234  0.00  0.00    +0.000 OA
ATOM     22  N   UNL     1      -8.491   2.005 129.199  0.00  0.00    +0.000 N 
ATOM     23  H   UNL     1      -8.460   1.075 129.587  0.00  0.00    +0.000 HD
ENDBRANCH   1  22
BRANCH  10  24
ATOM     24  C   UNL     1      -4.255   3.841 127.606  0.00  0.00    +0.000 C 
BRANCH  24  25
ATOM     25  C   UNL     1      -4.168   5.232 128.259  0.00  0.00    +0.000 C 
ATOM     26  O   UNL     1      -4.246   6.290 127.621  0.00  0.00    +0.000 OA
ATOM     27  N   UNL     1      -3.971   5.286 129.619  0.00  0.00    +0.000 N 
ATOM     28  H   UNL     1      -3.481   4.531 130.086  0.00  0.00    +0.000 HD
BRANCH  27  29
ATOM     29  C   UNL     1      -4.090   6.593 130.238  0.00  0.00    +0.000 C 
BRANCH  29  30
ATOM     30  C   UNL     1      -4.515   6.549 131.696  0.00  0.00    +0.000 C 
BRANCH  30  31
ATOM     31  C   UNL     1      -6.001   6.309 131.816  0.00  0.00    +0.000 A 
ATOM     32  C   UNL     1      -6.889   7.000 130.986  0.00  0.00    +0.000 A 
ATOM     33  C   UNL     1      -8.266   6.840 131.140  0.00  0.00    +0.000 A 
ATOM     34  C   UNL     1      -8.772   6.078 132.196  0.00  0.00    +0.000 A 
ATOM     35 CL   UNL     1     -10.483   6.078 132.438  0.00  0.00    +0.000 Cl
ATOM     36  C   UNL     1      -7.895   5.378 133.027  0.00  0.00    +0.000 A 
ATOM     37 CL   UNL     1      -8.438   4.460 134.387  0.00  0.00    +0.000 Cl
ATOM     38  C   UNL     1      -6.518   5.444 132.793  0.00  0.00    +0.000 A 
ENDBRANCH  30  31
ENDBRANCH  29  30
ENDBRANCH  27  29
ENDBRANCH  24  25
ENDBRANCH  10  24
TORSDOF 7
ENDMDL
MODEL 7
REMARK VINA RESULT:      -9.4      5.945      8.293
REMARK  Name = CHEMBL24605
REMARK  8 active torsions:
REMARK  status: ('A' for Active; 'I' for Inactive)
REMARK    1  A    between atoms: C_1  and  C_2
REMARK    2  A    between atoms: N_4  and  C_5
REMARK    3  A    between atoms: C_7  and  C_8
REMARK    4  A    between atoms: N_20  and  C_21
REMARK    5  A    between atoms: C_21  and  C_22
REMARK    6  A    between atoms: N_24  and  C_25
REMARK    7  A    between atoms: C_25  and  C_26
REMARK    8  A    between atoms: C_26  and  C_27
REMARK                            x       y       z     vdW  Elec       q    Type
REMARK                         _______ _______ _______ _____ _____    ______ ____
ROOT
ATOM      1  C   UNL     1     -10.148   5.696 130.837  0.00  0.00    +0.000 C 
ATOM      2  N   UNL     1      -9.265   6.009 131.973  0.00  0.00    +0.000 NA
ATOM      3  C   UNL     1      -8.509   5.071 132.460  0.00  0.00    +0.000 C 
ATOM      4  C   UNL     1      -8.521   3.635 132.025  0.00  0.00    +0.000 A 
ATOM      5  C   UNL     1      -8.333   2.640 133.006  0.00  0.00    +0.000 A 
ATOM      6  C   UNL     1      -8.287   1.287 132.660  0.00  0.00    +0.000 A 
ATOM      7  C   UNL     1      -8.503   0.904 131.345  0.00  0.00    +0.000 A 
ATOM      8  C   UNL     1      -8.761   1.873 130.380  0.00  0.00    +0.000 A 
ATOM      9  C   UNL     1      -8.676   3.245 130.681  0.00  0.00    +0.000 A 
ATOM     10  N   UNL     1      -8.586   4.167 129.601  0.00  0.00    +0.000 N 
ATOM     11  C   UNL     1      -9.244   5.392 129.599  0.00  0.00    +0.000 C 
ATOM     12  O   UNL     1      -9.116   6.172 128.645  0.00  0.00    +0.000 OA
ENDROOT
BRANCH   3  13
ATOM     13  C   UNL     1      -7.572   5.451 133.575  0.00  0.00    +0.000 A 
ATOM     14  C   UNL     1      -6.226   5.690 133.276  0.00  0.00    +0.000 A 
ATOM     15  C   UNL     1      -5.303   5.882 134.307  0.00  0.00    +0.000 A 
ATOM     16  C   UNL     1      -5.734   5.933 135.632  0.00  0.00    +0.000 A 
ATOM     17  C   UNL     1      -7.094   5.823 135.925  0.00  0.00    +0.000 A 
ATOM     18  C   UNL     1      -8.010   5.538 134.903  0.00  0.00    +0.000 A 
ENDBRANCH   3  13
BRANCH   1  22
ATOM     19  C   UNL     1     -12.802   8.033 129.437  0.00  0.00    +0.000 C 
ATOM     20  C   UNL     1     -12.075   6.748 129.743  0.00  0.00    +0.000 C 
ATOM     21  O   UNL     1     -12.464   5.676 129.283  0.00  0.00    +0.000 OA
ATOM     22  N   UNL     1     -10.966   6.862 130.552  0.00  0.00    +0.000 N 
ATOM     23  H   UNL     1     -10.710   7.728 131.001  0.00  0.00    +0.000 HD
ENDBRANCH   1  22
BRANCH  10  24
ATOM     24  C   UNL     1      -7.747   3.869 128.421  0.00  0.00    +0.000 C 
BRANCH  24  25
ATOM     25  C   UNL     1      -6.220   3.993 128.560  0.00  0.00    +0.000 C 
ATOM     26  O   UNL     1      -5.587   3.571 129.537  0.00  0.00    +0.000 OA
ATOM     27  N   UNL     1      -5.537   4.630 127.550  0.00  0.00    +0.000 N 
ATOM     28  H   UNL     1      -6.006   5.341 126.998  0.00  0.00    +0.000 HD
BRANCH  27  29
ATOM     29  C   UNL     1      -4.089   4.562 127.604  0.00  0.00    +0.000 C 
BRANCH  29  30
ATOM     30  C   UNL     1      -3.412   5.917 127.724  0.00  0.00    +0.000 C 
BRANCH  30  31
ATOM     31  C   UNL     1      -3.299   6.334 129.171  0.00  0.00    +0.000 A 
ATOM     32  C   UNL     1      -3.789   7.578 129.580  0.00  0.00    +0.000 A 
ATOM     33  C   UNL     1      -3.622   8.002 130.898  0.00  0.00    +0.000 A 
ATOM     34  C   UNL     1      -2.865   7.240 131.792  0.00  0.00    +0.000 A 
ATOM     35 CL   UNL     1      -2.541   7.915 133.349  0.00  0.00    +0.000 Cl
ATOM     36  C   UNL     1      -2.376   5.992 131.397  0.00  0.00    +0.000 A 
ATOM     37 CL   UNL     1      -1.386   5.016 132.423  0.00  0.00    +0.000 Cl
ATOM     38  C   UNL     1      -2.650   5.517 130.111  0.00  0.00    +0.000 A 
ENDBRANCH  30  31
ENDBRANCH  29  30
ENDBRANCH  27  29
ENDBRANCH  24  25
ENDBRANCH  10  24
TORSDOF 7
ENDMDL
MODEL 8
REMARK VINA RESULT:      -9.3      4.887      8.294
REMARK  Name = CHEMBL24605
REMARK  8 active torsions:
REMARK  status: ('A' for Active; 'I' for Inactive)
REMARK    1  A    between atoms: C_1  and  C_2
REMARK    2  A    between atoms: N_4  and  C_5
REMARK    3  A    between atoms: C_7  and  C_8
REMARK    4  A    between atoms: N_20  and  C_21
REMARK    5  A    between atoms: C_21  and  C_22
REMARK    6  A    between atoms: N_24  and  C_25
REMARK    7  A    between atoms: C_25  and  C_26
REMARK    8  A    between atoms: C_26  and  C_27
REMARK                            x       y       z     vdW  Elec       q    Type
REMARK                         _______ _______ _______ _____ _____    ______ ____
ROOT
ATOM      1  C   UNL     1      -9.320   6.835 130.563  0.00  0.00    +0.000 C 
ATOM      2  N   UNL     1      -7.869   7.000 130.376  0.00  0.00    +0.000 NA
ATOM      3  C   UNL     1      -7.057   6.432 131.218  0.00  0.00    +0.000 C 
ATOM      4  C   UNL     1      -7.471   5.685 132.451  0.00  0.00    +0.000 A 
ATOM      5  C   UNL     1      -6.670   5.804 133.605  0.00  0.00    +0.000 A 
ATOM      6  C   UNL     1      -6.974   5.097 134.770  0.00  0.00    +0.000 A 
ATOM      7  C   UNL     1      -8.122   4.323 134.826  0.00  0.00    +0.000 A 
ATOM      8  C   UNL     1      -8.960   4.254 133.717  0.00  0.00    +0.000 A 
ATOM      9  C   UNL     1      -8.601   4.845 132.492  0.00  0.00    +0.000 A 
ATOM     10  N   UNL     1      -9.298   4.441 131.320  0.00  0.00    +0.000 N 
ATOM     11  C   UNL     1      -9.665   5.331 130.316  0.00  0.00    +0.000 C 
ATOM     12  O   UNL     1     -10.250   4.927 129.302  0.00  0.00    +0.000 OA
ENDROOT
BRANCH   3  13
ATOM     13  C   UNL     1      -5.582   6.568 130.951  0.00  0.00    +0.000 A 
ATOM     14  C   UNL     1      -4.757   5.452 131.123  0.00  0.00    +0.000 A 
ATOM     15  C   UNL     1      -3.369   5.587 131.043  0.00  0.00    +0.000 A 
ATOM     16  C   UNL     1      -2.804   6.814 130.697  0.00  0.00    +0.000 A 
ATOM     17  C   UNL     1      -3.629   7.899 130.400  0.00  0.00    +0.000 A 
ATOM     18  C   UNL     1      -5.016   7.792 130.568  0.00  0.00    +0.000 A 
ENDBRANCH   3  13
BRANCH   1  22
ATOM     19  C   UNL     1     -11.989   8.691 128.589  0.00  0.00    +0.000 C 
ATOM     20  C   UNL     1     -11.352   7.916 129.714  0.00  0.00    +0.000 C 
ATOM     21  O   UNL     1     -12.012   7.552 130.686  0.00  0.00    +0.000 OA
ATOM     22  N   UNL     1     -10.007   7.647 129.575  0.00  0.00    +0.000 N 
ATOM     23  H   UNL     1      -9.455   8.030 128.823  0.00  0.00    +0.000 HD
ENDBRANCH   1  22
BRANCH  10  24
ATOM     24  C   UNL     1      -9.642   3.021 131.098  0.00  0.00    +0.000 C 
BRANCH  24  25
ATOM     25  C   UNL     1      -8.639   2.135 130.337  0.00  0.00    +0.000 C 
ATOM     26  O   UNL     1      -7.719   1.518 130.890  0.00  0.00    +0.000 OA
ATOM     27  N   UNL     1      -8.769   2.054 128.971  0.00  0.00    +0.000 N 
ATOM     28  H   UNL     1      -9.174   2.829 128.458  0.00  0.00    +0.000 HD
BRANCH  27  29
ATOM     29  C   UNL     1      -7.944   1.065 128.300  0.00  0.00    +0.000 C 
BRANCH  29  30
ATOM     30  C   UNL     1      -8.461   0.656 126.931  0.00  0.00    +0.000 C 
BRANCH  30  31
ATOM     31  C   UNL     1      -7.598  -0.430 126.334  0.00  0.00    +0.000 A 
ATOM     32  C   UNL     1      -6.266  -0.162 126.005  0.00  0.00    +0.000 A 
ATOM     33  C   UNL     1      -5.484  -1.136 125.385  0.00  0.00    +0.000 A 
ATOM     34  C   UNL     1      -6.055  -2.347 124.985  0.00  0.00    +0.000 A 
ATOM     35 CL   UNL     1      -5.078  -3.428 124.056  0.00  0.00    +0.000 Cl
ATOM     36  C   UNL     1      -7.383  -2.629 125.314  0.00  0.00    +0.000 A 
ATOM     37 CL   UNL     1      -8.178  -4.077 124.808  0.00  0.00    +0.000 Cl
ATOM     38  C   UNL     1      -8.128  -1.697 126.044  0.00  0.00    +0.000 A 
ENDBRANCH  30  31
ENDBRANCH  29  30
ENDBRANCH  27  29
ENDBRANCH  24  25
ENDBRANCH  10  24
TORSDOF 7
ENDMDL
MODEL 9
REMARK VINA RESULT:      -9.1      4.177      7.734
REMARK  Name = CHEMBL24605
REMARK  8 active torsions:
REMARK  status: ('A' for Active; 'I' for Inactive)
REMARK    1  A    between atoms: C_1  and  C_2
REMARK    2  A    between atoms: N_4  and  C_5
REMARK    3  A    between atoms: C_7  and  C_8
REMARK    4  A    between atoms: N_20  and  C_21
REMARK    5  A    between atoms: C_21  and  C_22
REMARK    6  A    between atoms: N_24  and  C_25
REMARK    7  A    between atoms: C_25  and  C_26
REMARK    8  A    between atoms: C_26  and  C_27
REMARK                            x       y       z     vdW  Elec       q    Type
REMARK                         _______ _______ _______ _____ _____    ______ ____
ROOT
ATOM      1  C   UNL     1      -9.707   6.700 130.638  0.00  0.00    +0.000 C 
ATOM      2  N   UNL     1      -8.288   6.822 130.265  0.00  0.00    +0.000 NA
ATOM      3  C   UNL     1      -7.388   6.264 131.020  0.00  0.00    +0.000 C 
ATOM      4  C   UNL     1      -7.659   5.571 132.322  0.00  0.00    +0.000 A 
ATOM      5  C   UNL     1      -6.716   5.710 133.361  0.00  0.00    +0.000 A 
ATOM      6  C   UNL     1      -6.886   5.052 134.581  0.00  0.00    +0.000 A 
ATOM      7  C   UNL     1      -8.034   4.309 134.810  0.00  0.00    +0.000 A 
ATOM      8  C   UNL     1      -9.006   4.222 133.818  0.00  0.00    +0.000 A 
ATOM      9  C   UNL     1      -8.791   4.762 132.536  0.00  0.00    +0.000 A 
ATOM     10  N   UNL     1      -9.639   4.334 131.476  0.00  0.00    +0.000 N 
ATOM     11  C   UNL     1     -10.111   5.197 130.493  0.00  0.00    +0.000 C 
ATOM     12  O   UNL     1     -10.827   4.773 129.576  0.00  0.00    +0.000 OA
ENDROOT
BRANCH   3  13
ATOM     13  C   UNL     1      -5.957   6.354 130.565  0.00  0.00    +0.000 A 
ATOM     14  C   UNL     1      -5.293   7.582 130.659  0.00  0.00    +0.000 A 
ATOM     15  C   UNL     1      -4.023   7.737 130.095  0.00  0.00    +0.000 A 
ATOM     16  C   UNL     1      -3.373   6.644 129.524  0.00  0.00    +0.000 A 
ATOM     17  C   UNL     1      -3.979   5.388 129.542  0.00  0.00    +0.000 A 
ATOM     18  C   UNL     1      -5.288   5.247 130.023  0.00  0.00    +0.000 A 
ENDBRANCH   3  13
BRANCH   1  22
ATOM     19  C   UNL     1     -12.554   8.590 128.968  0.00  0.00    +0.000 C 
ATOM     20  C   UNL     1     -11.792   7.842 130.032  0.00  0.00    +0.000 C 
ATOM     21  O   UNL     1     -12.316   7.567 131.110  0.00  0.00    +0.000 OA
ATOM     22  N   UNL     1     -10.497   7.495 129.713  0.00  0.00    +0.000 N 
ATOM     23  H   UNL     1     -10.046   7.806 128.867  0.00  0.00    +0.000 HD
ENDBRANCH   1  22
BRANCH  10  24
ATOM     24  C   UNL     1     -10.037   2.916 131.352  0.00  0.00    +0.000 C 
BRANCH  24  25
ATOM     25  C   UNL     1      -9.076   1.945 130.644  0.00  0.00    +0.000 C 
ATOM     26  O   UNL     1      -8.747   0.848 131.114  0.00  0.00    +0.000 OA
ATOM     27  N   UNL     1      -8.544   2.341 129.439  0.00  0.00    +0.000 N 
ATOM     28  H   UNL     1      -8.421   3.329 129.244  0.00  0.00    +0.000 HD
BRANCH  27  29
ATOM     29  C   UNL     1      -7.802   1.337 128.699  0.00  0.00    +0.000 C 
BRANCH  29  30
ATOM     30  C   UNL     1      -6.329   1.666 128.518  0.00  0.00    +0.000 C 
BRANCH  30  31
ATOM     31  C   UNL     1      -6.075   2.252 127.150  0.00  0.00    +0.000 A 
ATOM     32  C   UNL     1      -4.864   2.897 126.880  0.00  0.00    +0.000 A 
ATOM     33  C   UNL     1      -4.650   3.506 125.643  0.00  0.00    +0.000 A 
ATOM     34  C   UNL     1      -5.684   3.576 124.706  0.00  0.00    +0.000 A 
ATOM     35 CL   UNL     1      -5.410   4.506 123.277  0.00  0.00    +0.000 Cl
ATOM     36  C   UNL     1      -6.895   2.929 124.960  0.00  0.00    +0.000 A 
ATOM     37 CL   UNL     1      -8.239   3.015 123.878  0.00  0.00    +0.000 Cl
ATOM     38  C   UNL     1      -7.062   2.215 126.152  0.00  0.00    +0.000 A 
ENDBRANCH  30  31
ENDBRANCH  29  30
ENDBRANCH  27  29
ENDBRANCH  24  25
ENDBRANCH  10  24
TORSDOF 7
ENDMDL
