MODEL 1
REMARK VINA RESULT:      -9.2      0.000      0.000
REMARK  Name = CHEMBL4215696
REMARK  4 active torsions:
REMARK  status: ('A' for Active; 'I' for Inactive)
REMARK    1  A    between atoms: C_1  and  C_2
REMARK    2  A    between atoms: N_5  and  C_6
REMARK    3  A    between atoms: C_9  and  C_10
REMARK    4  A    between atoms: C_16  and  O_17
REMARK                            x       y       z     vdW  Elec       q    Type
REMARK                         _______ _______ _______ _____ _____    ______ ____
ROOT
ATOM      1  C   UNL     1      -3.827   3.674 128.025  0.00  0.00    +0.000 C 
ATOM      2  O   UNL     1      -2.887   3.104 127.274  0.00  0.00    +0.000 OA
ATOM      3  N   UNL     1      -3.388   4.340 129.839  0.00  0.00    +0.000 N 
ATOM      4  C   UNL     1      -2.788   4.840 128.669  0.00  0.00    +0.000 C 
ATOM      5  C   UNL     1      -3.541   6.027 129.045  0.00  0.00    +0.000 C 
ATOM      6  C   UNL     1      -2.401   6.282 129.941  0.00  0.00    +0.000 C 
ATOM      7  C   UNL     1      -3.169   7.171 130.990  0.00  0.00    +0.000 C 
ATOM      8  C   UNL     1      -2.182   6.763 131.904  0.00  0.00    +0.000 A 
ATOM      9  C   UNL     1      -1.459   8.288 132.585  0.00  0.00    +0.000 A 
ATOM     10  C   UNL     1      -0.382   8.396 133.423  0.00  0.00    +0.000 A 
ATOM     11  C   UNL     1      -0.252   7.063 133.714  0.00  0.00    +0.000 A 
ATOM     12  C   UNL     1      -1.149   5.668 132.817  0.00  0.00    +0.000 A 
ATOM     13  C   UNL     1      -2.449   5.029 131.633  0.00  0.00    +0.000 A 
ENDROOT
BRANCH   1  17
ATOM     14  C   UNL     1      -6.511   3.332 122.992  0.00  0.00    +0.000 A 
ATOM     15  C   UNL     1      -6.744   2.359 123.938  0.00  0.00    +0.000 A 
ATOM     16  C   UNL     1      -5.948   2.440 125.448  0.00  0.00    +0.000 A 
ATOM     17  C   UNL     1      -4.770   3.481 126.209  0.00  0.00    +0.000 A 
ATOM     18  C   UNL     1      -4.726   4.199 124.920  0.00  0.00    +0.000 A 
ATOM     19  C   UNL     1      -5.506   4.189 123.437  0.00  0.00    +0.000 A 
BRANCH  14  24
ATOM     20  C   UNL     1      -7.509   4.542 118.327  0.00  0.00    +0.000 C 
ATOM     21  C   UNL     1      -7.699   4.120 119.741  0.00  0.00    +0.000 A 
ATOM     22  C   UNL     1      -8.927   3.770 120.323  0.00  0.00    +0.000 A 
ATOM     23  C   UNL     1      -8.621   3.412 121.612  0.00  0.00    +0.000 A 
ATOM     24  N   UNL     1      -7.257   3.556 121.775  0.00  0.00    +0.000 N 
ATOM     25  N   UNL     1      -6.689   4.053 120.631  0.00  0.00    +0.000 NA
ENDBRANCH  14  24
ENDBRANCH   1  17
BRANCH   7  26
ATOM     26  O   UNL     1      -4.320   6.837 131.802  0.00  0.00    +0.000 OA
ATOM     27  H   UNL     1      -5.179   6.906 131.316  0.00  0.00    +0.000 HD
ENDBRANCH   7  26
TORSDOF 3
ENDMDL
MODEL 2
REMARK VINA RESULT:      -8.7      3.379     10.903
REMARK  Name = CHEMBL4215696
REMARK  4 active torsions:
REMARK  status: ('A' for Active; 'I' for Inactive)
REMARK    1  A    between atoms: C_1  and  C_2
REMARK    2  A    between atoms: N_5  and  C_6
REMARK    3  A    between atoms: C_9  and  C_10
REMARK    4  A    between atoms: C_16  and  O_17
REMARK                            x       y       z     vdW  Elec       q    Type
REMARK                         _______ _______ _______ _____ _____    ______ ____
ROOT
ATOM      1  C   UNL     1      -4.606   2.790 126.302  0.00  0.00    +0.000 C 
ATOM      2  O   UNL     1      -3.328   2.431 126.200  0.00  0.00    +0.000 OA
ATOM      3  N   UNL     1      -6.008   1.775 125.339  0.00  0.00    +0.000 N 
ATOM      4  C   UNL     1      -5.183   1.202 126.324  0.00  0.00    +0.000 C 
ATOM      5  C   UNL     1      -6.447   1.140 127.043  0.00  0.00    +0.000 C 
ATOM      6  C   UNL     1      -6.658  -0.091 126.263  0.00  0.00    +0.000 C 
ATOM      7  C   UNL     1      -8.231  -0.094 126.318  0.00  0.00    +0.000 C 
ATOM      8  C   UNL     1      -8.168  -0.850 125.134  0.00  0.00    +0.000 A 
ATOM      9  C   UNL     1      -9.118  -2.369 125.451  0.00  0.00    +0.000 A 
ATOM     10  C   UNL     1      -9.238  -3.461 124.633  0.00  0.00    +0.000 A 
ATOM     11  C   UNL     1      -8.654  -2.912 123.521  0.00  0.00    +0.000 A 
ATOM     12  C   UNL     1      -7.710  -1.280 123.489  0.00  0.00    +0.000 A 
ATOM     13  C   UNL     1      -7.170   0.335 124.265  0.00  0.00    +0.000 A 
ENDROOT
BRANCH   1  17
ATOM     14  C   UNL     1      -2.264   6.093 130.335  0.00  0.00    +0.000 A 
ATOM     15  C   UNL     1      -2.100   6.439 129.013  0.00  0.00    +0.000 A 
ATOM     16  C   UNL     1      -2.789   5.463 127.791  0.00  0.00    +0.000 A 
ATOM     17  C   UNL     1      -3.699   3.974 127.717  0.00  0.00    +0.000 A 
ATOM     18  C   UNL     1      -3.526   3.916 129.181  0.00  0.00    +0.000 A 
ATOM     19  C   UNL     1      -2.903   4.857 130.422  0.00  0.00    +0.000 A 
BRANCH  14  24
ATOM     20  C   UNL     1       0.206   8.012 134.135  0.00  0.00    +0.000 C 
ATOM     21  C   UNL     1      -0.894   7.723 133.175  0.00  0.00    +0.000 A 
ATOM     22  C   UNL     1      -2.164   8.319 133.197  0.00  0.00    +0.000 A 
ATOM     23  C   UNL     1      -2.825   7.789 132.116  0.00  0.00    +0.000 A 
ATOM     24  N   UNL     1      -1.965   6.908 131.490  0.00  0.00    +0.000 N 
ATOM     25  N   UNL     1      -0.785   6.820 132.181  0.00  0.00    +0.000 NA
ENDBRANCH  14  24
ENDBRANCH   1  17
BRANCH   7  26
ATOM     26  O   UNL     1      -9.163   0.909 125.845  0.00  0.00    +0.000 OA
ATOM     27  H   UNL     1      -9.779   0.576 125.146  0.00  0.00    +0.000 HD
ENDBRANCH   7  26
TORSDOF 3
ENDMDL
MODEL 3
REMARK VINA RESULT:      -8.6      6.093     11.410
REMARK  Name = CHEMBL4215696
REMARK  4 active torsions:
REMARK  status: ('A' for Active; 'I' for Inactive)
REMARK    1  A    between atoms: C_1  and  C_2
REMARK    2  A    between atoms: N_5  and  C_6
REMARK    3  A    between atoms: C_9  and  C_10
REMARK    4  A    between atoms: C_16  and  O_17
REMARK                            x       y       z     vdW  Elec       q    Type
REMARK                         _______ _______ _______ _____ _____    ______ ____
ROOT
ATOM      1  C   UNL     1      -5.703   0.532 126.242  0.00  0.00    +0.000 C 
ATOM      2  O   UNL     1      -4.994  -0.544 125.909  0.00  0.00    +0.000 OA
ATOM      3  N   UNL     1      -5.981   1.991 124.931  0.00  0.00    +0.000 N 
ATOM      4  C   UNL     1      -6.438   0.676 124.728  0.00  0.00    +0.000 C 
ATOM      5  C   UNL     1      -7.730   1.332 124.860  0.00  0.00    +0.000 C 
ATOM      6  C   UNL     1      -7.538   1.665 123.439  0.00  0.00    +0.000 C 
ATOM      7  C   UNL     1      -8.464   2.937 123.406  0.00  0.00    +0.000 C 
ATOM      8  C   UNL     1      -7.682   3.353 122.314  0.00  0.00    +0.000 A 
ATOM      9  C   UNL     1      -8.842   3.664 120.947  0.00  0.00    +0.000 A 
ATOM     10  C   UNL     1      -8.534   3.970 119.649  0.00  0.00    +0.000 A 
ATOM     11  C   UNL     1      -7.193   4.182 119.832  0.00  0.00    +0.000 A 
ATOM     12  C   UNL     1      -6.233   3.748 121.396  0.00  0.00    +0.000 A 
ATOM     13  C   UNL     1      -6.142   3.223 123.190  0.00  0.00    +0.000 A 
ENDROOT
BRANCH   1  17
ATOM     14  C   UNL     1      -6.376  -2.943 130.729  0.00  0.00    +0.000 A 
ATOM     15  C   UNL     1      -6.934  -3.299 129.522  0.00  0.00    +0.000 A 
ATOM     16  C   UNL     1      -6.748  -2.272 128.169  0.00  0.00    +0.000 A 
ATOM     17  C   UNL     1      -6.018  -0.719 127.843  0.00  0.00    +0.000 A 
ATOM     18  C   UNL     1      -5.712  -0.676 129.286  0.00  0.00    +0.000 A 
ATOM     19  C   UNL     1      -5.832  -1.663 130.637  0.00  0.00    +0.000 A 
BRANCH  14  24
ATOM     20  C   UNL     1      -7.078  -4.745 135.255  0.00  0.00    +0.000 C 
ATOM     21  C   UNL     1      -6.512  -4.546 133.893  0.00  0.00    +0.000 A 
ATOM     22  C   UNL     1      -5.475  -5.305 133.330  0.00  0.00    +0.000 A 
ATOM     23  C   UNL     1      -5.315  -4.803 132.062  0.00  0.00    +0.000 A 
ATOM     24  N   UNL     1      -6.227  -3.779 131.898  0.00  0.00    +0.000 N 
ATOM     25  N   UNL     1      -6.932  -3.578 133.055  0.00  0.00    +0.000 NA
ENDBRANCH  14  24
ENDBRANCH   1  17
BRANCH   7  26
ATOM     26  O   UNL     1      -8.366   4.159 124.177  0.00  0.00    +0.000 OA
ATOM     27  H   UNL     1      -8.674   4.961 123.686  0.00  0.00    +0.000 HD
ENDBRANCH   7  26
TORSDOF 3
ENDMDL
MODEL 4
REMARK VINA RESULT:      -8.5      7.698      9.591
REMARK  Name = CHEMBL4215696
REMARK  4 active torsions:
REMARK  status: ('A' for Active; 'I' for Inactive)
REMARK    1  A    between atoms: C_1  and  C_2
REMARK    2  A    between atoms: N_5  and  C_6
REMARK    3  A    between atoms: C_9  and  C_10
REMARK    4  A    between atoms: C_16  and  O_17
REMARK                            x       y       z     vdW  Elec       q    Type
REMARK                         _______ _______ _______ _____ _____    ______ ____
ROOT
ATOM      1  C   UNL     1      -7.859   2.456 131.079  0.00  0.00    +0.000 C 
ATOM      2  O   UNL     1      -8.546   2.716 132.189  0.00  0.00    +0.000 OA
ATOM      3  N   UNL     1      -6.572   0.951 131.030  0.00  0.00    +0.000 N 
ATOM      4  C   UNL     1      -7.949   0.779 131.260  0.00  0.00    +0.000 C 
ATOM      5  C   UNL     1      -7.870   0.131 129.960  0.00  0.00    +0.000 C 
ATOM      6  C   UNL     1      -7.422  -1.036 130.737  0.00  0.00    +0.000 C 
ATOM      7  C   UNL     1      -6.625  -1.749 129.582  0.00  0.00    +0.000 C 
ATOM      8  C   UNL     1      -5.881  -2.357 130.609  0.00  0.00    +0.000 A 
ATOM      9  C   UNL     1      -5.995  -4.151 130.325  0.00  0.00    +0.000 A 
ATOM     10  C   UNL     1      -5.532  -5.152 131.136  0.00  0.00    +0.000 A 
ATOM     11  C   UNL     1      -4.811  -4.363 131.994  0.00  0.00    +0.000 A 
ATOM     12  C   UNL     1      -4.899  -2.481 132.064  0.00  0.00    +0.000 A 
ATOM     13  C   UNL     1      -5.427  -0.822 131.378  0.00  0.00    +0.000 A 
ENDROOT
BRANCH   1  17
ATOM     14  C   UNL     1     -11.504   6.540 129.435  0.00  0.00    +0.000 A 
ATOM     15  C   UNL     1     -12.007   5.346 129.901  0.00  0.00    +0.000 A 
ATOM     16  C   UNL     1     -10.935   4.110 130.393  0.00  0.00    +0.000 A 
ATOM     17  C   UNL     1      -9.204   3.875 130.445  0.00  0.00    +0.000 A 
ATOM     18  C   UNL     1      -9.110   5.198 129.797  0.00  0.00    +0.000 A 
ATOM     19  C   UNL     1     -10.116   6.457 129.334  0.00  0.00    +0.000 A 
BRANCH  14  24
ATOM     20  C   UNL     1     -13.443  10.996 130.211  0.00  0.00    +0.000 C 
ATOM     21  C   UNL     1     -13.116   9.699 129.559  0.00  0.00    +0.000 A 
ATOM     22  C   UNL     1     -13.558   9.299 128.288  0.00  0.00    +0.000 A 
ATOM     23  C   UNL     1     -12.986   8.068 128.083  0.00  0.00    +0.000 A 
ATOM     24  N   UNL     1     -12.239   7.761 129.204  0.00  0.00    +0.000 N 
ATOM     25  N   UNL     1     -12.367   8.747 130.147  0.00  0.00    +0.000 NA
ENDBRANCH  14  24
ENDBRANCH   1  17
BRANCH   7  26
ATOM     26  O   UNL     1      -5.502  -1.259 128.809  0.00  0.00    +0.000 OA
ATOM     27  H   UNL     1      -5.203  -0.356 129.078  0.00  0.00    +0.000 HD
ENDBRANCH   7  26
TORSDOF 3
ENDMDL
MODEL 5
REMARK VINA RESULT:      -8.2      6.956      8.156
REMARK  Name = CHEMBL4215696
REMARK  4 active torsions:
REMARK  status: ('A' for Active; 'I' for Inactive)
REMARK    1  A    between atoms: C_1  and  C_2
REMARK    2  A    between atoms: N_5  and  C_6
REMARK    3  A    between atoms: C_9  and  C_10
REMARK    4  A    between atoms: C_16  and  O_17
REMARK                            x       y       z     vdW  Elec       q    Type
REMARK                         _______ _______ _______ _____ _____    ______ ____
ROOT
ATOM      1  C   UNL     1      -7.603  -2.191 128.927  0.00  0.00    +0.000 C 
ATOM      2  O   UNL     1      -8.183  -3.064 128.107  0.00  0.00    +0.000 OA
ATOM      3  N   UNL     1      -6.958  -2.771 130.708  0.00  0.00    +0.000 N 
ATOM      4  C   UNL     1      -6.459  -3.294 129.502  0.00  0.00    +0.000 C 
ATOM      5  C   UNL     1      -5.262  -2.592 129.937  0.00  0.00    +0.000 C 
ATOM      6  C   UNL     1      -5.034  -3.797 130.752  0.00  0.00    +0.000 C 
ATOM      7  C   UNL     1      -4.139  -3.122 131.857  0.00  0.00    +0.000 C 
ATOM      8  C   UNL     1      -4.570  -4.165 132.697  0.00  0.00    +0.000 A 
ATOM      9  C   UNL     1      -3.063  -4.961 133.333  0.00  0.00    +0.000 A 
ATOM     10  C   UNL     1      -2.980  -6.097 134.093  0.00  0.00    +0.000 A 
ATOM     11  C   UNL     1      -4.318  -6.224 134.366  0.00  0.00    +0.000 A 
ATOM     12  C   UNL     1      -5.690  -5.240 133.527  0.00  0.00    +0.000 A 
ATOM     13  C   UNL     1      -6.298  -3.847 132.435  0.00  0.00    +0.000 A 
ENDROOT
BRANCH   1  17
ATOM     14  C   UNL     1      -7.938   0.938 124.157  0.00  0.00    +0.000 A 
ATOM     15  C   UNL     1      -9.099   0.471 124.730  0.00  0.00    +0.000 A 
ATOM     16  C   UNL     1      -9.021  -0.470 126.154  0.00  0.00    +0.000 A 
ATOM     17  C   UNL     1      -7.766  -1.118 127.182  0.00  0.00    +0.000 A 
ATOM     18  C   UNL     1      -6.817  -0.545 126.207  0.00  0.00    +0.000 A 
ATOM     19  C   UNL     1      -6.836   0.412 124.831  0.00  0.00    +0.000 A 
BRANCH  14  24
ATOM     20  C   UNL     1      -5.912   4.100 120.975  0.00  0.00    +0.000 C 
ATOM     21  C   UNL     1      -6.935   3.336 121.740  0.00  0.00    +0.000 A 
ATOM     22  C   UNL     1      -8.323   3.443 121.563  0.00  0.00    +0.000 A 
ATOM     23  C   UNL     1      -8.865   2.535 122.439  0.00  0.00    +0.000 A 
ATOM     24  N   UNL     1      -7.822   1.926 123.110  0.00  0.00    +0.000 N 
ATOM     25  N   UNL     1      -6.624   2.465 122.719  0.00  0.00    +0.000 NA
ENDBRANCH  14  24
ENDBRANCH   1  17
BRANCH   7  26
ATOM     26  O   UNL     1      -4.458  -2.026 132.748  0.00  0.00    +0.000 OA
ATOM     27  H   UNL     1      -4.272  -1.136 132.360  0.00  0.00    +0.000 HD
ENDBRANCH   7  26
TORSDOF 3
ENDMDL
MODEL 6
REMARK VINA RESULT:      -7.9      5.870     11.214
REMARK  Name = CHEMBL4215696
REMARK  4 active torsions:
REMARK  status: ('A' for Active; 'I' for Inactive)
REMARK    1  A    between atoms: C_1  and  C_2
REMARK    2  A    between atoms: N_5  and  C_6
REMARK    3  A    between atoms: C_9  and  C_10
REMARK    4  A    between atoms: C_16  and  O_17
REMARK                            x       y       z     vdW  Elec       q    Type
REMARK                         _______ _______ _______ _____ _____    ______ ____
ROOT
ATOM      1  C   UNL     1      -4.788   1.222 131.444  0.00  0.00    +0.000 C 
ATOM      2  O   UNL     1      -5.615   1.991 132.150  0.00  0.00    +0.000 OA
ATOM      3  N   UNL     1      -5.418  -0.504 130.703  0.00  0.00    +0.000 N 
ATOM      4  C   UNL     1      -5.974   0.737 130.342  0.00  0.00    +0.000 C 
ATOM      5  C   UNL     1      -5.362   0.401 129.066  0.00  0.00    +0.000 C 
ATOM      6  C   UNL     1      -6.583  -0.397 128.862  0.00  0.00    +0.000 C 
ATOM      7  C   UNL     1      -5.978  -1.425 127.835  0.00  0.00    +0.000 C 
ATOM      8  C   UNL     1      -6.988  -2.300 128.273  0.00  0.00    +0.000 A 
ATOM      9  C   UNL     1      -7.895  -2.817 126.783  0.00  0.00    +0.000 A 
ATOM     10  C   UNL     1      -9.035  -3.572 126.723  0.00  0.00    +0.000 A 
ATOM     11  C   UNL     1      -9.064  -3.951 128.040  0.00  0.00    +0.000 A 
ATOM     12  C   UNL     1      -7.980  -3.221 129.399  0.00  0.00    +0.000 A 
ATOM     13  C   UNL     1      -6.543  -2.176 129.988  0.00  0.00    +0.000 A 
ENDROOT
BRANCH   1  17
ATOM     14  C   UNL     1      -1.872   6.073 132.236  0.00  0.00    +0.000 A 
ATOM     15  C   UNL     1      -2.461   5.842 131.013  0.00  0.00    +0.000 A 
ATOM     16  C   UNL     1      -3.334   4.396 130.754  0.00  0.00    +0.000 A 
ATOM     17  C   UNL     1      -3.702   2.953 131.667  0.00  0.00    +0.000 A 
ATOM     18  C   UNL     1      -2.847   3.529 132.723  0.00  0.00    +0.000 A 
ATOM     19  C   UNL     1      -2.010   4.946 133.044  0.00  0.00    +0.000 A 
BRANCH  14  24
ATOM     20  C   UNL     1      -1.516  10.827 133.461  0.00  0.00    +0.000 C 
ATOM     21  C   UNL     1      -1.145   9.408 133.211  0.00  0.00    +0.000 A 
ATOM     22  C   UNL     1       0.125   8.853 133.434  0.00  0.00    +0.000 A 
ATOM     23  C   UNL     1      -0.005   7.525 133.112  0.00  0.00    +0.000 A 
ATOM     24  N   UNL     1      -1.309   7.317 132.708  0.00  0.00    +0.000 N 
ATOM     25  N   UNL     1      -2.005   8.498 132.712  0.00  0.00    +0.000 NA
ENDBRANCH  14  24
ENDBRANCH   1  17
BRANCH   7  26
ATOM     26  O   UNL     1      -4.864  -2.335 128.000  0.00  0.00    +0.000 OA
ATOM     27  H   UNL     1      -4.951  -3.166 127.470  0.00  0.00    +0.000 HD
ENDBRANCH   7  26
TORSDOF 3
ENDMDL
MODEL 7
REMARK VINA RESULT:      -7.9      3.427     10.986
REMARK  Name = CHEMBL4215696
REMARK  4 active torsions:
REMARK  status: ('A' for Active; 'I' for Inactive)
REMARK    1  A    between atoms: C_1  and  C_2
REMARK    2  A    between atoms: N_5  and  C_6
REMARK    3  A    between atoms: C_9  and  C_10
REMARK    4  A    between atoms: C_16  and  O_17
REMARK                            x       y       z     vdW  Elec       q    Type
REMARK                         _______ _______ _______ _____ _____    ______ ____
ROOT
ATOM      1  C   UNL     1      -5.304   4.419 127.881  0.00  0.00    +0.000 C 
ATOM      2  O   UNL     1      -4.881   5.437 127.135  0.00  0.00    +0.000 OA
ATOM      3  N   UNL     1      -6.230   2.882 127.041  0.00  0.00    +0.000 N 
ATOM      4  C   UNL     1      -4.905   3.245 126.734  0.00  0.00    +0.000 C 
ATOM      5  C   UNL     1      -4.630   1.977 127.393  0.00  0.00    +0.000 C 
ATOM      6  C   UNL     1      -4.955   1.396 126.080  0.00  0.00    +0.000 C 
ATOM      7  C   UNL     1      -5.384  -0.029 126.593  0.00  0.00    +0.000 C 
ATOM      8  C   UNL     1      -6.150  -0.109 125.416  0.00  0.00    +0.000 A 
ATOM      9  C   UNL     1      -5.626  -1.634 124.573  0.00  0.00    +0.000 A 
ATOM     10  C   UNL     1      -6.006  -2.071 123.332  0.00  0.00    +0.000 A 
ATOM     11  C   UNL     1      -7.006  -1.157 123.123  0.00  0.00    +0.000 A 
ATOM     12  C   UNL     1      -7.318   0.367 124.188  0.00  0.00    +0.000 A 
ATOM     13  C   UNL     1      -7.031   1.403 125.720  0.00  0.00    +0.000 A 
ENDROOT
BRANCH   1  17
ATOM     14  C   UNL     1      -2.142   7.288 131.680  0.00  0.00    +0.000 A 
ATOM     15  C   UNL     1      -3.464   7.637 131.515  0.00  0.00    +0.000 A 
ATOM     16  C   UNL     1      -4.425   6.795 130.381  0.00  0.00    +0.000 A 
ATOM     17  C   UNL     1      -4.190   5.514 129.217  0.00  0.00    +0.000 A 
ATOM     18  C   UNL     1      -2.768   5.558 129.612  0.00  0.00    +0.000 A 
ATOM     19  C   UNL     1      -1.788   6.326 130.735  0.00  0.00    +0.000 A 
BRANCH  14  24
ATOM     20  C   UNL     1       0.251  10.245 134.804  0.00  0.00    +0.000 C 
ATOM     21  C   UNL     1      -0.183   9.018 134.082  0.00  0.00    +0.000 A 
ATOM     22  C   UNL     1       0.289   7.721 134.336  0.00  0.00    +0.000 A 
ATOM     23  C   UNL     1      -0.409   6.912 133.474  0.00  0.00    +0.000 A 
ATOM     24  N   UNL     1      -1.256   7.717 132.737  0.00  0.00    +0.000 N 
ATOM     25  N   UNL     1      -1.074   9.034 133.071  0.00  0.00    +0.000 NA
ENDBRANCH  14  24
ENDBRANCH   1  17
BRANCH   7  26
ATOM     26  O   UNL     1      -6.437  -0.387 127.521  0.00  0.00    +0.000 OA
ATOM     27  H   UNL     1      -6.864  -1.256 127.316  0.00  0.00    +0.000 HD
ENDBRANCH   7  26
TORSDOF 3
ENDMDL
MODEL 8
REMARK VINA RESULT:      -7.9      2.400      3.037
REMARK  Name = CHEMBL4215696
REMARK  4 active torsions:
REMARK  status: ('A' for Active; 'I' for Inactive)
REMARK    1  A    between atoms: C_1  and  C_2
REMARK    2  A    between atoms: N_5  and  C_6
REMARK    3  A    between atoms: C_9  and  C_10
REMARK    4  A    between atoms: C_16  and  O_17
REMARK                            x       y       z     vdW  Elec       q    Type
REMARK                         _______ _______ _______ _____ _____    ______ ____
ROOT
ATOM      1  C   UNL     1      -3.422   3.977 128.798  0.00  0.00    +0.000 C 
ATOM      2  O   UNL     1      -2.715   3.952 127.671  0.00  0.00    +0.000 OA
ATOM      3  N   UNL     1      -2.678   4.830 130.424  0.00  0.00    +0.000 N 
ATOM      4  C   UNL     1      -2.920   5.532 129.230  0.00  0.00    +0.000 C 
ATOM      5  C   UNL     1      -3.930   6.171 130.059  0.00  0.00    +0.000 C 
ATOM      6  C   UNL     1      -2.808   7.005 130.520  0.00  0.00    +0.000 C 
ATOM      7  C   UNL     1      -3.417   7.402 131.916  0.00  0.00    +0.000 C 
ATOM      8  C   UNL     1      -2.086   7.590 132.329  0.00  0.00    +0.000 A 
ATOM      9  C   UNL     1      -1.988   9.289 132.973  0.00  0.00    +0.000 A 
ATOM     10  C   UNL     1      -0.867   9.963 133.376  0.00  0.00    +0.000 A 
ATOM     11  C   UNL     1      -0.005   8.897 133.353  0.00  0.00    +0.000 A 
ATOM     12  C   UNL     1      -0.387   7.213 132.597  0.00  0.00    +0.000 A 
ATOM     13  C   UNL     1      -1.564   5.959 131.860  0.00  0.00    +0.000 A 
ENDROOT
BRANCH   1  17
ATOM     14  C   UNL     1      -7.183   1.822 125.074  0.00  0.00    +0.000 A 
ATOM     15  C   UNL     1      -6.218   2.692 124.618  0.00  0.00    +0.000 A 
ATOM     16  C   UNL     1      -5.087   3.351 125.716  0.00  0.00    +0.000 A 
ATOM     17  C   UNL     1      -4.789   3.271 127.435  0.00  0.00    +0.000 A 
ATOM     18  C   UNL     1      -6.008   2.441 127.502  0.00  0.00    +0.000 A 
ATOM     19  C   UNL     1      -7.120   1.736 126.464  0.00  0.00    +0.000 A 
BRANCH  14  24
ATOM     20  C   UNL     1      -9.042  -2.154 122.847  0.00  0.00    +0.000 C 
ATOM     21  C   UNL     1      -8.850  -0.740 123.270  0.00  0.00    +0.000 A 
ATOM     22  C   UNL     1      -9.667   0.336 122.889  0.00  0.00    +0.000 A 
ATOM     23  C   UNL     1      -9.146   1.426 123.540  0.00  0.00    +0.000 A 
ATOM     24  N   UNL     1      -8.056   0.996 124.272  0.00  0.00    +0.000 N 
ATOM     25  N   UNL     1      -7.834  -0.339 124.059  0.00  0.00    +0.000 NA
ENDBRANCH  14  24
ENDBRANCH   1  17
BRANCH   7  26
ATOM     26  O   UNL     1      -3.828   6.547 133.011  0.00  0.00    +0.000 OA
ATOM     27  H   UNL     1      -3.624   6.924 133.903  0.00  0.00    +0.000 HD
ENDBRANCH   7  26
TORSDOF 3
ENDMDL
MODEL 9
REMARK VINA RESULT:      -7.8      8.075      9.818
REMARK  Name = CHEMBL4215696
REMARK  4 active torsions:
REMARK  status: ('A' for Active; 'I' for Inactive)
REMARK    1  A    between atoms: C_1  and  C_2
REMARK    2  A    between atoms: N_5  and  C_6
REMARK    3  A    between atoms: C_9  and  C_10
REMARK    4  A    between atoms: C_16  and  O_17
REMARK                            x       y       z     vdW  Elec       q    Type
REMARK                         _______ _______ _______ _____ _____    ______ ____
ROOT
ATOM      1  C   UNL     1      -6.459   1.073 131.465  0.00  0.00    +0.000 C 
ATOM      2  O   UNL     1      -6.012   2.015 132.293  0.00  0.00    +0.000 OA
ATOM      3  N   UNL     1      -5.610  -0.716 131.437  0.00  0.00    +0.000 N 
ATOM      4  C   UNL     1      -6.246  -0.184 132.573  0.00  0.00    +0.000 C 
ATOM      5  C   UNL     1      -7.182  -1.262 132.293  0.00  0.00    +0.000 C 
ATOM      6  C   UNL     1      -6.208  -2.095 133.018  0.00  0.00    +0.000 C 
ATOM      7  C   UNL     1      -6.591  -3.470 132.356  0.00  0.00    +0.000 C 
ATOM      8  C   UNL     1      -5.282  -3.872 132.675  0.00  0.00    +0.000 A 
ATOM      9  C   UNL     1      -5.443  -5.398 133.652  0.00  0.00    +0.000 A 
ATOM     10  C   UNL     1      -4.446  -6.089 134.287  0.00  0.00    +0.000 A 
ATOM     11  C   UNL     1      -3.388  -5.408 133.742  0.00  0.00    +0.000 A 
ATOM     12  C   UNL     1      -3.524  -3.809 132.752  0.00  0.00    +0.000 A 
ATOM     13  C   UNL     1      -4.511  -2.506 131.841  0.00  0.00    +0.000 A 
ENDROOT
BRANCH   1  17
ATOM     14  C   UNL     1     -10.470   5.080 130.744  0.00  0.00    +0.000 A 
ATOM     15  C   UNL     1      -9.175   5.472 130.998  0.00  0.00    +0.000 A 
ATOM     16  C   UNL     1      -7.961   4.290 131.221  0.00  0.00    +0.000 A 
ATOM     17  C   UNL     1      -7.880   2.546 131.269  0.00  0.00    +0.000 A 
ATOM     18  C   UNL     1      -9.347   2.577 131.109  0.00  0.00    +0.000 A 
ATOM     19  C   UNL     1     -10.569   3.693 130.846  0.00  0.00    +0.000 A 
BRANCH  14  24
ATOM     20  C   UNL     1     -13.815   7.149 127.786  0.00  0.00    +0.000 C 
ATOM     21  C   UNL     1     -13.003   6.848 128.996  0.00  0.00    +0.000 A 
ATOM     22  C   UNL     1     -13.163   7.458 130.249  0.00  0.00    +0.000 A 
ATOM     23  C   UNL     1     -12.239   6.849 131.062  0.00  0.00    +0.000 A 
ATOM     24  N   UNL     1     -11.560   5.918 130.301  0.00  0.00    +0.000 N 
ATOM     25  N   UNL     1     -11.992   5.957 129.001  0.00  0.00    +0.000 NA
ENDBRANCH  14  24
ENDBRANCH   1  17
BRANCH   7  26
ATOM     26  O   UNL     1      -6.563  -3.851 130.959  0.00  0.00    +0.000 OA
ATOM     27  H   UNL     1      -7.257  -3.404 130.414  0.00  0.00    +0.000 HD
ENDBRANCH   7  26
TORSDOF 3
ENDMDL
