MODEL 1
REMARK VINA RESULT:      -9.4      0.000      0.000
REMARK  Name = CHEMBL32567
REMARK  8 active torsions:
REMARK  status: ('A' for Active; 'I' for Inactive)
REMARK    1  A    between atoms: C_1  and  N_2
REMARK    2  A    between atoms: N_2  and  C_3
REMARK    3  A    between atoms: N_2  and  S_33
REMARK    4  A    between atoms: C_3  and  C_4
REMARK    5  A    between atoms: C_4  and  N_5
REMARK    6  A    between atoms: C_10  and  C_11
REMARK    7  A    between atoms: C_16  and  N_17
REMARK    8  A    between atoms: S_33  and  C_34
REMARK                            x       y       z     vdW  Elec       q    Type
REMARK                         _______ _______ _______ _____ _____    ______ ____
ROOT
ATOM      1  C   UNL     1      -5.346   5.183 130.219  0.00  0.00    +0.000 C 
ATOM      2  O   UNL     1      -4.904   4.380 129.399  0.00  0.00    +0.000 OA
ATOM      3  N   UNL     1      -4.516   6.112 130.906  0.00  0.00    +0.000 N 
ATOM      4  C   UNL     1      -3.613   7.016 130.190  0.00  0.00    +0.000 C 
ATOM      5  C   UNL     1      -2.220   7.049 130.798  0.00  0.00    +0.000 C 
ATOM      6  C   UNL     1      -2.249   7.745 132.426  0.00  0.00    +0.000 C 
ATOM      7  C   UNL     1      -3.163   6.382 132.997  0.00  0.00    +0.000 C 
ATOM      8  C   UNL     1      -4.551   6.311 132.359  0.00  0.00    +0.000 C 
ENDROOT
BRANCH   6   9
ATOM      9  N   UNL     1      -2.205   9.553 132.858  0.00  0.00    +0.000 N 
ATOM     10  C   UNL     1      -0.883   9.143 133.389  0.00  0.00    +0.000 C 
ATOM     11  O   UNL     1      -0.089   8.200 133.106  0.00  0.00    +0.000 OA
ATOM     12  O   UNL     1      -0.590   9.685 134.528  0.00  0.00    +0.000 OA
ATOM     13  C   UNL     1       0.360  10.621 134.183  0.00  0.00    +0.000 C 
ATOM     14  C   UNL     1      -0.597  11.698 134.023  0.00  0.00    +0.000 A 
ATOM     15  C   UNL     1       0.074  12.961 134.681  0.00  0.00    +0.000 A 
ATOM     16  C   UNL     1      -0.530  14.132 134.999  0.00  0.00    +0.000 A 
ATOM     17  C   UNL     1      -1.798  14.069 134.467  0.00  0.00    +0.000 A 
ATOM     18  C   UNL     1      -2.461  12.740 133.659  0.00  0.00    +0.000 A 
ATOM     19  C   UNL     1      -1.874  11.307 133.437  0.00  0.00    +0.000 A 
ENDBRANCH   6   9
BRANCH   1  25
ATOM     20  N   UNL     1     -10.953   5.306 130.855  0.00  0.00    +0.000 N 
ATOM     21  C   UNL     1     -11.229   4.030 130.457  0.00  0.00    +0.000 A 
ATOM     22  N   UNL     1     -10.130   3.383 130.131  0.00  0.00    +0.000 NA
ATOM     23  C   UNL     1      -9.093   4.274 130.334  0.00  0.00    +0.000 A 
ATOM     24  C   UNL     1      -7.694   4.135 130.160  0.00  0.00    +0.000 A 
ATOM     25  C   UNL     1      -6.847   5.237 130.442  0.00  0.00    +0.000 A 
ATOM     26  C   UNL     1      -7.434   6.440 130.846  0.00  0.00    +0.000 A 
ATOM     27  C   UNL     1      -8.801   6.594 131.049  0.00  0.00    +0.000 A 
ATOM     28  C   UNL     1      -9.599   5.491 130.783  0.00  0.00    +0.000 A 
BRANCH  20  29
ATOM     29  C   UNL     1     -11.925   6.307 131.249  0.00  0.00    +0.000 C 
BRANCH  29  30
ATOM     30  C   UNL     1     -12.705   6.827 130.039  0.00  0.00    +0.000 C 
BRANCH  30  32
ATOM     31  C   UNL     1     -12.765   9.215 129.344  0.00  0.00    +0.000 C 
ATOM     32  N   UNL     1     -12.013   7.942 129.326  0.00  0.00    +0.000 NA
BRANCH  32  33
ATOM     33  S   UNL     1     -11.391   7.520 127.776  0.00  0.00    +0.000 S 
ATOM     34  C   UNL     1     -12.877   7.101 126.866  0.00  0.00    +0.000 C 
ATOM     35  O   UNL     1     -10.828   8.715 127.187  0.00  0.00    +0.000 OA
ATOM     36  O   UNL     1     -10.602   6.317 127.929  0.00  0.00    +0.000 OA
ENDBRANCH  32  33
ENDBRANCH  30  32
ENDBRANCH  29  30
ENDBRANCH  20  29
ENDBRANCH   1  25
TORSDOF 6
ENDMDL
MODEL 2
REMARK VINA RESULT:      -8.7      5.717     11.217
REMARK  Name = CHEMBL32567
REMARK  8 active torsions:
REMARK  status: ('A' for Active; 'I' for Inactive)
REMARK    1  A    between atoms: C_1  and  N_2
REMARK    2  A    between atoms: N_2  and  C_3
REMARK    3  A    between atoms: N_2  and  S_33
REMARK    4  A    between atoms: C_3  and  C_4
REMARK    5  A    between atoms: C_4  and  N_5
REMARK    6  A    between atoms: C_10  and  C_11
REMARK    7  A    between atoms: C_16  and  N_17
REMARK    8  A    between atoms: S_33  and  C_34
REMARK                            x       y       z     vdW  Elec       q    Type
REMARK                         _______ _______ _______ _____ _____    ______ ____
ROOT
ATOM      1  C   UNL     1      -4.069   5.437 128.165  0.00  0.00    +0.000 C 
ATOM      2  O   UNL     1      -3.374   6.351 127.727  0.00  0.00    +0.000 OA
ATOM      3  N   UNL     1      -4.792   4.550 127.319  0.00  0.00    +0.000 N 
ATOM      4  C   UNL     1      -4.138   3.817 126.232  0.00  0.00    +0.000 C 
ATOM      5  C   UNL     1      -4.920   3.887 124.930  0.00  0.00    +0.000 C 
ATOM      6  C   UNL     1      -6.476   3.055 125.074  0.00  0.00    +0.000 C 
ATOM      7  C   UNL     1      -7.017   4.253 126.209  0.00  0.00    +0.000 C 
ATOM      8  C   UNL     1      -6.209   4.225 127.506  0.00  0.00    +0.000 C 
ENDROOT
BRANCH   6   9
ATOM      9  N   UNL     1      -6.779   1.232 124.863  0.00  0.00    +0.000 N 
ATOM     10  C   UNL     1      -7.925   1.762 124.084  0.00  0.00    +0.000 C 
ATOM     11  O   UNL     1      -8.128   2.850 123.472  0.00  0.00    +0.000 OA
ATOM     12  O   UNL     1      -9.027   1.110 124.273  0.00  0.00    +0.000 OA
ATOM     13  C   UNL     1      -9.162   0.397 123.102  0.00  0.00    +0.000 C 
ATOM     14  C   UNL     1      -8.487  -0.781 123.609  0.00  0.00    +0.000 A 
ATOM     15  C   UNL     1      -9.329  -2.007 123.091  0.00  0.00    +0.000 A 
ATOM     16  C   UNL     1      -9.241  -3.292 123.512  0.00  0.00    +0.000 A 
ATOM     17  C   UNL     1      -8.146  -3.351 124.344  0.00  0.00    +0.000 A 
ATOM     18  C   UNL     1      -7.182  -2.038 124.796  0.00  0.00    +0.000 A 
ATOM     19  C   UNL     1      -7.358  -0.514 124.492  0.00  0.00    +0.000 A 
ENDBRANCH   6   9
BRANCH   1  25
ATOM     20  N   UNL     1      -4.209   4.348 133.702  0.00  0.00    +0.000 N 
ATOM     21  C   UNL     1      -3.509   3.176 133.694  0.00  0.00    +0.000 A 
ATOM     22  N   UNL     1      -3.134   2.852 132.476  0.00  0.00    +0.000 NA
ATOM     23  C   UNL     1      -3.602   3.861 131.655  0.00  0.00    +0.000 A 
ATOM     24  C   UNL     1      -3.494   4.053 130.255  0.00  0.00    +0.000 A 
ATOM     25  C   UNL     1      -4.089   5.197 129.665  0.00  0.00    +0.000 A 
ATOM     26  C   UNL     1      -4.799   6.077 130.488  0.00  0.00    +0.000 A 
ATOM     27  C   UNL     1      -4.898   5.924 131.867  0.00  0.00    +0.000 A 
ATOM     28  C   UNL     1      -4.287   4.805 132.415  0.00  0.00    +0.000 A 
BRANCH  20  29
ATOM     29  C   UNL     1      -4.802   4.981 134.863  0.00  0.00    +0.000 C 
BRANCH  29  30
ATOM     30  C   UNL     1      -6.180   4.389 135.173  0.00  0.00    +0.000 C 
BRANCH  30  32
ATOM     31  C   UNL     1      -8.155   5.625 134.303  0.00  0.00    +0.000 C 
ATOM     32  N   UNL     1      -7.159   4.559 134.060  0.00  0.00    +0.000 NA
BRANCH  32  33
ATOM     33  S   UNL     1      -7.840   3.088 133.478  0.00  0.00    +0.000 S 
ATOM     34  C   UNL     1      -7.506   3.179 131.719  0.00  0.00    +0.000 C 
ATOM     35  O   UNL     1      -7.063   1.997 134.023  0.00  0.00    +0.000 OA
ATOM     36  O   UNL     1      -9.272   3.157 133.668  0.00  0.00    +0.000 OA
ENDBRANCH  32  33
ENDBRANCH  30  32
ENDBRANCH  29  30
ENDBRANCH  20  29
ENDBRANCH   1  25
TORSDOF 6
ENDMDL
MODEL 3
REMARK VINA RESULT:      -8.5      6.289      8.353
REMARK  Name = CHEMBL32567
REMARK  8 active torsions:
REMARK  status: ('A' for Active; 'I' for Inactive)
REMARK    1  A    between atoms: C_1  and  N_2
REMARK    2  A    between atoms: N_2  and  C_3
REMARK    3  A    between atoms: N_2  and  S_33
REMARK    4  A    between atoms: C_3  and  C_4
REMARK    5  A    between atoms: C_4  and  N_5
REMARK    6  A    between atoms: C_10  and  C_11
REMARK    7  A    between atoms: C_16  and  N_17
REMARK    8  A    between atoms: S_33  and  C_34
REMARK                            x       y       z     vdW  Elec       q    Type
REMARK                         _______ _______ _______ _____ _____    ______ ____
ROOT
ATOM      1  C   UNL     1      -5.465  -2.758 129.980  0.00  0.00    +0.000 C 
ATOM      2  O   UNL     1      -5.158  -3.868 130.411  0.00  0.00    +0.000 OA
ATOM      3  N   UNL     1      -5.090  -1.551 130.633  0.00  0.00    +0.000 N 
ATOM      4  C   UNL     1      -3.697  -1.265 130.984  0.00  0.00    +0.000 C 
ATOM      5  C   UNL     1      -3.548  -0.752 132.407  0.00  0.00    +0.000 C 
ATOM      6  C   UNL     1      -4.326   0.826 132.603  0.00  0.00    +0.000 C 
ATOM      7  C   UNL     1      -5.882   0.096 132.346  0.00  0.00    +0.000 C 
ATOM      8  C   UNL     1      -6.029  -0.464 130.932  0.00  0.00    +0.000 C 
ENDROOT
BRANCH   6   9
ATOM      9  N   UNL     1      -3.585   2.483 132.198  0.00  0.00    +0.000 N 
ATOM     10  C   UNL     1      -3.900   2.700 133.632  0.00  0.00    +0.000 C 
ATOM     11  O   UNL     1      -4.036   1.920 134.617  0.00  0.00    +0.000 OA
ATOM     12  O   UNL     1      -4.384   3.874 133.885  0.00  0.00    +0.000 OA
ATOM     13  C   UNL     1      -3.330   4.510 134.502  0.00  0.00    +0.000 C 
ATOM     14  C   UNL     1      -2.815   5.088 133.276  0.00  0.00    +0.000 A 
ATOM     15  C   UNL     1      -2.410   6.565 133.644  0.00  0.00    +0.000 A 
ATOM     16  C   UNL     1      -2.120   7.569 132.781  0.00  0.00    +0.000 A 
ATOM     17  C   UNL     1      -2.068   6.999 131.529  0.00  0.00    +0.000 A 
ATOM     18  C   UNL     1      -2.394   5.379 131.172  0.00  0.00    +0.000 A 
ATOM     19  C   UNL     1      -2.916   4.234 132.099  0.00  0.00    +0.000 A 
ENDBRANCH   6   9
BRANCH   1  25
ATOM     20  N   UNL     1      -8.266  -2.647 125.081  0.00  0.00    +0.000 N 
ATOM     21  C   UNL     1      -9.460  -3.144 125.519  0.00  0.00    +0.000 A 
ATOM     22  N   UNL     1      -9.424  -3.402 126.809  0.00  0.00    +0.000 NA
ATOM     23  C   UNL     1      -8.155  -3.050 127.230  0.00  0.00    +0.000 A 
ATOM     24  C   UNL     1      -7.548  -3.100 128.509  0.00  0.00    +0.000 A 
ATOM     25  C   UNL     1      -6.202  -2.675 128.654  0.00  0.00    +0.000 A 
ATOM     26  C   UNL     1      -5.510  -2.258 127.513  0.00  0.00    +0.000 A 
ATOM     27  C   UNL     1      -6.091  -2.176 126.252  0.00  0.00    +0.000 A 
ATOM     28  C   UNL     1      -7.415  -2.580 126.149  0.00  0.00    +0.000 A 
BRANCH  20  29
ATOM     29  C   UNL     1      -7.941  -2.289 123.714  0.00  0.00    +0.000 C 
BRANCH  29  30
ATOM     30  C   UNL     1      -8.825  -1.141 123.218  0.00  0.00    +0.000 C 
BRANCH  30  32
ATOM     31  C   UNL     1      -6.788   0.272 123.419  0.00  0.00    +0.000 C 
ATOM     32  N   UNL     1      -8.262   0.209 123.517  0.00  0.00    +0.000 NA
BRANCH  32  33
ATOM     33  S   UNL     1      -8.898   0.950 124.935  0.00  0.00    +0.000 S 
ATOM     34  C   UNL     1      -9.008   2.673 124.454  0.00  0.00    +0.000 C 
ATOM     35  O   UNL     1     -10.243   0.453 125.126  0.00  0.00    +0.000 OA
ATOM     36  O   UNL     1      -7.902   0.837 125.979  0.00  0.00    +0.000 OA
ENDBRANCH  32  33
ENDBRANCH  30  32
ENDBRANCH  29  30
ENDBRANCH  20  29
ENDBRANCH   1  25
TORSDOF 6
ENDMDL
MODEL 4
REMARK VINA RESULT:      -8.4      4.943     11.572
REMARK  Name = CHEMBL32567
REMARK  8 active torsions:
REMARK  status: ('A' for Active; 'I' for Inactive)
REMARK    1  A    between atoms: C_1  and  N_2
REMARK    2  A    between atoms: N_2  and  C_3
REMARK    3  A    between atoms: N_2  and  S_33
REMARK    4  A    between atoms: C_3  and  C_4
REMARK    5  A    between atoms: C_4  and  N_5
REMARK    6  A    between atoms: C_10  and  C_11
REMARK    7  A    between atoms: C_16  and  N_17
REMARK    8  A    between atoms: S_33  and  C_34
REMARK                            x       y       z     vdW  Elec       q    Type
REMARK                         _______ _______ _______ _____ _____    ______ ____
ROOT
ATOM      1  C   UNL     1      -3.037   5.430 128.512  0.00  0.00    +0.000 C 
ATOM      2  O   UNL     1      -2.281   5.961 127.702  0.00  0.00    +0.000 OA
ATOM      3  N   UNL     1      -3.916   4.368 128.160  0.00  0.00    +0.000 N 
ATOM      4  C   UNL     1      -3.433   3.155 127.496  0.00  0.00    +0.000 C 
ATOM      5  C   UNL     1      -4.300   2.755 126.313  0.00  0.00    +0.000 C 
ATOM      6  C   UNL     1      -5.923   2.283 126.840  0.00  0.00    +0.000 C 
ATOM      7  C   UNL     1      -6.240   3.917 127.340  0.00  0.00    +0.000 C 
ATOM      8  C   UNL     1      -5.343   4.349 128.500  0.00  0.00    +0.000 C 
ENDROOT
BRANCH   6   9
ATOM      9  N   UNL     1      -6.441   0.610 127.463  0.00  0.00    +0.000 N 
ATOM     10  C   UNL     1      -7.225   0.655 126.205  0.00  0.00    +0.000 C 
ATOM     11  O   UNL     1      -7.075   1.273 125.111  0.00  0.00    +0.000 OA
ATOM     12  O   UNL     1      -8.426   0.185 126.324  0.00  0.00    +0.000 OA
ATOM     13  C   UNL     1      -8.340  -1.029 125.679  0.00  0.00    +0.000 C 
ATOM     14  C   UNL     1      -8.029  -1.774 126.882  0.00  0.00    +0.000 A 
ATOM     15  C   UNL     1      -8.878  -3.098 126.791  0.00  0.00    +0.000 A 
ATOM     16  C   UNL     1      -9.115  -3.984 127.789  0.00  0.00    +0.000 A 
ATOM     17  C   UNL     1      -8.319  -3.599 128.844  0.00  0.00    +0.000 A 
ATOM     18  C   UNL     1      -7.323  -2.233 128.878  0.00  0.00    +0.000 A 
ATOM     19  C   UNL     1      -7.163  -1.084 127.830  0.00  0.00    +0.000 A 
ENDBRANCH   6   9
BRANCH   1  25
ATOM     20  N   UNL     1      -2.917   6.919 133.955  0.00  0.00    +0.000 N 
ATOM     21  C   UNL     1      -2.674   5.689 134.495  0.00  0.00    +0.000 A 
ATOM     22  N   UNL     1      -2.577   4.768 133.561  0.00  0.00    +0.000 NA
ATOM     23  C   UNL     1      -2.754   5.428 132.359  0.00  0.00    +0.000 A 
ATOM     24  C   UNL     1      -2.746   4.956 131.024  0.00  0.00    +0.000 A 
ATOM     25  C   UNL     1      -2.969   5.873 129.964  0.00  0.00    +0.000 A 
ATOM     26  C   UNL     1      -3.229   7.209 130.284  0.00  0.00    +0.000 A 
ATOM     27  C   UNL     1      -3.217   7.701 131.584  0.00  0.00    +0.000 A 
ATOM     28  C   UNL     1      -2.977   6.782 132.596  0.00  0.00    +0.000 A 
BRANCH  20  29
ATOM     29  C   UNL     1      -3.116   8.151 134.693  0.00  0.00    +0.000 C 
BRANCH  29  30
ATOM     30  C   UNL     1      -1.779   8.823 135.018  0.00  0.00    +0.000 C 
BRANCH  30  32
ATOM     31  C   UNL     1       0.323   9.290 133.772  0.00  0.00    +0.000 C 
ATOM     32  N   UNL     1      -1.143   9.474 133.835  0.00  0.00    +0.000 NA
BRANCH  32  33
ATOM     33  S   UNL     1      -1.655  11.094 133.551  0.00  0.00    +0.000 S 
ATOM     34  C   UNL     1      -0.099  11.966 133.382  0.00  0.00    +0.000 C 
ATOM     35  O   UNL     1      -2.326  11.126 132.269  0.00  0.00    +0.000 OA
ATOM     36  O   UNL     1      -2.309  11.568 134.751  0.00  0.00    +0.000 OA
ENDBRANCH  32  33
ENDBRANCH  30  32
ENDBRANCH  29  30
ENDBRANCH  20  29
ENDBRANCH   1  25
TORSDOF 6
ENDMDL
MODEL 5
REMARK VINA RESULT:      -8.4      5.017     11.636
REMARK  Name = CHEMBL32567
REMARK  8 active torsions:
REMARK  status: ('A' for Active; 'I' for Inactive)
REMARK    1  A    between atoms: C_1  and  N_2
REMARK    2  A    between atoms: N_2  and  C_3
REMARK    3  A    between atoms: N_2  and  S_33
REMARK    4  A    between atoms: C_3  and  C_4
REMARK    5  A    between atoms: C_4  and  N_5
REMARK    6  A    between atoms: C_10  and  C_11
REMARK    7  A    between atoms: C_16  and  N_17
REMARK    8  A    between atoms: S_33  and  C_34
REMARK                            x       y       z     vdW  Elec       q    Type
REMARK                         _______ _______ _______ _____ _____    ______ ____
ROOT
ATOM      1  C   UNL     1      -4.158   5.812 128.838  0.00  0.00    +0.000 C 
ATOM      2  O   UNL     1      -4.318   6.430 127.787  0.00  0.00    +0.000 OA
ATOM      3  N   UNL     1      -4.611   4.475 129.019  0.00  0.00    +0.000 N 
ATOM      4  C   UNL     1      -4.248   3.405 128.086  0.00  0.00    +0.000 C 
ATOM      5  C   UNL     1      -5.442   2.555 127.682  0.00  0.00    +0.000 C 
ATOM      6  C   UNL     1      -6.084   1.657 129.067  0.00  0.00    +0.000 C 
ATOM      7  C   UNL     1      -6.583   3.148 129.807  0.00  0.00    +0.000 C 
ATOM      8  C   UNL     1      -5.394   4.033 130.177  0.00  0.00    +0.000 C 
ENDROOT
BRANCH   6   9
ATOM      9  N   UNL     1      -5.464   0.028 129.713  0.00  0.00    +0.000 N 
ATOM     10  C   UNL     1      -6.782  -0.404 129.187  0.00  0.00    +0.000 C 
ATOM     11  O   UNL     1      -7.547   0.047 128.287  0.00  0.00    +0.000 OA
ATOM     12  O   UNL     1      -7.398  -1.244 129.957  0.00  0.00    +0.000 OA
ATOM     13  C   UNL     1      -7.260  -2.434 129.278  0.00  0.00    +0.000 C 
ATOM     14  C   UNL     1      -6.051  -2.823 129.977  0.00  0.00    +0.000 A 
ATOM     15  C   UNL     1      -6.217  -4.358 130.287  0.00  0.00    +0.000 A 
ATOM     16  C   UNL     1      -5.471  -5.103 131.138  0.00  0.00    +0.000 A 
ATOM     17  C   UNL     1      -4.425  -4.301 131.536  0.00  0.00    +0.000 A 
ATOM     18  C   UNL     1      -4.202  -2.684 131.096  0.00  0.00    +0.000 A 
ATOM     19  C   UNL     1      -5.132  -1.731 130.277  0.00  0.00    +0.000 A 
ENDBRANCH   6   9
BRANCH   1  25
ATOM     20  N   UNL     1      -1.265   8.106 133.107  0.00  0.00    +0.000 N 
ATOM     21  C   UNL     1      -0.405   7.073 133.345  0.00  0.00    +0.000 A 
ATOM     22  N   UNL     1      -0.619   6.073 132.518  0.00  0.00    +0.000 NA
ATOM     23  C   UNL     1      -1.659   6.475 131.700  0.00  0.00    +0.000 A 
ATOM     24  C   UNL     1      -2.309   5.819 130.626  0.00  0.00    +0.000 A 
ATOM     25  C   UNL     1      -3.373   6.476 129.956  0.00  0.00    +0.000 A 
ATOM     26  C   UNL     1      -3.767   7.738 130.411  0.00  0.00    +0.000 A 
ATOM     27  C   UNL     1      -3.128   8.413 131.446  0.00  0.00    +0.000 A 
ATOM     28  C   UNL     1      -2.079   7.750 132.067  0.00  0.00    +0.000 A 
BRANCH  20  29
ATOM     29  C   UNL     1      -1.335   9.348 133.851  0.00  0.00    +0.000 C 
BRANCH  29  30
ATOM     30  C   UNL     1      -0.034  10.145 133.720  0.00  0.00    +0.000 C 
BRANCH  30  32
ATOM     31  C   UNL     1      -1.512  11.771 132.555  0.00  0.00    +0.000 C 
ATOM     32  N   UNL     1      -0.248  11.559 133.293  0.00  0.00    +0.000 NA
BRANCH  32  33
ATOM     33  S   UNL     1       1.122  12.299 132.558  0.00  0.00    +0.000 S 
ATOM     34  C   UNL     1       0.455  12.886 131.002  0.00  0.00    +0.000 C 
ATOM     35  O   UNL     1       1.480  13.452 133.354  0.00  0.00    +0.000 OA
ATOM     36  O   UNL     1       2.085  11.258 132.271  0.00  0.00    +0.000 OA
ENDBRANCH  32  33
ENDBRANCH  30  32
ENDBRANCH  29  30
ENDBRANCH  20  29
ENDBRANCH   1  25
TORSDOF 6
ENDMDL
MODEL 6
REMARK VINA RESULT:      -8.3      5.412     11.841
REMARK  Name = CHEMBL32567
REMARK  8 active torsions:
REMARK  status: ('A' for Active; 'I' for Inactive)
REMARK    1  A    between atoms: C_1  and  N_2
REMARK    2  A    between atoms: N_2  and  C_3
REMARK    3  A    between atoms: N_2  and  S_33
REMARK    4  A    between atoms: C_3  and  C_4
REMARK    5  A    between atoms: C_4  and  N_5
REMARK    6  A    between atoms: C_10  and  C_11
REMARK    7  A    between atoms: C_16  and  N_17
REMARK    8  A    between atoms: S_33  and  C_34
REMARK                            x       y       z     vdW  Elec       q    Type
REMARK                         _______ _______ _______ _____ _____    ______ ____
ROOT
ATOM      1  C   UNL     1      -4.138   5.561 128.208  0.00  0.00    +0.000 C 
ATOM      2  O   UNL     1      -3.485   6.474 127.707  0.00  0.00    +0.000 OA
ATOM      3  N   UNL     1      -4.861   4.616 127.427  0.00  0.00    +0.000 N 
ATOM      4  C   UNL     1      -4.222   3.855 126.351  0.00  0.00    +0.000 C 
ATOM      5  C   UNL     1      -5.048   3.843 125.076  0.00  0.00    +0.000 C 
ATOM      6  C   UNL     1      -6.573   2.973 125.309  0.00  0.00    +0.000 C 
ATOM      7  C   UNL     1      -7.112   4.206 126.409  0.00  0.00    +0.000 C 
ATOM      8  C   UNL     1      -6.261   4.259 127.678  0.00  0.00    +0.000 C 
ENDROOT
BRANCH   6   9
ATOM      9  N   UNL     1      -6.827   1.135 125.190  0.00  0.00    +0.000 N 
ATOM     10  C   UNL     1      -7.883   1.590 124.253  0.00  0.00    +0.000 C 
ATOM     11  O   UNL     1      -8.030   2.631 123.550  0.00  0.00    +0.000 OA
ATOM     12  O   UNL     1      -8.992   0.929 124.360  0.00  0.00    +0.000 OA
ATOM     13  C   UNL     1      -8.984   0.139 123.232  0.00  0.00    +0.000 C 
ATOM     14  C   UNL     1      -8.356  -0.990 123.891  0.00  0.00    +0.000 A 
ATOM     15  C   UNL     1      -9.118  -2.264 123.365  0.00  0.00    +0.000 A 
ATOM     16  C   UNL     1      -9.062  -3.517 123.879  0.00  0.00    +0.000 A 
ATOM     17  C   UNL     1      -8.068  -3.499 124.831  0.00  0.00    +0.000 A 
ATOM     18  C   UNL     1      -7.178  -2.139 125.298  0.00  0.00    +0.000 A 
ATOM     19  C   UNL     1      -7.338  -0.643 124.875  0.00  0.00    +0.000 A 
ENDBRANCH   6   9
BRANCH   1  25
ATOM     20  N   UNL     1      -4.056   4.716 133.788  0.00  0.00    +0.000 N 
ATOM     21  C   UNL     1      -3.292   3.585 133.810  0.00  0.00    +0.000 A 
ATOM     22  N   UNL     1      -2.935   3.227 132.595  0.00  0.00    +0.000 NA
ATOM     23  C   UNL     1      -3.482   4.171 131.746  0.00  0.00    +0.000 A 
ATOM     24  C   UNL     1      -3.426   4.305 130.337  0.00  0.00    +0.000 A 
ATOM     25  C   UNL     1      -4.100   5.388 129.717  0.00  0.00    +0.000 A 
ATOM     26  C   UNL     1      -4.834   6.264 130.523  0.00  0.00    +0.000 A 
ATOM     27  C   UNL     1      -4.884   6.168 131.909  0.00  0.00    +0.000 A 
ATOM     28  C   UNL     1      -4.196   5.110 132.486  0.00  0.00    +0.000 A 
BRANCH  20  29
ATOM     29  C   UNL     1      -4.648   5.368 134.939  0.00  0.00    +0.000 C 
BRANCH  29  30
ATOM     30  C   UNL     1      -3.964   6.706 135.231  0.00  0.00    +0.000 C 
BRANCH  30  32
ATOM     31  C   UNL     1      -2.006   6.927 136.749  0.00  0.00    +0.000 C 
ATOM     32  N   UNL     1      -2.485   6.591 135.391  0.00  0.00    +0.000 NA
BRANCH  32  33
ATOM     33  S   UNL     1      -1.571   7.323 134.128  0.00  0.00    +0.000 S 
ATOM     34  C   UNL     1      -0.333   8.248 135.035  0.00  0.00    +0.000 C 
ATOM     35  O   UNL     1      -0.898   6.268 133.402  0.00  0.00    +0.000 OA
ATOM     36  O   UNL     1      -2.431   8.268 133.450  0.00  0.00    +0.000 OA
ENDBRANCH  32  33
ENDBRANCH  30  32
ENDBRANCH  29  30
ENDBRANCH  20  29
ENDBRANCH   1  25
TORSDOF 6
ENDMDL
MODEL 7
REMARK VINA RESULT:      -8.2      5.508      7.353
REMARK  Name = CHEMBL32567
REMARK  8 active torsions:
REMARK  status: ('A' for Active; 'I' for Inactive)
REMARK    1  A    between atoms: C_1  and  N_2
REMARK    2  A    between atoms: N_2  and  C_3
REMARK    3  A    between atoms: N_2  and  S_33
REMARK    4  A    between atoms: C_3  and  C_4
REMARK    5  A    between atoms: C_4  and  N_5
REMARK    6  A    between atoms: C_10  and  C_11
REMARK    7  A    between atoms: C_16  and  N_17
REMARK    8  A    between atoms: S_33  and  C_34
REMARK                            x       y       z     vdW  Elec       q    Type
REMARK                         _______ _______ _______ _____ _____    ______ ____
ROOT
ATOM      1  C   UNL     1      -3.855   5.044 128.439  0.00  0.00    +0.000 C 
ATOM      2  O   UNL     1      -3.099   5.696 127.722  0.00  0.00    +0.000 OA
ATOM      3  N   UNL     1      -3.981   5.279 129.836  0.00  0.00    +0.000 N 
ATOM      4  C   UNL     1      -4.279   6.611 130.370  0.00  0.00    +0.000 C 
ATOM      5  C   UNL     1      -3.378   6.986 131.536  0.00  0.00    +0.000 C 
ATOM      6  C   UNL     1      -3.670   5.937 132.933  0.00  0.00    +0.000 C 
ATOM      7  C   UNL     1      -3.040   4.579 132.050  0.00  0.00    +0.000 C 
ATOM      8  C   UNL     1      -3.913   4.219 130.847  0.00  0.00    +0.000 C 
ENDROOT
BRANCH   6   9
ATOM      9  N   UNL     1      -4.996   6.150 134.218  0.00  0.00    +0.000 N 
ATOM     10  C   UNL     1      -3.797   6.262 135.083  0.00  0.00    +0.000 C 
ATOM     11  O   UNL     1      -2.600   6.609 134.867  0.00  0.00    +0.000 OA
ATOM     12  O   UNL     1      -3.915   5.648 136.217  0.00  0.00    +0.000 OA
ATOM     13  C   UNL     1      -4.080   6.685 137.108  0.00  0.00    +0.000 C 
ATOM     14  C   UNL     1      -5.528   6.656 137.047  0.00  0.00    +0.000 A 
ATOM     15  C   UNL     1      -6.018   6.838 138.532  0.00  0.00    +0.000 A 
ATOM     16  C   UNL     1      -7.269   6.626 139.010  0.00  0.00    +0.000 A 
ATOM     17  C   UNL     1      -8.068   6.401 137.912  0.00  0.00    +0.000 A 
ATOM     18  C   UNL     1      -7.537   6.325 136.309  0.00  0.00    +0.000 A 
ATOM     19  C   UNL     1      -6.086   6.372 135.730  0.00  0.00    +0.000 A 
ENDBRANCH   6   9
BRANCH   1  25
ATOM     20  N   UNL     1      -7.289   1.162 126.203  0.00  0.00    +0.000 N 
ATOM     21  C   UNL     1      -8.483   1.740 126.524  0.00  0.00    +0.000 A 
ATOM     22  N   UNL     1      -8.306   2.875 127.165  0.00  0.00    +0.000 NA
ATOM     23  C   UNL     1      -6.938   3.049 127.257  0.00  0.00    +0.000 A 
ATOM     24  C   UNL     1      -6.164   4.087 127.831  0.00  0.00    +0.000 A 
ATOM     25  C   UNL     1      -4.749   4.002 127.789  0.00  0.00    +0.000 A 
ATOM     26  C   UNL     1      -4.169   2.867 127.213  0.00  0.00    +0.000 A 
ATOM     27  C   UNL     1      -4.905   1.848 126.620  0.00  0.00    +0.000 A 
ATOM     28  C   UNL     1      -6.287   1.972 126.661  0.00  0.00    +0.000 A 
BRANCH  20  29
ATOM     29  C   UNL     1      -7.109  -0.109 125.529  0.00  0.00    +0.000 C 
BRANCH  29  30
ATOM     30  C   UNL     1      -8.122  -0.280 124.393  0.00  0.00    +0.000 C 
BRANCH  30  32
ATOM     31  C   UNL     1      -9.140  -1.890 125.993  0.00  0.00    +0.000 C 
ATOM     32  N   UNL     1      -9.034  -1.446 124.586  0.00  0.00    +0.000 NA
BRANCH  32  33
ATOM     33  S   UNL     1      -8.797  -2.731 123.465  0.00  0.00    +0.000 S 
ATOM     34  C   UNL     1      -7.649  -3.797 124.336  0.00  0.00    +0.000 C 
ATOM     35  O   UNL     1     -10.052  -3.439 123.334  0.00  0.00    +0.000 OA
ATOM     36  O   UNL     1      -8.118  -2.189 122.308  0.00  0.00    +0.000 OA
ENDBRANCH  32  33
ENDBRANCH  30  32
ENDBRANCH  29  30
ENDBRANCH  20  29
ENDBRANCH   1  25
TORSDOF 6
ENDMDL
MODEL 8
REMARK VINA RESULT:      -8.1      2.386      3.667
REMARK  Name = CHEMBL32567
REMARK  8 active torsions:
REMARK  status: ('A' for Active; 'I' for Inactive)
REMARK    1  A    between atoms: C_1  and  N_2
REMARK    2  A    between atoms: N_2  and  C_3
REMARK    3  A    between atoms: N_2  and  S_33
REMARK    4  A    between atoms: C_3  and  C_4
REMARK    5  A    between atoms: C_4  and  N_5
REMARK    6  A    between atoms: C_10  and  C_11
REMARK    7  A    between atoms: C_16  and  N_17
REMARK    8  A    between atoms: S_33  and  C_34
REMARK                            x       y       z     vdW  Elec       q    Type
REMARK                         _______ _______ _______ _____ _____    ______ ____
ROOT
ATOM      1  C   UNL     1      -2.496   6.434 132.822  0.00  0.00    +0.000 C 
ATOM      2  O   UNL     1      -1.842   5.489 132.386  0.00  0.00    +0.000 OA
ATOM      3  N   UNL     1      -1.902   7.515 133.531  0.00  0.00    +0.000 N 
ATOM      4  C   UNL     1      -0.776   8.274 132.980  0.00  0.00    +0.000 C 
ATOM      5  C   UNL     1       0.338   8.481 133.994  0.00  0.00    +0.000 C 
ATOM      6  C   UNL     1      -0.199   9.508 135.332  0.00  0.00    +0.000 C 
ATOM      7  C   UNL     1      -1.306   8.270 135.844  0.00  0.00    +0.000 C 
ATOM      8  C   UNL     1      -2.406   8.019 134.813  0.00  0.00    +0.000 C 
ENDROOT
BRANCH   6   9
ATOM      9  N   UNL     1      -0.226  11.367 135.359  0.00  0.00    +0.000 N 
ATOM     10  C   UNL     1       0.995  11.129 136.167  0.00  0.00    +0.000 C 
ATOM     11  O   UNL     1       1.824  10.176 136.226  0.00  0.00    +0.000 OA
ATOM     12  O   UNL     1       1.101  11.914 137.192  0.00  0.00    +0.000 OA
ATOM     13  C   UNL     1       2.093  12.786 136.804  0.00  0.00    +0.000 C 
ATOM     14  C   UNL     1       1.174  13.768 136.263  0.00  0.00    +0.000 A 
ATOM     15  C   UNL     1       1.730  15.167 136.725  0.00  0.00    +0.000 A 
ATOM     16  C   UNL     1       1.083  16.357 136.681  0.00  0.00    +0.000 A 
ATOM     17  C   UNL     1      -0.083  16.135 135.984  0.00  0.00    +0.000 A 
ATOM     18  C   UNL     1      -0.607  14.640 135.393  0.00  0.00    +0.000 A 
ATOM     19  C   UNL     1       0.008  13.216 135.584  0.00  0.00    +0.000 A 
ENDBRANCH   6   9
BRANCH   1  25
ATOM     20  N   UNL     1      -8.031   6.419 131.718  0.00  0.00    +0.000 N 
ATOM     21  C   UNL     1      -8.447   5.671 132.782  0.00  0.00    +0.000 A 
ATOM     22  N   UNL     1      -7.433   5.318 133.543  0.00  0.00    +0.000 NA
ATOM     23  C   UNL     1      -6.309   5.868 132.954  0.00  0.00    +0.000 A 
ATOM     24  C   UNL     1      -4.944   5.828 133.329  0.00  0.00    +0.000 A 
ATOM     25  C   UNL     1      -3.983   6.486 132.519  0.00  0.00    +0.000 A 
ATOM     26  C   UNL     1      -4.420   7.119 131.351  0.00  0.00    +0.000 A 
ATOM     27  C   UNL     1      -5.757   7.194 130.975  0.00  0.00    +0.000 A 
ATOM     28  C   UNL     1      -6.672   6.557 131.800  0.00  0.00    +0.000 A 
BRANCH  20  29
ATOM     29  C   UNL     1      -8.874   6.944 130.662  0.00  0.00    +0.000 C 
BRANCH  29  30
ATOM     30  C   UNL     1     -10.352   6.660 130.942  0.00  0.00    +0.000 C 
BRANCH  30  32
ATOM     31  C   UNL     1     -10.476   7.022 128.484  0.00  0.00    +0.000 C 
ATOM     32  N   UNL     1     -11.181   6.572 129.704  0.00  0.00    +0.000 NA
BRANCH  32  33
ATOM     33  S   UNL     1     -12.773   7.207 129.863  0.00  0.00    +0.000 S 
ATOM     34  C   UNL     1     -12.524   8.955 129.553  0.00  0.00    +0.000 C 
ATOM     35  O   UNL     1     -13.572   6.671 128.783  0.00  0.00    +0.000 OA
ATOM     36  O   UNL     1     -13.176   7.049 131.244  0.00  0.00    +0.000 OA
ENDBRANCH  32  33
ENDBRANCH  30  32
ENDBRANCH  29  30
ENDBRANCH  20  29
ENDBRANCH   1  25
TORSDOF 6
ENDMDL
MODEL 9
REMARK VINA RESULT:      -8.1      5.891     11.568
REMARK  Name = CHEMBL32567
REMARK  8 active torsions:
REMARK  status: ('A' for Active; 'I' for Inactive)
REMARK    1  A    between atoms: C_1  and  N_2
REMARK    2  A    between atoms: N_2  and  C_3
REMARK    3  A    between atoms: N_2  and  S_33
REMARK    4  A    between atoms: C_3  and  C_4
REMARK    5  A    between atoms: C_4  and  N_5
REMARK    6  A    between atoms: C_10  and  C_11
REMARK    7  A    between atoms: C_16  and  N_17
REMARK    8  A    between atoms: S_33  and  C_34
REMARK                            x       y       z     vdW  Elec       q    Type
REMARK                         _______ _______ _______ _____ _____    ______ ____
ROOT
ATOM      1  C   UNL     1      -4.042   5.552 128.117  0.00  0.00    +0.000 C 
ATOM      2  O   UNL     1      -3.434   6.487 127.602  0.00  0.00    +0.000 OA
ATOM      3  N   UNL     1      -4.794   4.613 127.356  0.00  0.00    +0.000 N 
ATOM      4  C   UNL     1      -4.206   3.887 126.228  0.00  0.00    +0.000 C 
ATOM      5  C   UNL     1      -5.103   3.891 125.002  0.00  0.00    +0.000 C 
ATOM      6  C   UNL     1      -6.598   2.990 125.301  0.00  0.00    +0.000 C 
ATOM      7  C   UNL     1      -7.093   4.187 126.459  0.00  0.00    +0.000 C 
ATOM      8  C   UNL     1      -6.171   4.226 127.677  0.00  0.00    +0.000 C 
ENDROOT
BRANCH   6   9
ATOM      9  N   UNL     1      -6.830   1.151 125.152  0.00  0.00    +0.000 N 
ATOM     10  C   UNL     1      -7.923   1.608 124.259  0.00  0.00    +0.000 C 
ATOM     11  O   UNL     1      -8.108   2.661 123.583  0.00  0.00    +0.000 OA
ATOM     12  O   UNL     1      -9.018   0.929 124.389  0.00  0.00    +0.000 OA
ATOM     13  C   UNL     1      -9.035   0.162 123.245  0.00  0.00    +0.000 C 
ATOM     14  C   UNL     1      -8.370  -0.970 123.860  0.00  0.00    +0.000 A 
ATOM     15  C   UNL     1      -9.131  -2.245 123.333  0.00  0.00    +0.000 A 
ATOM     16  C   UNL     1      -9.040  -3.507 123.819  0.00  0.00    +0.000 A 
ATOM     17  C   UNL     1      -8.016  -3.493 124.738  0.00  0.00    +0.000 A 
ATOM     18  C   UNL     1      -7.130  -2.130 125.205  0.00  0.00    +0.000 A 
ATOM     19  C   UNL     1      -7.325  -0.628 124.817  0.00  0.00    +0.000 A 
ENDBRANCH   6   9
BRANCH   1  25
ATOM     20  N   UNL     1      -3.702   4.617 133.673  0.00  0.00    +0.000 N 
ATOM     21  C   UNL     1      -3.419   3.282 133.636  0.00  0.00    +0.000 A 
ATOM     22  N   UNL     1      -3.350   2.843 132.398  0.00  0.00    +0.000 NA
ATOM     23  C   UNL     1      -3.589   3.941 131.593  0.00  0.00    +0.000 A 
ATOM     24  C   UNL     1      -3.634   4.075 130.183  0.00  0.00    +0.000 A 
ATOM     25  C   UNL     1      -3.916   5.345 129.617  0.00  0.00    +0.000 A 
ATOM     26  C   UNL     1      -4.181   6.413 130.478  0.00  0.00    +0.000 A 
ATOM     27  C   UNL     1      -4.118   6.313 131.864  0.00  0.00    +0.000 A 
ATOM     28  C   UNL     1      -3.820   5.063 132.385  0.00  0.00    +0.000 A 
BRANCH  20  29
ATOM     29  C   UNL     1      -3.885   5.417 134.867  0.00  0.00    +0.000 C 
BRANCH  29  30
ATOM     30  C   UNL     1      -5.290   6.026 134.916  0.00  0.00    +0.000 C 
BRANCH  30  32
ATOM     31  C   UNL     1      -7.411   4.734 135.062  0.00  0.00    +0.000 C 
ATOM     32  N   UNL     1      -6.234   5.262 135.784  0.00  0.00    +0.000 NA
BRANCH  32  33
ATOM     33  S   UNL     1      -6.619   6.037 137.273  0.00  0.00    +0.000 S 
ATOM     34  C   UNL     1      -5.755   7.600 137.130  0.00  0.00    +0.000 C 
ATOM     35  O   UNL     1      -8.040   6.310 137.273  0.00  0.00    +0.000 OA
ATOM     36  O   UNL     1      -6.002   5.278 138.340  0.00  0.00    +0.000 OA
ENDBRANCH  32  33
ENDBRANCH  30  32
ENDBRANCH  29  30
ENDBRANCH  20  29
ENDBRANCH   1  25
TORSDOF 6
ENDMDL
