MODEL 1
REMARK VINA RESULT:      -9.5      0.000      0.000
REMARK  Name = CHEMBL420762
REMARK  7 active torsions:
REMARK  status: ('A' for Active; 'I' for Inactive)
REMARK    1  A    between atoms: C_1  and  C_2
REMARK    2  A    between atoms: C_7  and  C_8
REMARK    3  A    between atoms: N_10  and  C_11
REMARK    4  A    between atoms: C_14  and  C_15
REMARK    5  A    between atoms: C_21  and  N_22
REMARK    6  A    between atoms: N_22  and  C_23
REMARK    7  A    between atoms: N_22  and  C_24
REMARK                            x       y       z     vdW  Elec       q    Type
REMARK                         _______ _______ _______ _____ _____    ______ ____
ROOT
ATOM      1  C   UNL     1      -7.967   3.158 124.560  0.00  0.00    +0.000 A 
ATOM      2  C   UNL     1      -7.389   3.528 125.763  0.00  0.00    +0.000 A 
ATOM      3  C   UNL     1      -7.550   2.798 127.249  0.00  0.00    +0.000 A 
ATOM      4  C   UNL     1      -8.245   1.592 127.809  0.00  0.00    +0.000 A 
ATOM      5  C   UNL     1      -8.987   1.390 126.268  0.00  0.00    +0.000 A 
ATOM      6  C   UNL     1      -8.867   2.130 124.754  0.00  0.00    +0.000 A 
ENDROOT
BRANCH   4   7
ATOM      7  C   UNL     1      -8.196   0.489 129.531  0.00  0.00    +0.000 C 
ATOM      8  O   UNL     1      -8.784   1.582 129.987  0.00  0.00    +0.000 OA
ATOM      9  N   UNL     1      -7.704  -0.709 131.067  0.00  0.00    +0.000 N 
ATOM     10  C   UNL     1      -6.812   0.155 130.595  0.00  0.00    +0.000 C 
ATOM     11  C   UNL     1      -5.897  -0.679 129.827  0.00  0.00    +0.000 C 
ATOM     12  C   UNL     1      -5.482  -1.480 130.921  0.00  0.00    +0.000 C 
ATOM     13  C   UNL     1      -4.599  -2.575 131.087  0.00  0.00    +0.000 C 
ATOM     14  C   UNL     1      -5.337  -2.899 132.333  0.00  0.00    +0.000 A 
ATOM     15  C   UNL     1      -4.200  -4.118 132.991  0.00  0.00    +0.000 A 
ATOM     16  C   UNL     1      -4.311  -4.929 134.075  0.00  0.00    +0.000 A 
ATOM     17  C   UNL     1      -5.517  -4.428 134.543  0.00  0.00    +0.000 A 
ATOM     18  C   UNL     1      -6.633  -3.136 133.821  0.00  0.00    +0.000 A 
ATOM     19  C   UNL     1      -6.851  -2.025 132.432  0.00  0.00    +0.000 A 
BRANCH  13  20
ATOM     20  N   UNL     1      -4.872  -3.557 130.070  0.00  0.00    +0.000 NA
ATOM     21  C   UNL     1      -3.605  -3.892 129.480  0.00  0.00    +0.000 C 
ATOM     22  C   UNL     1      -5.353  -4.767 130.676  0.00  0.00    +0.000 C 
ENDBRANCH  13  20
ENDBRANCH   4   7
BRANCH   1  25
ATOM     23  C   UNL     1      -6.902   3.226 122.275  0.00  0.00    +0.000 C 
ATOM     24  O   UNL     1      -6.457   2.082 122.353  0.00  0.00    +0.000 OA
ATOM     25  N   UNL     1      -7.664   3.794 123.321  0.00  0.00    +0.000 N 
ATOM     26  H   UNL     1      -8.112   4.680 123.231  0.00  0.00    +0.000 HD
BRANCH  23  33
ATOM     27  C   UNL     1      -4.382   4.829 121.710  0.00  0.00    +0.000 C 
ATOM     28  C   UNL     1      -5.474   4.711 120.710  0.00  0.00    +0.000 A 
ATOM     29  C   UNL     1      -5.309   5.371 119.482  0.00  0.00    +0.000 A 
ATOM     30  C   UNL     1      -6.294   5.328 118.505  0.00  0.00    +0.000 A 
ATOM     31  C   UNL     1      -7.464   4.626 118.745  0.00  0.00    +0.000 A 
ATOM     32  C   UNL     1      -7.635   3.952 119.963  0.00  0.00    +0.000 A 
ATOM     33  C   UNL     1      -6.642   3.981 120.974  0.00  0.00    +0.000 A 
ENDBRANCH  23  33
ENDBRANCH   1  25
TORSDOF 4
ENDMDL
MODEL 2
REMARK VINA RESULT:      -9.1      2.245      2.989
REMARK  Name = CHEMBL420762
REMARK  7 active torsions:
REMARK  status: ('A' for Active; 'I' for Inactive)
REMARK    1  A    between atoms: C_1  and  C_2
REMARK    2  A    between atoms: C_7  and  C_8
REMARK    3  A    between atoms: N_10  and  C_11
REMARK    4  A    between atoms: C_14  and  C_15
REMARK    5  A    between atoms: C_21  and  N_22
REMARK    6  A    between atoms: N_22  and  C_23
REMARK    7  A    between atoms: N_22  and  C_24
REMARK                            x       y       z     vdW  Elec       q    Type
REMARK                         _______ _______ _______ _____ _____    ______ ____
ROOT
ATOM      1  C   UNL     1      -7.579   0.785 124.203  0.00  0.00    +0.000 A 
ATOM      2  C   UNL     1      -6.482   0.695 125.044  0.00  0.00    +0.000 A 
ATOM      3  C   UNL     1      -6.342  -0.162 126.462  0.00  0.00    +0.000 A 
ATOM      4  C   UNL     1      -7.198  -1.089 127.273  0.00  0.00    +0.000 A 
ATOM      5  C   UNL     1      -8.490  -0.725 126.195  0.00  0.00    +0.000 A 
ATOM      6  C   UNL     1      -8.672   0.161 124.769  0.00  0.00    +0.000 A 
ENDROOT
BRANCH   4   7
ATOM      7  C   UNL     1      -6.950  -2.405 128.820  0.00  0.00    +0.000 C 
ATOM      8  O   UNL     1      -7.671  -3.157 128.005  0.00  0.00    +0.000 OA
ATOM      9  N   UNL     1      -6.787  -3.304 130.609  0.00  0.00    +0.000 N 
ATOM     10  C   UNL     1      -7.758  -2.421 130.403  0.00  0.00    +0.000 C 
ATOM     11  C   UNL     1      -7.300  -1.232 131.109  0.00  0.00    +0.000 C 
ATOM     12  C   UNL     1      -7.258  -1.836 132.392  0.00  0.00    +0.000 C 
ATOM     13  C   UNL     1      -6.901  -1.406 133.693  0.00  0.00    +0.000 C 
ATOM     14  C   UNL     1      -6.702  -2.836 134.040  0.00  0.00    +0.000 A 
ATOM     15  C   UNL     1      -6.547  -2.646 135.815  0.00  0.00    +0.000 A 
ATOM     16  C   UNL     1      -6.226  -3.554 136.773  0.00  0.00    +0.000 A 
ATOM     17  C   UNL     1      -6.170  -4.665 135.945  0.00  0.00    +0.000 A 
ATOM     18  C   UNL     1      -6.372  -4.794 134.106  0.00  0.00    +0.000 A 
ATOM     19  C   UNL     1      -6.656  -3.846 132.612  0.00  0.00    +0.000 A 
BRANCH  13  20
ATOM     20  N   UNL     1      -5.636  -0.722 133.631  0.00  0.00    +0.000 NA
ATOM     21  C   UNL     1      -5.737   0.396 134.527  0.00  0.00    +0.000 C 
ATOM     22  C   UNL     1      -4.601  -1.561 134.168  0.00  0.00    +0.000 C 
ENDBRANCH  13  20
ENDBRANCH   4   7
BRANCH   1  25
ATOM     23  C   UNL     1      -7.933   2.802 122.732  0.00  0.00    +0.000 C 
ATOM     24  O   UNL     1      -8.310   3.519 123.659  0.00  0.00    +0.000 OA
ATOM     25  N   UNL     1      -7.546   1.461 122.948  0.00  0.00    +0.000 N 
ATOM     26  H   UNL     1      -7.148   0.900 122.226  0.00  0.00    +0.000 HD
BRANCH  23  33
ATOM     27  C   UNL     1      -5.349   3.779 121.461  0.00  0.00    +0.000 C 
ATOM     28  C   UNL     1      -6.655   3.887 120.761  0.00  0.00    +0.000 A 
ATOM     29  C   UNL     1      -6.663   4.462 119.480  0.00  0.00    +0.000 A 
ATOM     30  C   UNL     1      -7.845   4.619 118.771  0.00  0.00    +0.000 A 
ATOM     31  C   UNL     1      -9.042   4.206 119.336  0.00  0.00    +0.000 A 
ATOM     32  C   UNL     1      -9.044   3.618 120.609  0.00  0.00    +0.000 A 
ATOM     33  C   UNL     1      -7.849   3.447 121.351  0.00  0.00    +0.000 A 
ENDBRANCH  23  33
ENDBRANCH   1  25
TORSDOF 4
ENDMDL
MODEL 3
REMARK VINA RESULT:      -8.8      6.915     10.277
REMARK  Name = CHEMBL420762
REMARK  7 active torsions:
REMARK  status: ('A' for Active; 'I' for Inactive)
REMARK    1  A    between atoms: C_1  and  C_2
REMARK    2  A    between atoms: C_7  and  C_8
REMARK    3  A    between atoms: N_10  and  C_11
REMARK    4  A    between atoms: C_14  and  C_15
REMARK    5  A    between atoms: C_21  and  N_22
REMARK    6  A    between atoms: N_22  and  C_23
REMARK    7  A    between atoms: N_22  and  C_24
REMARK                            x       y       z     vdW  Elec       q    Type
REMARK                         _______ _______ _______ _____ _____    ______ ____
ROOT
ATOM      1  C   UNL     1      -2.230   6.156 130.163  0.00  0.00    +0.000 A 
ATOM      2  C   UNL     1      -3.031   5.037 130.326  0.00  0.00    +0.000 A 
ATOM      3  C   UNL     1      -3.910   4.224 129.172  0.00  0.00    +0.000 A 
ATOM      4  C   UNL     1      -4.130   4.321 127.691  0.00  0.00    +0.000 A 
ATOM      5  C   UNL     1      -3.227   5.787 127.723  0.00  0.00    +0.000 A 
ATOM      6  C   UNL     1      -2.351   6.651 128.880  0.00  0.00    +0.000 A 
ENDROOT
BRANCH   4   7
ATOM      7  C   UNL     1      -4.923   3.158 126.206  0.00  0.00    +0.000 C 
ATOM      8  O   UNL     1      -5.010   4.344 125.627  0.00  0.00    +0.000 OA
ATOM      9  N   UNL     1      -5.921   1.796 125.118  0.00  0.00    +0.000 N 
ATOM     10  C   UNL     1      -6.534   2.413 126.122  0.00  0.00    +0.000 C 
ATOM     11  C   UNL     1      -6.574   1.405 127.174  0.00  0.00    +0.000 C 
ATOM     12  C   UNL     1      -7.347   0.467 126.443  0.00  0.00    +0.000 C 
ATOM     13  C   UNL     1      -7.855  -0.830 126.695  0.00  0.00    +0.000 C 
ATOM     14  C   UNL     1      -7.951  -1.009 125.225  0.00  0.00    +0.000 A 
ATOM     15  C   UNL     1      -8.916  -2.519 125.216  0.00  0.00    +0.000 A 
ATOM     16  C   UNL     1      -9.277  -3.326 124.185  0.00  0.00    +0.000 A 
ATOM     17  C   UNL     1      -8.755  -2.546 123.164  0.00  0.00    +0.000 A 
ATOM     18  C   UNL     1      -7.786  -0.967 123.245  0.00  0.00    +0.000 A 
ATOM     19  C   UNL     1      -7.064   0.231 124.365  0.00  0.00    +0.000 A 
BRANCH  13  20
ATOM     20  N   UNL     1      -6.801  -1.650 127.234  0.00  0.00    +0.000 NA
ATOM     21  C   UNL     1      -7.440  -2.656 128.036  0.00  0.00    +0.000 C 
ATOM     22  C   UNL     1      -6.141  -2.358 126.172  0.00  0.00    +0.000 C 
ENDBRANCH  13  20
ENDBRANCH   4   7
BRANCH   1  25
ATOM     23  C   UNL     1      -1.910   7.486 132.280  0.00  0.00    +0.000 C 
ATOM     24  O   UNL     1      -3.108   7.736 132.407  0.00  0.00    +0.000 OA
ATOM     25  N   UNL     1      -1.430   6.701 131.208  0.00  0.00    +0.000 N 
ATOM     26  H   UNL     1      -0.478   6.411 131.148  0.00  0.00    +0.000 HD
BRANCH  23  33
ATOM     27  C   UNL     1      -1.530  10.436 132.911  0.00  0.00    +0.000 C 
ATOM     28  C   UNL     1      -0.809   9.377 133.662  0.00  0.00    +0.000 A 
ATOM     29  C   UNL     1       0.065   9.782 134.684  0.00  0.00    +0.000 A 
ATOM     30  C   UNL     1       0.792   8.853 135.416  0.00  0.00    +0.000 A 
ATOM     31  C   UNL     1       0.658   7.503 135.134  0.00  0.00    +0.000 A 
ATOM     32  C   UNL     1      -0.223   7.087 134.124  0.00  0.00    +0.000 A 
ATOM     33  C   UNL     1      -0.976   8.016 133.365  0.00  0.00    +0.000 A 
ENDBRANCH  23  33
ENDBRANCH   1  25
TORSDOF 4
ENDMDL
MODEL 4
REMARK VINA RESULT:      -8.8      6.170      7.239
REMARK  Name = CHEMBL420762
REMARK  7 active torsions:
REMARK  status: ('A' for Active; 'I' for Inactive)
REMARK    1  A    between atoms: C_1  and  C_2
REMARK    2  A    between atoms: C_7  and  C_8
REMARK    3  A    between atoms: N_10  and  C_11
REMARK    4  A    between atoms: C_14  and  C_15
REMARK    5  A    between atoms: C_21  and  N_22
REMARK    6  A    between atoms: N_22  and  C_23
REMARK    7  A    between atoms: N_22  and  C_24
REMARK                            x       y       z     vdW  Elec       q    Type
REMARK                         _______ _______ _______ _____ _____    ______ ____
ROOT
ATOM      1  C   UNL     1      -9.158   4.385 131.793  0.00  0.00    +0.000 A 
ATOM      2  C   UNL     1      -8.043   3.702 131.335  0.00  0.00    +0.000 A 
ATOM      3  C   UNL     1      -7.036   2.689 132.187  0.00  0.00    +0.000 A 
ATOM      4  C   UNL     1      -6.956   2.141 133.581  0.00  0.00    +0.000 A 
ATOM      5  C   UNL     1      -8.262   3.185 133.993  0.00  0.00    +0.000 A 
ATOM      6  C   UNL     1      -9.282   4.243 133.160  0.00  0.00    +0.000 A 
ENDROOT
BRANCH   4   7
ATOM      7  C   UNL     1      -5.945   0.656 134.561  0.00  0.00    +0.000 C 
ATOM      8  O   UNL     1      -5.426   1.711 135.166  0.00  0.00    +0.000 OA
ATOM      9  N   UNL     1      -4.925  -0.995 135.079  0.00  0.00    +0.000 N 
ATOM     10  C   UNL     1      -4.590  -0.335 133.977  0.00  0.00    +0.000 C 
ATOM     11  C   UNL     1      -5.121  -1.163 132.903  0.00  0.00    +0.000 C 
ATOM     12  C   UNL     1      -4.346  -2.310 133.211  0.00  0.00    +0.000 C 
ATOM     13  C   UNL     1      -4.229  -3.616 132.678  0.00  0.00    +0.000 C 
ATOM     14  C   UNL     1      -3.664  -4.031 133.986  0.00  0.00    +0.000 A 
ATOM     15  C   UNL     1      -3.080  -5.656 133.507  0.00  0.00    +0.000 A 
ATOM     16  C   UNL     1      -2.551  -6.657 134.257  0.00  0.00    +0.000 A 
ATOM     17  C   UNL     1      -2.518  -5.971 135.462  0.00  0.00    +0.000 A 
ATOM     18  C   UNL     1      -3.117  -4.268 135.882  0.00  0.00    +0.000 A 
ATOM     19  C   UNL     1      -3.929  -2.815 135.217  0.00  0.00    +0.000 A 
BRANCH  13  20
ATOM     20  N   UNL     1      -5.546  -4.171 132.499  0.00  0.00    +0.000 NA
ATOM     21  C   UNL     1      -5.518  -4.888 131.255  0.00  0.00    +0.000 C 
ATOM     22  C   UNL     1      -5.802  -5.157 133.513  0.00  0.00    +0.000 C 
ENDBRANCH  13  20
ENDBRANCH   4   7
BRANCH   1  25
ATOM     23  C   UNL     1      -9.890   6.519 130.667  0.00  0.00    +0.000 C 
ATOM     24  O   UNL     1      -8.972   7.187 131.143  0.00  0.00    +0.000 OA
ATOM     25  N   UNL     1     -10.016   5.138 130.939  0.00  0.00    +0.000 N 
ATOM     26  H   UNL     1     -10.695   4.567 130.484  0.00  0.00    +0.000 HD
BRANCH  23  33
ATOM     27  C   UNL     1     -12.693   7.404 131.442  0.00  0.00    +0.000 C 
ATOM     28  C   UNL     1     -12.140   7.656 130.086  0.00  0.00    +0.000 A 
ATOM     29  C   UNL     1     -12.960   8.322 129.161  0.00  0.00    +0.000 A 
ATOM     30  C   UNL     1     -12.524   8.576 127.868  0.00  0.00    +0.000 A 
ATOM     31  C   UNL     1     -11.259   8.162 127.479  0.00  0.00    +0.000 A 
ATOM     32  C   UNL     1     -10.427   7.507 128.399  0.00  0.00    +0.000 A 
ATOM     33  C   UNL     1     -10.851   7.239 129.725  0.00  0.00    +0.000 A 
ENDBRANCH  23  33
ENDBRANCH   1  25
TORSDOF 4
ENDMDL
MODEL 5
REMARK VINA RESULT:      -8.8      6.755      9.977
REMARK  Name = CHEMBL420762
REMARK  7 active torsions:
REMARK  status: ('A' for Active; 'I' for Inactive)
REMARK    1  A    between atoms: C_1  and  C_2
REMARK    2  A    between atoms: C_7  and  C_8
REMARK    3  A    between atoms: N_10  and  C_11
REMARK    4  A    between atoms: C_14  and  C_15
REMARK    5  A    between atoms: C_21  and  N_22
REMARK    6  A    between atoms: N_22  and  C_23
REMARK    7  A    between atoms: N_22  and  C_24
REMARK                            x       y       z     vdW  Elec       q    Type
REMARK                         _______ _______ _______ _____ _____    ______ ____
ROOT
ATOM      1  C   UNL     1      -2.618   5.285 131.044  0.00  0.00    +0.000 A 
ATOM      2  C   UNL     1      -2.887   4.920 129.735  0.00  0.00    +0.000 A 
ATOM      3  C   UNL     1      -3.659   3.553 129.187  0.00  0.00    +0.000 A 
ATOM      4  C   UNL     1      -4.324   2.351 129.791  0.00  0.00    +0.000 A 
ATOM      5  C   UNL     1      -3.761   2.898 131.324  0.00  0.00    +0.000 A 
ATOM      6  C   UNL     1      -2.952   4.261 131.907  0.00  0.00    +0.000 A 
ENDROOT
BRANCH   4   7
ATOM      7  C   UNL     1      -5.559   0.842 129.173  0.00  0.00    +0.000 C 
ATOM      8  O   UNL     1      -4.974   0.243 130.197  0.00  0.00    +0.000 OA
ATOM      9  N   UNL     1      -6.632  -0.495 128.125  0.00  0.00    +0.000 N 
ATOM     10  C   UNL     1      -5.381  -0.230 127.766  0.00  0.00    +0.000 C 
ATOM     11  C   UNL     1      -5.531   0.613 126.587  0.00  0.00    +0.000 C 
ATOM     12  C   UNL     1      -6.220  -0.352 125.809  0.00  0.00    +0.000 C 
ATOM     13  C   UNL     1      -6.777  -0.382 124.508  0.00  0.00    +0.000 C 
ATOM     14  C   UNL     1      -7.627  -1.509 124.966  0.00  0.00    +0.000 A 
ATOM     15  C   UNL     1      -8.258  -2.017 123.368  0.00  0.00    +0.000 A 
ATOM     16  C   UNL     1      -9.202  -2.938 123.047  0.00  0.00    +0.000 A 
ATOM     17  C   UNL     1      -9.424  -3.413 124.331  0.00  0.00    +0.000 A 
ATOM     18  C   UNL     1      -8.708  -2.855 125.949  0.00  0.00    +0.000 A 
ATOM     19  C   UNL     1      -7.607  -1.664 126.709  0.00  0.00    +0.000 A 
BRANCH  13  20
ATOM     20  N   UNL     1      -7.572   0.802 124.310  0.00  0.00    +0.000 NA
ATOM     21  C   UNL     1      -7.075   1.429 123.117  0.00  0.00    +0.000 C 
ATOM     22  C   UNL     1      -8.931   0.434 124.021  0.00  0.00    +0.000 C 
ENDBRANCH  13  20
ENDBRANCH   4   7
BRANCH   1  25
ATOM     23  C   UNL     1      -2.494   7.368 132.458  0.00  0.00    +0.000 C 
ATOM     24  O   UNL     1      -3.421   7.030 133.192  0.00  0.00    +0.000 OA
ATOM     25  N   UNL     1      -2.048   6.542 131.402  0.00  0.00    +0.000 N 
ATOM     26  H   UNL     1      -1.238   6.758 130.863  0.00  0.00    +0.000 HD
BRANCH  23  33
ATOM     27  C   UNL     1       0.200   7.607 133.848  0.00  0.00    +0.000 C 
ATOM     28  C   UNL     1      -0.562   8.804 133.409  0.00  0.00    +0.000 A 
ATOM     29  C   UNL     1       0.003  10.065 133.658  0.00  0.00    +0.000 A 
ATOM     30  C   UNL     1      -0.657  11.232 133.298  0.00  0.00    +0.000 A 
ATOM     31  C   UNL     1      -1.898  11.154 132.685  0.00  0.00    +0.000 A 
ATOM     32  C   UNL     1      -2.466   9.899 132.420  0.00  0.00    +0.000 A 
ATOM     33  C   UNL     1      -1.810   8.695 132.777  0.00  0.00    +0.000 A 
ENDBRANCH  23  33
ENDBRANCH   1  25
TORSDOF 4
ENDMDL
MODEL 6
REMARK VINA RESULT:      -8.7      5.451      7.218
REMARK  Name = CHEMBL420762
REMARK  7 active torsions:
REMARK  status: ('A' for Active; 'I' for Inactive)
REMARK    1  A    between atoms: C_1  and  C_2
REMARK    2  A    between atoms: C_7  and  C_8
REMARK    3  A    between atoms: N_10  and  C_11
REMARK    4  A    between atoms: C_14  and  C_15
REMARK    5  A    between atoms: C_21  and  N_22
REMARK    6  A    between atoms: N_22  and  C_23
REMARK    7  A    between atoms: N_22  and  C_24
REMARK                            x       y       z     vdW  Elec       q    Type
REMARK                         _______ _______ _______ _____ _____    ______ ____
ROOT
ATOM      1  C   UNL     1      -9.208   4.438 130.005  0.00  0.00    +0.000 A 
ATOM      2  C   UNL     1      -9.731   3.315 130.626  0.00  0.00    +0.000 A 
ATOM      3  C   UNL     1      -9.004   1.838 130.860  0.00  0.00    +0.000 A 
ATOM      4  C   UNL     1      -7.667   1.216 130.581  0.00  0.00    +0.000 A 
ATOM      5  C   UNL     1      -7.261   2.647 129.714  0.00  0.00    +0.000 A 
ATOM      6  C   UNL     1      -7.986   4.147 129.434  0.00  0.00    +0.000 A 
ENDROOT
BRANCH   4   7
ATOM      7  C   UNL     1      -6.636  -0.460 131.143  0.00  0.00    +0.000 C 
ATOM      8  O   UNL     1      -6.475  -0.531 129.833  0.00  0.00    +0.000 OA
ATOM      9  N   UNL     1      -5.997  -2.159 132.002  0.00  0.00    +0.000 N 
ATOM     10  C   UNL     1      -7.278  -2.028 131.680  0.00  0.00    +0.000 C 
ATOM     11  C   UNL     1      -7.932  -1.786 132.960  0.00  0.00    +0.000 C 
ATOM     12  C   UNL     1      -7.553  -3.019 133.548  0.00  0.00    +0.000 C 
ATOM     13  C   UNL     1      -7.748  -3.632 134.810  0.00  0.00    +0.000 C 
ATOM     14  C   UNL     1      -6.569  -4.481 134.508  0.00  0.00    +0.000 A 
ATOM     15  C   UNL     1      -6.753  -5.657 135.848  0.00  0.00    +0.000 A 
ATOM     16  C   UNL     1      -5.936  -6.662 136.255  0.00  0.00    +0.000 A 
ATOM     17  C   UNL     1      -4.995  -6.541 135.242  0.00  0.00    +0.000 A 
ATOM     18  C   UNL     1      -4.882  -5.310 133.861  0.00  0.00    +0.000 A 
ATOM     19  C   UNL     1      -5.662  -3.864 133.144  0.00  0.00    +0.000 A 
BRANCH  13  20
ATOM     20  N   UNL     1      -7.434  -2.684 135.847  0.00  0.00    +0.000 NA
ATOM     21  C   UNL     1      -8.116  -3.136 137.028  0.00  0.00    +0.000 C 
ATOM     22  C   UNL     1      -6.033  -2.746 136.157  0.00  0.00    +0.000 C 
ENDBRANCH  13  20
ENDBRANCH   4   7
BRANCH   1  25
ATOM     23  C   UNL     1     -11.267   5.867 129.730  0.00  0.00    +0.000 C 
ATOM     24  O   UNL     1     -12.019   4.906 129.571  0.00  0.00    +0.000 OA
ATOM     25  N   UNL     1      -9.885   5.692 129.964  0.00  0.00    +0.000 N 
ATOM     26  H   UNL     1      -9.284   6.454 130.190  0.00  0.00    +0.000 HD
BRANCH  23  33
ATOM     27  C   UNL     1     -11.248   7.733 127.330  0.00  0.00    +0.000 C 
ATOM     28  C   UNL     1     -11.907   8.108 128.607  0.00  0.00    +0.000 A 
ATOM     29  C   UNL     1     -12.527   9.366 128.676  0.00  0.00    +0.000 A 
ATOM     30  C   UNL     1     -13.145   9.799 129.841  0.00  0.00    +0.000 A 
ATOM     31  C   UNL     1     -13.147   8.980 130.959  0.00  0.00    +0.000 A 
ATOM     32  C   UNL     1     -12.542   7.716 130.897  0.00  0.00    +0.000 A 
ATOM     33  C   UNL     1     -11.907   7.252 129.718  0.00  0.00    +0.000 A 
ENDBRANCH  23  33
ENDBRANCH   1  25
TORSDOF 4
ENDMDL
MODEL 7
REMARK VINA RESULT:      -8.5      6.532      8.649
REMARK  Name = CHEMBL420762
REMARK  7 active torsions:
REMARK  status: ('A' for Active; 'I' for Inactive)
REMARK    1  A    between atoms: C_1  and  C_2
REMARK    2  A    between atoms: C_7  and  C_8
REMARK    3  A    between atoms: N_10  and  C_11
REMARK    4  A    between atoms: C_14  and  C_15
REMARK    5  A    between atoms: C_21  and  N_22
REMARK    6  A    between atoms: N_22  and  C_23
REMARK    7  A    between atoms: N_22  and  C_24
REMARK                            x       y       z     vdW  Elec       q    Type
REMARK                         _______ _______ _______ _____ _____    ______ ____
ROOT
ATOM      1  C   UNL     1      -5.867   1.805 125.678  0.00  0.00    +0.000 A 
ATOM      2  C   UNL     1      -4.911   1.737 126.678  0.00  0.00    +0.000 A 
ATOM      3  C   UNL     1      -4.214   2.989 127.521  0.00  0.00    +0.000 A 
ATOM      4  C   UNL     1      -4.342   4.483 127.573  0.00  0.00    +0.000 A 
ATOM      5  C   UNL     1      -5.398   4.369 126.217  0.00  0.00    +0.000 A 
ATOM      6  C   UNL     1      -6.100   3.118 125.324  0.00  0.00    +0.000 A 
ENDROOT
BRANCH   4   7
ATOM      7  C   UNL     1      -3.756   6.005 128.808  0.00  0.00    +0.000 C 
ATOM      8  O   UNL     1      -3.189   6.405 127.682  0.00  0.00    +0.000 OA
ATOM      9  N   UNL     1      -3.109   7.138 130.335  0.00  0.00    +0.000 N 
ATOM     10  C   UNL     1      -2.493   5.994 130.058  0.00  0.00    +0.000 C 
ATOM     11  C   UNL     1      -2.957   5.090 131.102  0.00  0.00    +0.000 C 
ATOM     12  C   UNL     1      -2.434   5.842 132.185  0.00  0.00    +0.000 C 
ATOM     13  C   UNL     1      -2.434   5.707 133.594  0.00  0.00    +0.000 C 
ATOM     14  C   UNL     1      -2.169   7.166 133.669  0.00  0.00    +0.000 A 
ATOM     15  C   UNL     1      -1.773   7.262 135.414  0.00  0.00    +0.000 A 
ATOM     16  C   UNL     1      -1.542   8.340 136.206  0.00  0.00    +0.000 A 
ATOM     17  C   UNL     1      -1.606   9.303 135.209  0.00  0.00    +0.000 A 
ATOM     18  C   UNL     1      -1.995   9.127 133.405  0.00  0.00    +0.000 A 
ATOM     19  C   UNL     1      -2.446   7.952 132.130  0.00  0.00    +0.000 A 
BRANCH  13  20
ATOM     20  N   UNL     1      -3.772   5.413 134.038  0.00  0.00    +0.000 NA
ATOM     21  C   UNL     1      -3.655   4.356 135.003  0.00  0.00    +0.000 C 
ATOM     22  C   UNL     1      -4.306   6.539 134.754  0.00  0.00    +0.000 C 
ENDBRANCH  13  20
ENDBRANCH   4   7
BRANCH   1  25
ATOM     23  C   UNL     1      -7.778   0.184 125.402  0.00  0.00    +0.000 C 
ATOM     24  O   UNL     1      -8.513   0.782 126.187  0.00  0.00    +0.000 OA
ATOM     25  N   UNL     1      -6.479   0.653 125.104  0.00  0.00    +0.000 N 
ATOM     26  H   UNL     1      -5.912   0.234 124.399  0.00  0.00    +0.000 HD
BRANCH  23  33
ATOM     27  C   UNL     1      -8.145  -2.500 126.783  0.00  0.00    +0.000 C 
ATOM     28  C   UNL     1      -8.535  -2.290 125.365  0.00  0.00    +0.000 A 
ATOM     29  C   UNL     1      -9.083  -3.381 124.671  0.00  0.00    +0.000 A 
ATOM     30  C   UNL     1      -9.451  -3.271 123.337  0.00  0.00    +0.000 A 
ATOM     31  C   UNL     1      -9.272  -2.067 122.674  0.00  0.00    +0.000 A 
ATOM     32  C   UNL     1      -8.737  -0.967 123.362  0.00  0.00    +0.000 A 
ATOM     33  C   UNL     1      -8.356  -1.055 124.724  0.00  0.00    +0.000 A 
ENDBRANCH  23  33
ENDBRANCH   1  25
TORSDOF 4
ENDMDL
MODEL 8
REMARK VINA RESULT:      -8.4      9.364     11.139
REMARK  Name = CHEMBL420762
REMARK  7 active torsions:
REMARK  status: ('A' for Active; 'I' for Inactive)
REMARK    1  A    between atoms: C_1  and  C_2
REMARK    2  A    between atoms: C_7  and  C_8
REMARK    3  A    between atoms: N_10  and  C_11
REMARK    4  A    between atoms: C_14  and  C_15
REMARK    5  A    between atoms: C_21  and  N_22
REMARK    6  A    between atoms: N_22  and  C_23
REMARK    7  A    between atoms: N_22  and  C_24
REMARK                            x       y       z     vdW  Elec       q    Type
REMARK                         _______ _______ _______ _____ _____    ______ ____
ROOT
ATOM      1  C   UNL     1      -3.347   4.609 127.737  0.00  0.00    +0.000 A 
ATOM      2  C   UNL     1      -3.440   4.053 129.002  0.00  0.00    +0.000 A 
ATOM      3  C   UNL     1      -2.920   4.691 130.447  0.00  0.00    +0.000 A 
ATOM      4  C   UNL     1      -2.274   5.961 130.916  0.00  0.00    +0.000 A 
ATOM      5  C   UNL     1      -2.110   6.407 129.261  0.00  0.00    +0.000 A 
ATOM      6  C   UNL     1      -2.600   5.769 127.775  0.00  0.00    +0.000 A 
ENDROOT
BRANCH   4   7
ATOM      7  C   UNL     1      -1.929   6.910 132.696  0.00  0.00    +0.000 C 
ATOM      8  O   UNL     1      -2.588   5.850 133.135  0.00  0.00    +0.000 OA
ATOM      9  N   UNL     1      -1.704   8.236 134.187  0.00  0.00    +0.000 N 
ATOM     10  C   UNL     1      -2.739   8.345 133.362  0.00  0.00    +0.000 C 
ATOM     11  C   UNL     1      -2.375   9.459 132.496  0.00  0.00    +0.000 C 
ATOM     12  C   UNL     1      -2.291  10.423 133.534  0.00  0.00    +0.000 C 
ATOM     13  C   UNL     1      -1.972  11.801 133.600  0.00  0.00    +0.000 C 
ATOM     14  C   UNL     1      -1.665  11.594 135.038  0.00  0.00    +0.000 A 
ATOM     15  C   UNL     1      -1.529  13.315 135.519  0.00  0.00    +0.000 A 
ATOM     16  C   UNL     1      -1.143  13.872 136.695  0.00  0.00    +0.000 A 
ATOM     17  C   UNL     1      -1.000  12.691 137.407  0.00  0.00    +0.000 A 
ATOM     18  C   UNL     1      -1.186  10.932 136.849  0.00  0.00    +0.000 A 
ATOM     19  C   UNL     1      -1.537   9.893 135.432  0.00  0.00    +0.000 A 
BRANCH  13  20
ATOM     20  N   UNL     1      -0.763  12.040 132.856  0.00  0.00    +0.000 NA
ATOM     21  C   UNL     1      -1.039  13.142 131.977  0.00  0.00    +0.000 C 
ATOM     22  C   UNL     1       0.273  12.497 133.741  0.00  0.00    +0.000 C 
ENDBRANCH  13  20
ENDBRANCH   4   7
BRANCH   1  25
ATOM     23  C   UNL     1      -5.154   4.417 125.989  0.00  0.00    +0.000 C 
ATOM     24  O   UNL     1      -5.805   5.361 126.434  0.00  0.00    +0.000 OA
ATOM     25  N   UNL     1      -3.933   4.019 126.579  0.00  0.00    +0.000 N 
ATOM     26  H   UNL     1      -3.349   3.321 126.173  0.00  0.00    +0.000 HD
BRANCH  23  33
ATOM     27  C   UNL     1      -6.732   1.818 126.018  0.00  0.00    +0.000 C 
ATOM     28  C   UNL     1      -6.435   2.538 124.753  0.00  0.00    +0.000 A 
ATOM     29  C   UNL     1      -6.907   1.977 123.556  0.00  0.00    +0.000 A 
ATOM     30  C   UNL     1      -6.651   2.578 122.331  0.00  0.00    +0.000 A 
ATOM     31  C   UNL     1      -5.913   3.750 122.286  0.00  0.00    +0.000 A 
ATOM     32  C   UNL     1      -5.447   4.327 123.477  0.00  0.00    +0.000 A 
ATOM     33  C   UNL     1      -5.697   3.732 124.738  0.00  0.00    +0.000 A 
ENDBRANCH  23  33
ENDBRANCH   1  25
TORSDOF 4
ENDMDL
MODEL 9
REMARK VINA RESULT:      -8.1      2.084      2.858
REMARK  Name = CHEMBL420762
REMARK  7 active torsions:
REMARK  status: ('A' for Active; 'I' for Inactive)
REMARK    1  A    between atoms: C_1  and  C_2
REMARK    2  A    between atoms: C_7  and  C_8
REMARK    3  A    between atoms: N_10  and  C_11
REMARK    4  A    between atoms: C_14  and  C_15
REMARK    5  A    between atoms: C_21  and  N_22
REMARK    6  A    between atoms: N_22  and  C_23
REMARK    7  A    between atoms: N_22  and  C_24
REMARK                            x       y       z     vdW  Elec       q    Type
REMARK                         _______ _______ _______ _____ _____    ______ ____
ROOT
ATOM      1  C   UNL     1      -5.558   3.633 126.045  0.00  0.00    +0.000 A 
ATOM      2  C   UNL     1      -4.385   3.086 126.539  0.00  0.00    +0.000 A 
ATOM      3  C   UNL     1      -4.085   2.503 128.067  0.00  0.00    +0.000 A 
ATOM      4  C   UNL     1      -4.857   2.314 129.340  0.00  0.00    +0.000 A 
ATOM      5  C   UNL     1      -6.158   3.160 128.594  0.00  0.00    +0.000 A 
ATOM      6  C   UNL     1      -6.480   3.787 127.059  0.00  0.00    +0.000 A 
ENDROOT
BRANCH   4   7
ATOM      7  C   UNL     1      -4.626   1.311 131.108  0.00  0.00    +0.000 C 
ATOM      8  O   UNL     1      -3.898   2.384 131.368  0.00  0.00    +0.000 OA
ATOM      9  N   UNL     1      -4.357  -0.060 132.552  0.00  0.00    +0.000 N 
ATOM     10  C   UNL     1      -3.612  -0.108 131.454  0.00  0.00    +0.000 C 
ATOM     11  C   UNL     1      -4.184  -1.214 130.697  0.00  0.00    +0.000 C 
ATOM     12  C   UNL     1      -3.926  -2.205 131.678  0.00  0.00    +0.000 C 
ATOM     13  C   UNL     1      -4.169  -3.596 131.789  0.00  0.00    +0.000 C 
ATOM     14  C   UNL     1      -4.039  -3.436 133.259  0.00  0.00    +0.000 A 
ATOM     15  C   UNL     1      -3.973  -5.172 133.699  0.00  0.00    +0.000 A 
ATOM     16  C   UNL     1      -3.975  -5.772 134.917  0.00  0.00    +0.000 A 
ATOM     17  C   UNL     1      -3.935  -4.614 135.679  0.00  0.00    +0.000 A 
ATOM     18  C   UNL     1      -3.976  -2.837 135.153  0.00  0.00    +0.000 A 
ATOM     19  C   UNL     1      -4.095  -1.751 133.732  0.00  0.00    +0.000 A 
BRANCH  13  20
ATOM     20  N   UNL     1      -5.537  -3.864 131.430  0.00  0.00    +0.000 NA
ATOM     21  C   UNL     1      -5.548  -5.165 130.821  0.00  0.00    +0.000 C 
ATOM     22  C   UNL     1      -6.339  -3.981 132.616  0.00  0.00    +0.000 C 
ENDBRANCH  13  20
ENDBRANCH   4   7
BRANCH   1  25
ATOM     23  C   UNL     1      -6.209   3.137 123.660  0.00  0.00    +0.000 C 
ATOM     24  O   UNL     1      -6.547   1.979 123.902  0.00  0.00    +0.000 OA
ATOM     25  N   UNL     1      -5.735   3.995 124.678  0.00  0.00    +0.000 N 
ATOM     26  H   UNL     1      -5.550   4.961 124.515  0.00  0.00    +0.000 HD
BRANCH  23  33
ATOM     27  C   UNL     1      -8.805   2.933 122.091  0.00  0.00    +0.000 C 
ATOM     28  C   UNL     1      -7.581   3.535 121.503  0.00  0.00    +0.000 A 
ATOM     29  C   UNL     1      -7.657   4.012 120.184  0.00  0.00    +0.000 A 
ATOM     30  C   UNL     1      -6.551   4.568 119.557  0.00  0.00    +0.000 A 
ATOM     31  C   UNL     1      -5.347   4.650 120.239  0.00  0.00    +0.000 A 
ATOM     32  C   UNL     1      -5.263   4.189 121.561  0.00  0.00    +0.000 A 
ATOM     33  C   UNL     1      -6.380   3.620 122.223  0.00  0.00    +0.000 A 
ENDBRANCH  23  33
ENDBRANCH   1  25
TORSDOF 4
ENDMDL
