MODEL 1
REMARK VINA RESULT:     -10.8      0.000      0.000
REMARK  Name = CHEMBL262384
REMARK  7 active torsions:
REMARK  status: ('A' for Active; 'I' for Inactive)
REMARK    1  A    between atoms: C_1  and  N_2
REMARK    2  A    between atoms: N_6  and  C_7
REMARK    3  A    between atoms: C_7  and  C_8
REMARK    4  A    between atoms: N_10  and  C_11
REMARK    5  A    between atoms: C_11  and  C_12
REMARK    6  A    between atoms: C_16  and  C_17
REMARK    7  A    between atoms: C_22  and  N_23
REMARK                            x       y       z     vdW  Elec       q    Type
REMARK                         _______ _______ _______ _____ _____    ______ ____
ROOT
ATOM      1  C   UNL     1      -8.788   3.885 133.248  0.00  0.00    +0.000 A 
ATOM      2  C   UNL     1      -9.275   2.920 132.386  0.00  0.00    +0.000 A 
ATOM      3  C   UNL     1      -8.428   1.793 132.504  0.00  0.00    +0.000 A 
ATOM      4  C   UNL     1      -8.357   0.518 131.902  0.00  0.00    +0.000 A 
ATOM      5  C   UNL     1      -7.318  -0.358 132.269  0.00  0.00    +0.000 A 
ATOM      6  C   UNL     1      -6.360   0.067 133.205  0.00  0.00    +0.000 A 
ATOM      7  C   UNL     1      -6.436   1.312 133.842  0.00  0.00    +0.000 A 
ATOM      8  C   UNL     1      -7.476   2.146 133.455  0.00  0.00    +0.000 A 
ATOM      9  O   UNL     1      -7.699   3.411 133.920  0.00  0.00    +0.000 OA
ENDROOT
BRANCH   5  10
ATOM     10  C   UNL     1      -7.213  -1.684 131.563  0.00  0.00    +0.000 C 
ATOM     11  O   UNL     1      -7.247  -2.733 132.200  0.00  0.00    +0.000 OA
ATOM     12  N   UNL     1      -7.185  -1.672 130.177  0.00  0.00    +0.000 N 
ATOM     13  C   UNL     1      -8.141  -2.481 129.428  0.00  0.00    +0.000 C 
ATOM     14  C   UNL     1      -7.446  -3.452 128.498  0.00  0.00    +0.000 C 
ATOM     15  C   UNL     1      -6.419  -2.732 127.602  0.00  0.00    +0.000 C 
ATOM     16  C   UNL     1      -5.428  -1.938 128.462  0.00  0.00    +0.000 C 
ATOM     17  C   UNL     1      -6.122  -1.001 129.435  0.00  0.00    +0.000 C 
BRANCH  15  18
ATOM     18  N   UNL     1      -7.047  -1.985 126.462  0.00  0.00    +0.000 N 
ATOM     19  C   UNL     1      -8.068  -1.039 126.604  0.00  0.00    +0.000 C 
ATOM     20  O   UNL     1      -8.183  -0.178 127.464  0.00  0.00    +0.000 OA
ATOM     21  O   UNL     1      -9.078  -1.193 125.711  0.00  0.00    +0.000 OA
ATOM     22  C   UNL     1      -8.646  -0.927 124.395  0.00  0.00    +0.000 C 
ATOM     23  C   UNL     1      -7.389  -1.674 124.080  0.00  0.00    +0.000 A 
ATOM     24  C   UNL     1      -6.988  -1.794 122.748  0.00  0.00    +0.000 A 
ATOM     25  C   UNL     1      -5.809  -2.456 122.438  0.00  0.00    +0.000 A 
ATOM     26  C   UNL     1      -5.025  -2.988 123.457  0.00  0.00    +0.000 A 
ATOM     27  C   UNL     1      -5.421  -2.867 124.791  0.00  0.00    +0.000 A 
ATOM     28  C   UNL     1      -6.612  -2.215 125.119  0.00  0.00    +0.000 A 
ENDBRANCH  15  18
ENDBRANCH   5  10
BRANCH   1  29
ATOM     29  C   UNL     1      -9.274   5.257 133.516  0.00  0.00    +0.000 C 
BRANCH  29  32
ATOM     30  C   UNL     1     -10.705   6.443 132.007  0.00  0.00    +0.000 C 
ATOM     31  O   UNL     1      -9.638   6.868 131.573  0.00  0.00    +0.000 OA
ATOM     32  N   UNL     1     -10.625   5.550 133.058  0.00  0.00    +0.000 N 
ATOM     33  H   UNL     1     -11.412   5.084 133.490  0.00  0.00    +0.000 HD
BRANCH  30  34
ATOM     34  C   UNL     1     -12.080   6.862 131.433  0.00  0.00    +0.000 C 
BRANCH  34  40
ATOM     35  C   UNL     1     -11.050   7.787 126.625  0.00  0.00    +0.000 C 
ATOM     36  N   UNL     1     -11.789   7.779 127.869  0.00  0.00    +0.000 N 
ATOM     37  C   UNL     1     -12.816   8.706 128.226  0.00  0.00    +0.000 C 
ATOM     38  C   UNL     1     -12.630   8.636 129.736  0.00  0.00    +0.000 C 
ATOM     39  O   UNL     1     -12.953   9.520 130.516  0.00  0.00    +0.000 OA
ATOM     40  N   UNL     1     -12.128   7.389 130.045  0.00  0.00    +0.000 N 
ATOM     41  C   UNL     1     -11.532   6.903 128.906  0.00  0.00    +0.000 C 
ATOM     42  O   UNL     1     -10.833   5.920 128.709  0.00  0.00    +0.000 OA
ENDBRANCH  34  40
ENDBRANCH  30  34
ENDBRANCH  29  32
ENDBRANCH   1  29
TORSDOF 6
ENDMDL
MODEL 2
REMARK VINA RESULT:     -10.1      2.348      9.172
REMARK  Name = CHEMBL262384
REMARK  7 active torsions:
REMARK  status: ('A' for Active; 'I' for Inactive)
REMARK    1  A    between atoms: C_1  and  N_2
REMARK    2  A    between atoms: N_6  and  C_7
REMARK    3  A    between atoms: C_7  and  C_8
REMARK    4  A    between atoms: N_10  and  C_11
REMARK    5  A    between atoms: C_11  and  C_12
REMARK    6  A    between atoms: C_16  and  C_17
REMARK    7  A    between atoms: C_22  and  N_23
REMARK                            x       y       z     vdW  Elec       q    Type
REMARK                         _______ _______ _______ _____ _____    ______ ____
ROOT
ATOM      1  C   UNL     1      -8.207  -2.844 127.516  0.00  0.00    +0.000 A 
ATOM      2  C   UNL     1      -8.139  -1.470 127.658  0.00  0.00    +0.000 A 
ATOM      3  C   UNL     1      -7.854  -1.209 129.019  0.00  0.00    +0.000 A 
ATOM      4  C   UNL     1      -7.683  -0.051 129.808  0.00  0.00    +0.000 A 
ATOM      5  C   UNL     1      -7.425  -0.190 131.186  0.00  0.00    +0.000 A 
ATOM      6  C   UNL     1      -7.372  -1.477 131.748  0.00  0.00    +0.000 A 
ATOM      7  C   UNL     1      -7.499  -2.638 130.974  0.00  0.00    +0.000 A 
ATOM      8  C   UNL     1      -7.750  -2.458 129.621  0.00  0.00    +0.000 A 
ATOM      9  O   UNL     1      -7.951  -3.455 128.708  0.00  0.00    +0.000 OA
ENDROOT
BRANCH   5  10
ATOM     10  C   UNL     1      -7.321   1.055 132.026  0.00  0.00    +0.000 C 
ATOM     11  O   UNL     1      -6.553   1.097 132.984  0.00  0.00    +0.000 OA
ATOM     12  N   UNL     1      -8.037   2.168 131.615  0.00  0.00    +0.000 N 
ATOM     13  C   UNL     1      -7.349   3.442 131.430  0.00  0.00    +0.000 C 
ATOM     14  C   UNL     1      -7.953   4.535 132.287  0.00  0.00    +0.000 C 
ATOM     15  C   UNL     1      -9.478   4.627 132.084  0.00  0.00    +0.000 C 
ATOM     16  C   UNL     1     -10.131   3.263 132.335  0.00  0.00    +0.000 C 
ATOM     17  C   UNL     1      -9.494   2.153 131.518  0.00  0.00    +0.000 C 
BRANCH  15  18
ATOM     18  N   UNL     1      -9.866   5.319 130.809  0.00  0.00    +0.000 N 
ATOM     19  C   UNL     1      -9.313   5.035 129.557  0.00  0.00    +0.000 C 
ATOM     20  O   UNL     1      -9.033   3.943 129.086  0.00  0.00    +0.000 OA
ATOM     21  O   UNL     1      -8.977   6.143 128.848  0.00  0.00    +0.000 OA
ATOM     22  C   UNL     1     -10.119   6.883 128.477  0.00  0.00    +0.000 C 
ATOM     23  C   UNL     1     -11.014   7.116 129.652  0.00  0.00    +0.000 A 
ATOM     24  C   UNL     1     -12.016   8.085 129.559  0.00  0.00    +0.000 A 
ATOM     25  C   UNL     1     -12.876   8.295 130.627  0.00  0.00    +0.000 A 
ATOM     26  C   UNL     1     -12.745   7.531 131.783  0.00  0.00    +0.000 A 
ATOM     27  C   UNL     1     -11.747   6.559 131.878  0.00  0.00    +0.000 A 
ATOM     28  C   UNL     1     -10.863   6.344 130.817  0.00  0.00    +0.000 A 
ENDBRANCH  15  18
ENDBRANCH   5  10
BRANCH   1  29
ATOM     29  C   UNL     1      -8.491  -3.665 126.318  0.00  0.00    +0.000 C 
BRANCH  29  32
ATOM     30  C   UNL     1      -8.099  -2.553 124.234  0.00  0.00    +0.000 C 
ATOM     31  O   UNL     1      -6.935  -2.867 124.462  0.00  0.00    +0.000 OA
ATOM     32  N   UNL     1      -9.034  -2.946 125.173  0.00  0.00    +0.000 N 
ATOM     33  H   UNL     1     -10.032  -2.798 125.102  0.00  0.00    +0.000 HD
BRANCH  30  34
ATOM     34  C   UNL     1      -8.533  -1.761 122.977  0.00  0.00    +0.000 C 
BRANCH  34  40
ATOM     35  C   UNL     1      -7.945   2.993 124.424  0.00  0.00    +0.000 C 
ATOM     36  N   UNL     1      -8.367   1.873 123.612  0.00  0.00    +0.000 N 
ATOM     37  C   UNL     1      -9.460   1.885 122.691  0.00  0.00    +0.000 C 
ATOM     38  C   UNL     1      -9.800   0.403 122.769  0.00  0.00    +0.000 C 
ATOM     39  O   UNL     1     -10.899  -0.070 122.513  0.00  0.00    +0.000 OA
ATOM     40  N   UNL     1      -8.647  -0.283 123.086  0.00  0.00    +0.000 N 
ATOM     41  C   UNL     1      -7.799   0.615 123.688  0.00  0.00    +0.000 C 
ATOM     42  O   UNL     1      -6.732   0.466 124.266  0.00  0.00    +0.000 OA
ENDBRANCH  34  40
ENDBRANCH  30  34
ENDBRANCH  29  32
ENDBRANCH   1  29
TORSDOF 6
ENDMDL
MODEL 3
REMARK VINA RESULT:     -10.1      4.125      8.458
REMARK  Name = CHEMBL262384
REMARK  7 active torsions:
REMARK  status: ('A' for Active; 'I' for Inactive)
REMARK    1  A    between atoms: C_1  and  N_2
REMARK    2  A    between atoms: N_6  and  C_7
REMARK    3  A    between atoms: C_7  and  C_8
REMARK    4  A    between atoms: N_10  and  C_11
REMARK    5  A    between atoms: C_11  and  C_12
REMARK    6  A    between atoms: C_16  and  C_17
REMARK    7  A    between atoms: C_22  and  N_23
REMARK                            x       y       z     vdW  Elec       q    Type
REMARK                         _______ _______ _______ _____ _____    ______ ____
ROOT
ATOM      1  C   UNL     1      -8.795  -1.864 124.502  0.00  0.00    +0.000 A 
ATOM      2  C   UNL     1      -7.714  -1.495 125.283  0.00  0.00    +0.000 A 
ATOM      3  C   UNL     1      -7.813  -2.218 126.495  0.00  0.00    +0.000 A 
ATOM      4  C   UNL     1      -7.066  -2.286 127.691  0.00  0.00    +0.000 A 
ATOM      5  C   UNL     1      -7.503  -3.134 128.727  0.00  0.00    +0.000 A 
ATOM      6  C   UNL     1      -8.686  -3.873 128.556  0.00  0.00    +0.000 A 
ATOM      7  C   UNL     1      -9.419  -3.849 127.362  0.00  0.00    +0.000 A 
ATOM      8  C   UNL     1      -8.954  -3.002 126.365  0.00  0.00    +0.000 A 
ATOM      9  O   UNL     1      -9.546  -2.800 125.150  0.00  0.00    +0.000 OA
ENDROOT
BRANCH   5  10
ATOM     10  C   UNL     1      -6.738  -3.138 130.023  0.00  0.00    +0.000 C 
ATOM     11  O   UNL     1      -6.122  -4.138 130.380  0.00  0.00    +0.000 OA
ATOM     12  N   UNL     1      -6.672  -1.948 130.733  0.00  0.00    +0.000 N 
ATOM     13  C   UNL     1      -5.374  -1.412 131.125  0.00  0.00    +0.000 C 
ATOM     14  C   UNL     1      -5.276  -1.221 132.624  0.00  0.00    +0.000 C 
ATOM     15  C   UNL     1      -6.465  -0.401 133.162  0.00  0.00    +0.000 C 
ATOM     16  C   UNL     1      -7.790  -1.048 132.743  0.00  0.00    +0.000 C 
ATOM     17  C   UNL     1      -7.871  -1.292 131.246  0.00  0.00    +0.000 C 
BRANCH  15  18
ATOM     18  N   UNL     1      -6.339   1.071 132.898  0.00  0.00    +0.000 N 
ATOM     19  C   UNL     1      -7.420   1.925 132.653  0.00  0.00    +0.000 C 
ATOM     20  O   UNL     1      -8.510   1.938 133.204  0.00  0.00    +0.000 OA
ATOM     21  O   UNL     1      -7.220   2.766 131.606  0.00  0.00    +0.000 OA
ATOM     22  C   UNL     1      -6.197   3.697 131.880  0.00  0.00    +0.000 C 
ATOM     23  C   UNL     1      -4.972   3.014 132.399  0.00  0.00    +0.000 A 
ATOM     24  C   UNL     1      -3.765   3.714 132.424  0.00  0.00    +0.000 A 
ATOM     25  C   UNL     1      -2.624   3.108 132.930  0.00  0.00    +0.000 A 
ATOM     26  C   UNL     1      -2.691   1.808 133.423  0.00  0.00    +0.000 A 
ATOM     27  C   UNL     1      -3.898   1.106 133.403  0.00  0.00    +0.000 A 
ATOM     28  C   UNL     1      -5.052   1.696 132.884  0.00  0.00    +0.000 A 
ENDBRANCH  15  18
ENDBRANCH   5  10
BRANCH   1  29
ATOM     29  C   UNL     1      -9.195  -1.409 123.152  0.00  0.00    +0.000 C 
BRANCH  29  32
ATOM     30  C   UNL     1      -9.745   0.850 122.582  0.00  0.00    +0.000 C 
ATOM     31  O   UNL     1     -10.892   0.455 122.769  0.00  0.00    +0.000 OA
ATOM     32  N   UNL     1      -8.739  -0.079 122.773  0.00  0.00    +0.000 N 
ATOM     33  H   UNL     1      -7.748   0.109 122.698  0.00  0.00    +0.000 HD
BRANCH  30  34
ATOM     34  C   UNL     1      -9.406   2.298 122.154  0.00  0.00    +0.000 C 
BRANCH  34  40
ATOM     35  C   UNL     1      -6.562   4.977 125.280  0.00  0.00    +0.000 C 
ATOM     36  N   UNL     1      -6.898   4.068 124.206  0.00  0.00    +0.000 N 
ATOM     37  C   UNL     1      -6.054   3.750 123.098  0.00  0.00    +0.000 C 
ATOM     38  C   UNL     1      -7.156   3.422 122.098  0.00  0.00    +0.000 C 
ATOM     39  O   UNL     1      -7.031   3.489 120.884  0.00  0.00    +0.000 OA
ATOM     40  N   UNL     1      -8.249   2.968 122.804  0.00  0.00    +0.000 N 
ATOM     41  C   UNL     1      -8.127   3.446 124.087  0.00  0.00    +0.000 C 
ATOM     42  O   UNL     1      -8.897   3.439 125.036  0.00  0.00    +0.000 OA
ENDBRANCH  34  40
ENDBRANCH  30  34
ENDBRANCH  29  32
ENDBRANCH   1  29
TORSDOF 6
ENDMDL
MODEL 4
REMARK VINA RESULT:      -9.7      1.952      2.575
REMARK  Name = CHEMBL262384
REMARK  7 active torsions:
REMARK  status: ('A' for Active; 'I' for Inactive)
REMARK    1  A    between atoms: C_1  and  N_2
REMARK    2  A    between atoms: N_6  and  C_7
REMARK    3  A    between atoms: C_7  and  C_8
REMARK    4  A    between atoms: N_10  and  C_11
REMARK    5  A    between atoms: C_11  and  C_12
REMARK    6  A    between atoms: C_16  and  C_17
REMARK    7  A    between atoms: C_22  and  N_23
REMARK                            x       y       z     vdW  Elec       q    Type
REMARK                         _______ _______ _______ _____ _____    ______ ____
ROOT
ATOM      1  C   UNL     1      -8.300   3.697 132.597  0.00  0.00    +0.000 A 
ATOM      2  C   UNL     1      -8.796   2.726 131.745  0.00  0.00    +0.000 A 
ATOM      3  C   UNL     1      -7.696   1.940 131.328  0.00  0.00    +0.000 A 
ATOM      4  C   UNL     1      -7.516   0.836 130.466  0.00  0.00    +0.000 A 
ATOM      5  C   UNL     1      -6.220   0.319 130.274  0.00  0.00    +0.000 A 
ATOM      6  C   UNL     1      -5.133   0.932 130.921  0.00  0.00    +0.000 A 
ATOM      7  C   UNL     1      -5.297   2.002 131.810  0.00  0.00    +0.000 A 
ATOM      8  C   UNL     1      -6.591   2.480 131.975  0.00  0.00    +0.000 A 
ATOM      9  O   UNL     1      -6.955   3.540 132.758  0.00  0.00    +0.000 OA
ENDROOT
BRANCH   5  10
ATOM     10  C   UNL     1      -6.035  -0.809 129.294  0.00  0.00    +0.000 C 
ATOM     11  O   UNL     1      -5.522  -1.866 129.651  0.00  0.00    +0.000 OA
ATOM     12  N   UNL     1      -6.557  -0.644 128.020  0.00  0.00    +0.000 N 
ATOM     13  C   UNL     1      -7.463  -1.649 127.475  0.00  0.00    +0.000 C 
ATOM     14  C   UNL     1      -6.946  -2.221 126.171  0.00  0.00    +0.000 C 
ATOM     15  C   UNL     1      -6.598  -1.102 125.169  0.00  0.00    +0.000 C 
ATOM     16  C   UNL     1      -5.613  -0.111 125.800  0.00  0.00    +0.000 C 
ATOM     17  C   UNL     1      -6.102   0.425 127.135  0.00  0.00    +0.000 C 
BRANCH  15  18
ATOM     18  N   UNL     1      -7.803  -0.502 124.506  0.00  0.00    +0.000 N 
ATOM     19  C   UNL     1      -9.052  -1.127 124.424  0.00  0.00    +0.000 C 
ATOM     20  O   UNL     1      -9.628  -1.776 125.284  0.00  0.00    +0.000 OA
ATOM     21  O   UNL     1      -9.615  -1.055 123.191  0.00  0.00    +0.000 OA
ATOM     22  C   UNL     1      -9.955   0.273 122.857  0.00  0.00    +0.000 C 
ATOM     23  C   UNL     1      -8.805   1.199 123.096  0.00  0.00    +0.000 A 
ATOM     24  C   UNL     1      -8.836   2.477 122.534  0.00  0.00    +0.000 A 
ATOM     25  C   UNL     1      -7.794   3.361 122.769  0.00  0.00    +0.000 A 
ATOM     26  C   UNL     1      -6.726   2.976 123.574  0.00  0.00    +0.000 A 
ATOM     27  C   UNL     1      -6.693   1.700 124.141  0.00  0.00    +0.000 A 
ATOM     28  C   UNL     1      -7.728   0.792 123.902  0.00  0.00    +0.000 A 
ENDBRANCH  15  18
ENDBRANCH   5  10
BRANCH   1  29
ATOM     29  C   UNL     1      -9.001   4.790 133.306  0.00  0.00    +0.000 C 
BRANCH  29  32
ATOM     30  C   UNL     1     -10.508   6.187 132.079  0.00  0.00    +0.000 C 
ATOM     31  O   UNL     1      -9.483   6.814 131.832  0.00  0.00    +0.000 OA
ATOM     32  N   UNL     1     -10.362   5.060 132.865  0.00  0.00    +0.000 N 
ATOM     33  H   UNL     1     -11.106   4.422 133.115  0.00  0.00    +0.000 HD
BRANCH  30  34
ATOM     34  C   UNL     1     -11.904   6.607 131.557  0.00  0.00    +0.000 C 
BRANCH  34  40
ATOM     35  C   UNL     1     -10.973   7.762 126.778  0.00  0.00    +0.000 C 
ATOM     36  N   UNL     1     -11.701   7.662 128.025  0.00  0.00    +0.000 N 
ATOM     37  C   UNL     1     -12.785   8.504 128.418  0.00  0.00    +0.000 C 
ATOM     38  C   UNL     1     -12.584   8.395 129.924  0.00  0.00    +0.000 C 
ATOM     39  O   UNL     1     -12.961   9.229 130.735  0.00  0.00    +0.000 OA
ATOM     40  N   UNL     1     -11.997   7.176 130.188  0.00  0.00    +0.000 N 
ATOM     41  C   UNL     1     -11.377   6.770 129.030  0.00  0.00    +0.000 C 
ATOM     42  O   UNL     1     -10.615   5.844 128.797  0.00  0.00    +0.000 OA
ENDBRANCH  34  40
ENDBRANCH  30  34
ENDBRANCH  29  32
ENDBRANCH   1  29
TORSDOF 6
ENDMDL
MODEL 5
REMARK VINA RESULT:      -9.7      2.027      9.547
REMARK  Name = CHEMBL262384
REMARK  7 active torsions:
REMARK  status: ('A' for Active; 'I' for Inactive)
REMARK    1  A    between atoms: C_1  and  N_2
REMARK    2  A    between atoms: N_6  and  C_7
REMARK    3  A    between atoms: C_7  and  C_8
REMARK    4  A    between atoms: N_10  and  C_11
REMARK    5  A    between atoms: C_11  and  C_12
REMARK    6  A    between atoms: C_16  and  C_17
REMARK    7  A    between atoms: C_22  and  N_23
REMARK                            x       y       z     vdW  Elec       q    Type
REMARK                         _______ _______ _______ _____ _____    ______ ____
ROOT
ATOM      1  C   UNL     1      -6.310  -1.516 129.641  0.00  0.00    +0.000 A 
ATOM      2  C   UNL     1      -6.655  -0.234 129.253  0.00  0.00    +0.000 A 
ATOM      3  C   UNL     1      -6.394   0.616 130.354  0.00  0.00    +0.000 A 
ATOM      4  C   UNL     1      -6.543   1.994 130.619  0.00  0.00    +0.000 A 
ATOM      5  C   UNL     1      -6.186   2.492 131.887  0.00  0.00    +0.000 A 
ATOM      6  C   UNL     1      -5.716   1.602 132.867  0.00  0.00    +0.000 A 
ATOM      7  C   UNL     1      -5.524   0.238 132.610  0.00  0.00    +0.000 A 
ATOM      8  C   UNL     1      -5.885  -0.213 131.347  0.00  0.00    +0.000 A 
ATOM      9  O   UNL     1      -5.819  -1.507 130.914  0.00  0.00    +0.000 OA
ENDROOT
BRANCH   5  10
ATOM     10  C   UNL     1      -6.422   3.951 132.178  0.00  0.00    +0.000 C 
ATOM     11  O   UNL     1      -5.682   4.560 132.946  0.00  0.00    +0.000 OA
ATOM     12  N   UNL     1      -7.428   4.591 131.472  0.00  0.00    +0.000 N 
ATOM     13  C   UNL     1      -7.129   5.816 130.738  0.00  0.00    +0.000 C 
ATOM     14  C   UNL     1      -8.001   6.968 131.190  0.00  0.00    +0.000 C 
ATOM     15  C   UNL     1      -9.494   6.585 131.160  0.00  0.00    +0.000 C 
ATOM     16  C   UNL     1      -9.734   5.315 131.984  0.00  0.00    +0.000 C 
ATOM     17  C   UNL     1      -8.824   4.171 131.571  0.00  0.00    +0.000 C 
BRANCH  15  18
ATOM     18  N   UNL     1     -10.081   6.594 129.778  0.00  0.00    +0.000 N 
ATOM     19  C   UNL     1      -9.656   5.766 128.734  0.00  0.00    +0.000 C 
ATOM     20  O   UNL     1      -9.348   4.585 128.787  0.00  0.00    +0.000 OA
ATOM     21  O   UNL     1      -9.494   6.420 127.555  0.00  0.00    +0.000 OA
ATOM     22  C   UNL     1     -10.726   6.881 127.049  0.00  0.00    +0.000 C 
ATOM     23  C   UNL     1     -11.495   7.623 128.095  0.00  0.00    +0.000 A 
ATOM     24  C   UNL     1     -12.573   8.420 127.707  0.00  0.00    +0.000 A 
ATOM     25  C   UNL     1     -13.317   9.092 128.666  0.00  0.00    +0.000 A 
ATOM     26  C   UNL     1     -12.993   8.960 130.013  0.00  0.00    +0.000 A 
ATOM     27  C   UNL     1     -11.917   8.160 130.406  0.00  0.00    +0.000 A 
ATOM     28  C   UNL     1     -11.149   7.489 129.451  0.00  0.00    +0.000 A 
ENDBRANCH  15  18
ENDBRANCH   5  10
BRANCH   1  29
ATOM     29  C   UNL     1      -6.391  -2.792 128.896  0.00  0.00    +0.000 C 
BRANCH  29  32
ATOM     30  C   UNL     1      -8.389  -3.199 127.642  0.00  0.00    +0.000 C 
ATOM     31  O   UNL     1      -8.809  -3.585 128.728  0.00  0.00    +0.000 OA
ATOM     32  N   UNL     1      -7.088  -2.734 127.618  0.00  0.00    +0.000 N 
ATOM     33  H   UNL     1      -6.620  -2.346 126.810  0.00  0.00    +0.000 HD
BRANCH  30  34
ATOM     34  C   UNL     1      -9.241  -3.216 126.349  0.00  0.00    +0.000 C 
BRANCH  34  40
ATOM     35  C   UNL     1      -6.337  -1.797 122.529  0.00  0.00    +0.000 C 
ATOM     36  N   UNL     1      -7.512  -1.890 123.368  0.00  0.00    +0.000 N 
ATOM     37  C   UNL     1      -8.559  -0.921 123.434  0.00  0.00    +0.000 C 
ATOM     38  C   UNL     1      -8.996  -1.199 124.866  0.00  0.00    +0.000 C 
ATOM     39  O   UNL     1      -9.570  -0.392 125.583  0.00  0.00    +0.000 OA
ATOM     40  N   UNL     1      -8.709  -2.517 125.151  0.00  0.00    +0.000 N 
ATOM     41  C   UNL     1      -7.725  -2.911 124.276  0.00  0.00    +0.000 C 
ATOM     42  O   UNL     1      -7.044  -3.924 124.219  0.00  0.00    +0.000 OA
ENDBRANCH  34  40
ENDBRANCH  30  34
ENDBRANCH  29  32
ENDBRANCH   1  29
TORSDOF 6
ENDMDL
MODEL 6
REMARK VINA RESULT:      -9.6      8.316     12.680
REMARK  Name = CHEMBL262384
REMARK  7 active torsions:
REMARK  status: ('A' for Active; 'I' for Inactive)
REMARK    1  A    between atoms: C_1  and  N_2
REMARK    2  A    between atoms: N_6  and  C_7
REMARK    3  A    between atoms: C_7  and  C_8
REMARK    4  A    between atoms: N_10  and  C_11
REMARK    5  A    between atoms: C_11  and  C_12
REMARK    6  A    between atoms: C_16  and  C_17
REMARK    7  A    between atoms: C_22  and  N_23
REMARK                            x       y       z     vdW  Elec       q    Type
REMARK                         _______ _______ _______ _____ _____    ______ ____
ROOT
ATOM      1  C   UNL     1      -3.986   3.567 127.496  0.00  0.00    +0.000 A 
ATOM      2  C   UNL     1      -3.906   3.279 128.846  0.00  0.00    +0.000 A 
ATOM      3  C   UNL     1      -3.238   4.364 129.462  0.00  0.00    +0.000 A 
ATOM      4  C   UNL     1      -2.825   4.679 130.775  0.00  0.00    +0.000 A 
ATOM      5  C   UNL     1      -2.139   5.886 131.008  0.00  0.00    +0.000 A 
ATOM      6  C   UNL     1      -1.854   6.735 129.925  0.00  0.00    +0.000 A 
ATOM      7  C   UNL     1      -2.290   6.459 128.622  0.00  0.00    +0.000 A 
ATOM      8  C   UNL     1      -2.966   5.261 128.434  0.00  0.00    +0.000 A 
ATOM      9  O   UNL     1      -3.431   4.787 127.240  0.00  0.00    +0.000 OA
ENDROOT
BRANCH   5  10
ATOM     10  C   UNL     1      -1.640   6.171 132.400  0.00  0.00    +0.000 C 
ATOM     11  O   UNL     1      -1.431   5.251 133.187  0.00  0.00    +0.000 OA
ATOM     12  N   UNL     1      -1.330   7.485 132.714  0.00  0.00    +0.000 N 
ATOM     13  C   UNL     1      -0.014   7.807 133.254  0.00  0.00    +0.000 C 
ATOM     14  C   UNL     1      -0.113   8.497 134.599  0.00  0.00    +0.000 C 
ATOM     15  C   UNL     1      -1.064   9.709 134.537  0.00  0.00    +0.000 C 
ATOM     16  C   UNL     1      -2.434   9.283 133.998  0.00  0.00    +0.000 C 
ATOM     17  C   UNL     1      -2.336   8.543 132.675  0.00  0.00    +0.000 C 
BRANCH  15  18
ATOM     18  N   UNL     1      -0.447  10.914 133.889  0.00  0.00    +0.000 N 
ATOM     19  C   UNL     1      -1.057  11.668 132.880  0.00  0.00    +0.000 C 
ATOM     20  O   UNL     1      -2.229  12.001 132.793  0.00  0.00    +0.000 OA
ATOM     21  O   UNL     1      -0.227  11.965 131.848  0.00  0.00    +0.000 OA
ATOM     22  C   UNL     1       0.804  12.838 132.251  0.00  0.00    +0.000 C 
ATOM     23  C   UNL     1       1.473  12.344 133.493  0.00  0.00    +0.000 A 
ATOM     24  C   UNL     1       2.705  12.888 133.862  0.00  0.00    +0.000 A 
ATOM     25  C   UNL     1       3.328  12.464 135.027  0.00  0.00    +0.000 A 
ATOM     26  C   UNL     1       2.716  11.507 135.830  0.00  0.00    +0.000 A 
ATOM     27  C   UNL     1       1.482  10.963 135.467  0.00  0.00    +0.000 A 
ATOM     28  C   UNL     1       0.849  11.368 134.289  0.00  0.00    +0.000 A 
ENDBRANCH  15  18
ENDBRANCH   5  10
BRANCH   1  29
ATOM     29  C   UNL     1      -4.566   2.778 126.386  0.00  0.00    +0.000 C 
BRANCH  29  32
ATOM     30  C   UNL     1      -6.698   2.889 125.303  0.00  0.00    +0.000 C 
ATOM     31  O   UNL     1      -6.027   3.309 124.365  0.00  0.00    +0.000 OA
ATOM     32  N   UNL     1      -6.004   2.558 126.451  0.00  0.00    +0.000 N 
ATOM     33  H   UNL     1      -6.412   2.160 127.286  0.00  0.00    +0.000 HD
BRANCH  30  34
ATOM     34  C   UNL     1      -8.236   2.726 125.239  0.00  0.00    +0.000 C 
BRANCH  34  40
ATOM     35  C   UNL     1      -9.238  -1.555 122.849  0.00  0.00    +0.000 C 
ATOM     36  N   UNL     1      -9.365  -0.169 123.245  0.00  0.00    +0.000 N 
ATOM     37  C   UNL     1      -9.991   0.857 122.471  0.00  0.00    +0.000 C 
ATOM     38  C   UNL     1      -9.189   2.032 123.016  0.00  0.00    +0.000 C 
ATOM     39  O   UNL     1      -9.012   3.085 122.421  0.00  0.00    +0.000 OA
ATOM     40  N   UNL     1      -8.795   1.719 124.300  0.00  0.00    +0.000 N 
ATOM     41  C   UNL     1      -8.822   0.349 124.405  0.00  0.00    +0.000 C 
ATOM     42  O   UNL     1      -8.429  -0.408 125.280  0.00  0.00    +0.000 OA
ENDBRANCH  34  40
ENDBRANCH  30  34
ENDBRANCH  29  32
ENDBRANCH   1  29
TORSDOF 6
ENDMDL
MODEL 7
REMARK VINA RESULT:      -9.5      3.406      8.646
REMARK  Name = CHEMBL262384
REMARK  7 active torsions:
REMARK  status: ('A' for Active; 'I' for Inactive)
REMARK    1  A    between atoms: C_1  and  N_2
REMARK    2  A    between atoms: N_6  and  C_7
REMARK    3  A    between atoms: C_7  and  C_8
REMARK    4  A    between atoms: N_10  and  C_11
REMARK    5  A    between atoms: C_11  and  C_12
REMARK    6  A    between atoms: C_16  and  C_17
REMARK    7  A    between atoms: C_22  and  N_23
REMARK                            x       y       z     vdW  Elec       q    Type
REMARK                         _______ _______ _______ _____ _____    ______ ____
ROOT
ATOM      1  C   UNL     1      -8.639  -1.606 125.278  0.00  0.00    +0.000 A 
ATOM      2  C   UNL     1      -8.203  -0.645 126.172  0.00  0.00    +0.000 A 
ATOM      3  C   UNL     1      -8.098  -1.272 127.436  0.00  0.00    +0.000 A 
ATOM      4  C   UNL     1      -7.741  -0.860 128.738  0.00  0.00    +0.000 A 
ATOM      5  C   UNL     1      -7.779  -1.796 129.789  0.00  0.00    +0.000 A 
ATOM      6  C   UNL     1      -8.200  -3.111 129.524  0.00  0.00    +0.000 A 
ATOM      7  C   UNL     1      -8.520  -3.548 128.231  0.00  0.00    +0.000 A 
ATOM      8  C   UNL     1      -8.466  -2.596 127.222  0.00  0.00    +0.000 A 
ATOM      9  O   UNL     1      -8.783  -2.806 125.910  0.00  0.00    +0.000 OA
ENDROOT
BRANCH   5  10
ATOM     10  C   UNL     1      -7.469  -1.323 131.185  0.00  0.00    +0.000 C 
ATOM     11  O   UNL     1      -7.094  -2.118 132.043  0.00  0.00    +0.000 OA
ATOM     12  N   UNL     1      -7.520   0.041 131.425  0.00  0.00    +0.000 N 
ATOM     13  C   UNL     1      -6.369   0.714 132.016  0.00  0.00    +0.000 C 
ATOM     14  C   UNL     1      -6.734   1.424 133.303  0.00  0.00    +0.000 C 
ATOM     15  C   UNL     1      -7.950   2.351 133.105  0.00  0.00    +0.000 C 
ATOM     16  C   UNL     1      -9.128   1.563 132.520  0.00  0.00    +0.000 C 
ATOM     17  C   UNL     1      -8.753   0.806 131.258  0.00  0.00    +0.000 C 
BRANCH  15  18
ATOM     18  N   UNL     1      -7.609   3.638 132.413  0.00  0.00    +0.000 N 
ATOM     19  C   UNL     1      -8.309   4.156 131.319  0.00  0.00    +0.000 C 
ATOM     20  O   UNL     1      -9.517   4.172 131.137  0.00  0.00    +0.000 OA
ATOM     21  O   UNL     1      -7.504   4.601 130.320  0.00  0.00    +0.000 OA
ATOM     22  C   UNL     1      -6.761   5.730 130.723  0.00  0.00    +0.000 C 
ATOM     23  C   UNL     1      -6.086   5.489 132.036  0.00  0.00    +0.000 A 
ATOM     24  C   UNL     1      -5.063   6.350 132.440  0.00  0.00    +0.000 A 
ATOM     25  C   UNL     1      -4.445   6.161 133.667  0.00  0.00    +0.000 A 
ATOM     26  C   UNL     1      -4.856   5.123 134.497  0.00  0.00    +0.000 A 
ATOM     27  C   UNL     1      -5.881   4.262 134.099  0.00  0.00    +0.000 A 
ATOM     28  C   UNL     1      -6.503   4.429 132.859  0.00  0.00    +0.000 A 
ENDBRANCH  15  18
ENDBRANCH   5  10
BRANCH   1  29
ATOM     29  C   UNL     1      -8.933  -1.499 123.832  0.00  0.00    +0.000 C 
BRANCH  29  32
ATOM     30  C   UNL     1      -9.440   0.734 123.134  0.00  0.00    +0.000 C 
ATOM     31  O   UNL     1     -10.527   0.484 123.647  0.00  0.00    +0.000 OA
ATOM     32  N   UNL     1      -8.492  -0.270 123.186  0.00  0.00    +0.000 N 
ATOM     33  H   UNL     1      -7.543  -0.196 122.846  0.00  0.00    +0.000 HD
BRANCH  30  34
ATOM     34  C   UNL     1      -9.116   2.087 122.456  0.00  0.00    +0.000 C 
BRANCH  34  40
ATOM     35  C   UNL     1      -6.450   5.200 125.328  0.00  0.00    +0.000 C 
ATOM     36  N   UNL     1      -6.730   4.210 124.311  0.00  0.00    +0.000 N 
ATOM     37  C   UNL     1      -5.905   3.932 123.178  0.00  0.00    +0.000 C 
ATOM     38  C   UNL     1      -7.006   3.442 122.247  0.00  0.00    +0.000 C 
ATOM     39  O   UNL     1      -6.941   3.464 121.026  0.00  0.00    +0.000 OA
ATOM     40  N   UNL     1      -8.012   2.906 123.022  0.00  0.00    +0.000 N 
ATOM     41  C   UNL     1      -7.888   3.455 124.276  0.00  0.00    +0.000 C 
ATOM     42  O   UNL     1      -8.612   3.410 125.260  0.00  0.00    +0.000 OA
ENDBRANCH  34  40
ENDBRANCH  30  34
ENDBRANCH  29  32
ENDBRANCH   1  29
TORSDOF 6
ENDMDL
MODEL 8
REMARK VINA RESULT:      -9.5      4.730      9.105
REMARK  Name = CHEMBL262384
REMARK  7 active torsions:
REMARK  status: ('A' for Active; 'I' for Inactive)
REMARK    1  A    between atoms: C_1  and  N_2
REMARK    2  A    between atoms: N_6  and  C_7
REMARK    3  A    between atoms: C_7  and  C_8
REMARK    4  A    between atoms: N_10  and  C_11
REMARK    5  A    between atoms: C_11  and  C_12
REMARK    6  A    between atoms: C_16  and  C_17
REMARK    7  A    between atoms: C_22  and  N_23
REMARK                            x       y       z     vdW  Elec       q    Type
REMARK                         _______ _______ _______ _____ _____    ______ ____
ROOT
ATOM      1  C   UNL     1      -7.762  -1.387 124.790  0.00  0.00    +0.000 A 
ATOM      2  C   UNL     1      -6.721  -1.271 125.693  0.00  0.00    +0.000 A 
ATOM      3  C   UNL     1      -7.039  -2.094 126.800  0.00  0.00    +0.000 A 
ATOM      4  C   UNL     1      -6.430  -2.399 128.036  0.00  0.00    +0.000 A 
ATOM      5  C   UNL     1      -7.081  -3.276 128.925  0.00  0.00    +0.000 A 
ATOM      6  C   UNL     1      -8.335  -3.804 128.573  0.00  0.00    +0.000 A 
ATOM      7  C   UNL     1      -8.937  -3.543 127.335  0.00  0.00    +0.000 A 
ATOM      8  C   UNL     1      -8.262  -2.677 126.486  0.00  0.00    +0.000 A 
ATOM      9  O   UNL     1      -8.699  -2.261 125.260  0.00  0.00    +0.000 OA
ENDROOT
BRANCH   5  10
ATOM     10  C   UNL     1      -6.454  -3.532 130.269  0.00  0.00    +0.000 C 
ATOM     11  O   UNL     1      -5.877  -4.592 130.496  0.00  0.00    +0.000 OA
ATOM     12  N   UNL     1      -6.464  -2.495 131.189  0.00  0.00    +0.000 N 
ATOM     13  C   UNL     1      -5.213  -2.063 131.805  0.00  0.00    +0.000 C 
ATOM     14  C   UNL     1      -5.271  -2.153 133.315  0.00  0.00    +0.000 C 
ATOM     15  C   UNL     1      -6.511  -1.425 133.872  0.00  0.00    +0.000 C 
ATOM     16  C   UNL     1      -7.785  -1.960 133.207  0.00  0.00    +0.000 C 
ATOM     17  C   UNL     1      -7.710  -1.923 131.690  0.00  0.00    +0.000 C 
BRANCH  15  18
ATOM     18  N   UNL     1      -6.360   0.068 133.899  0.00  0.00    +0.000 N 
ATOM     19  C   UNL     1      -7.028   0.945 133.038  0.00  0.00    +0.000 C 
ATOM     20  O   UNL     1      -8.188   0.892 132.660  0.00  0.00    +0.000 OA
ATOM     21  O   UNL     1      -6.224   1.904 132.510  0.00  0.00    +0.000 OA
ATOM     22  C   UNL     1      -5.768   2.796 133.503  0.00  0.00    +0.000 C 
ATOM     23  C   UNL     1      -5.203   2.056 134.673  0.00  0.00    +0.000 A 
ATOM     24  C   UNL     1      -4.421   2.748 135.600  0.00  0.00    +0.000 A 
ATOM     25  C   UNL     1      -3.914   2.086 136.708  0.00  0.00    +0.000 A 
ATOM     26  C   UNL     1      -4.197   0.737 136.899  0.00  0.00    +0.000 A 
ATOM     27  C   UNL     1      -4.982   0.042 135.976  0.00  0.00    +0.000 A 
ATOM     28  C   UNL     1      -5.488   0.690 134.847  0.00  0.00    +0.000 A 
ENDBRANCH  15  18
ENDBRANCH   5  10
BRANCH   1  29
ATOM     29  C   UNL     1      -7.960  -0.738 123.475  0.00  0.00    +0.000 C 
BRANCH  29  32
ATOM     30  C   UNL     1      -8.612   1.552 123.223  0.00  0.00    +0.000 C 
ATOM     31  O   UNL     1      -9.737   1.066 123.173  0.00  0.00    +0.000 OA
ATOM     32  N   UNL     1      -7.568   0.663 123.397  0.00  0.00    +0.000 N 
ATOM     33  H   UNL     1      -6.595   0.917 123.499  0.00  0.00    +0.000 HD
BRANCH  30  34
ATOM     34  C   UNL     1      -8.338   3.071 123.101  0.00  0.00    +0.000 C 
BRANCH  34  40
ATOM     35  C   UNL     1      -4.754   5.274 120.392  0.00  0.00    +0.000 C 
ATOM     36  N   UNL     1      -5.879   4.417 120.699  0.00  0.00    +0.000 N 
ATOM     37  C   UNL     1      -6.835   3.938 119.751  0.00  0.00    +0.000 C 
ATOM     38  C   UNL     1      -8.007   3.788 120.712  0.00  0.00    +0.000 C 
ATOM     39  O   UNL     1      -9.183   3.810 120.378  0.00  0.00    +0.000 OA
ATOM     40  N   UNL     1      -7.498   3.542 121.969  0.00  0.00    +0.000 N 
ATOM     41  C   UNL     1      -6.208   4.015 121.979  0.00  0.00    +0.000 C 
ATOM     42  O   UNL     1      -5.400   4.159 122.886  0.00  0.00    +0.000 OA
ENDBRANCH  34  40
ENDBRANCH  30  34
ENDBRANCH  29  32
ENDBRANCH   1  29
TORSDOF 6
ENDMDL
MODEL 9
REMARK VINA RESULT:      -9.5      3.018      8.915
REMARK  Name = CHEMBL262384
REMARK  7 active torsions:
REMARK  status: ('A' for Active; 'I' for Inactive)
REMARK    1  A    between atoms: C_1  and  N_2
REMARK    2  A    between atoms: N_6  and  C_7
REMARK    3  A    between atoms: C_7  and  C_8
REMARK    4  A    between atoms: N_10  and  C_11
REMARK    5  A    between atoms: C_11  and  C_12
REMARK    6  A    between atoms: C_16  and  C_17
REMARK    7  A    between atoms: C_22  and  N_23
REMARK                            x       y       z     vdW  Elec       q    Type
REMARK                         _______ _______ _______ _____ _____    ______ ____
ROOT
ATOM      1  C   UNL     1      -8.035  -2.700 127.940  0.00  0.00    +0.000 A 
ATOM      2  C   UNL     1      -7.932  -1.414 128.440  0.00  0.00    +0.000 A 
ATOM      3  C   UNL     1      -7.619  -1.529 129.815  0.00  0.00    +0.000 A 
ATOM      4  C   UNL     1      -7.408  -0.625 130.879  0.00  0.00    +0.000 A 
ATOM      5  C   UNL     1      -7.132  -1.129 132.164  0.00  0.00    +0.000 A 
ATOM      6  C   UNL     1      -7.101  -2.520 132.364  0.00  0.00    +0.000 A 
ATOM      7  C   UNL     1      -7.269  -3.432 131.314  0.00  0.00    +0.000 A 
ATOM      8  C   UNL     1      -7.536  -2.895 130.062  0.00  0.00    +0.000 A 
ATOM      9  O   UNL     1      -7.775  -3.610 128.922  0.00  0.00    +0.000 OA
ENDROOT
BRANCH   5  10
ATOM     10  C   UNL     1      -6.985  -0.154 133.302  0.00  0.00    +0.000 C 
ATOM     11  O   UNL     1      -6.645  -0.544 134.416  0.00  0.00    +0.000 OA
ATOM     12  N   UNL     1      -7.142   1.194 133.016  0.00  0.00    +0.000 N 
ATOM     13  C   UNL     1      -6.095   2.138 133.390  0.00  0.00    +0.000 C 
ATOM     14  C   UNL     1      -6.623   3.231 134.295  0.00  0.00    +0.000 C 
ATOM     15  C   UNL     1      -7.870   3.906 133.689  0.00  0.00    +0.000 C 
ATOM     16  C   UNL     1      -8.937   2.855 133.362  0.00  0.00    +0.000 C 
ATOM     17  C   UNL     1      -8.398   1.728 132.498  0.00  0.00    +0.000 C 
BRANCH  15  18
ATOM     18  N   UNL     1      -7.545   4.879 132.593  0.00  0.00    +0.000 N 
ATOM     19  C   UNL     1      -6.249   5.168 132.153  0.00  0.00    +0.000 C 
ATOM     20  O   UNL     1      -5.321   4.392 131.982  0.00  0.00    +0.000 OA
ATOM     21  O   UNL     1      -6.013   6.495 131.997  0.00  0.00    +0.000 OA
ATOM     22  C   UNL     1      -6.782   7.035 130.945  0.00  0.00    +0.000 C 
ATOM     23  C   UNL     1      -8.221   6.648 131.077  0.00  0.00    +0.000 A 
ATOM     24  C   UNL     1      -9.178   7.335 130.329  0.00  0.00    +0.000 A 
ATOM     25  C   UNL     1     -10.514   6.972 130.414  0.00  0.00    +0.000 A 
ATOM     26  C   UNL     1     -10.893   5.914 131.235  0.00  0.00    +0.000 A 
ATOM     27  C   UNL     1      -9.938   5.222 131.983  0.00  0.00    +0.000 A 
ATOM     28  C   UNL     1      -8.590   5.585 131.919  0.00  0.00    +0.000 A 
ENDBRANCH  15  18
ENDBRANCH   5  10
BRANCH   1  29
ATOM     29  C   UNL     1      -8.357  -3.168 126.574  0.00  0.00    +0.000 C 
BRANCH  29  32
ATOM     30  C   UNL     1      -8.801  -2.332 124.375  0.00  0.00    +0.000 C 
ATOM     31  O   UNL     1      -9.736  -3.126 124.429  0.00  0.00    +0.000 OA
ATOM     32  N   UNL     1      -7.991  -2.263 125.493  0.00  0.00    +0.000 N 
ATOM     33  H   UNL     1      -7.213  -1.630 125.612  0.00  0.00    +0.000 HD
BRANCH  30  34
ATOM     34  C   UNL     1      -8.515  -1.443 123.141  0.00  0.00    +0.000 C 
BRANCH  34  40
ATOM     35  C   UNL     1      -8.048   3.235 124.857  0.00  0.00    +0.000 C 
ATOM     36  N   UNL     1      -8.382   2.157 123.951  0.00  0.00    +0.000 N 
ATOM     37  C   UNL     1      -9.352   2.228 122.905  0.00  0.00    +0.000 C 
ATOM     38  C   UNL     1      -9.719   0.751 122.875  0.00  0.00    +0.000 C 
ATOM     39  O   UNL     1     -10.784   0.309 122.466  0.00  0.00    +0.000 OA
ATOM     40  N   UNL     1      -8.623   0.031 123.300  0.00  0.00    +0.000 N 
ATOM     41  C   UNL     1      -7.843   0.888 124.040  0.00  0.00    +0.000 C 
ATOM     42  O   UNL     1      -6.858   0.695 124.738  0.00  0.00    +0.000 OA
ENDBRANCH  34  40
ENDBRANCH  30  34
ENDBRANCH  29  32
ENDBRANCH   1  29
TORSDOF 6
ENDMDL
