MODEL 1
REMARK VINA RESULT:      -9.2      0.000      0.000
REMARK  Name = CHEMBL1779403
REMARK  14 active torsions:
REMARK  status: ('A' for Active; 'I' for Inactive)
REMARK    1  A    between atoms: C_1  and  O_2
REMARK    2  A    between atoms: O_2  and  C_3
REMARK    3  A    between atoms: C_6  and  S_7
REMARK    4  A    between atoms: S_7  and  N_10
REMARK    5  A    between atoms: C_13  and  C_14
REMARK    6  A    between atoms: C_13  and  N_22
REMARK    7  A    between atoms: C_19  and  O_20
REMARK    8  A    between atoms: O_20  and  C_21
REMARK    9  A    between atoms: C_24  and  O_25
REMARK   10  A    between atoms: C_27  and  C_28
REMARK   11  A    between atoms: N_30  and  C_31
REMARK   12  A    between atoms: N_30  and  C_32
REMARK   13  A    between atoms: C_40  and  O_41
REMARK   14  A    between atoms: O_41  and  C_42
REMARK                            x       y       z     vdW  Elec       q    Type
REMARK                         _______ _______ _______ _____ _____    ______ ____
ROOT
ATOM      1  N   UNL     1      -8.269   4.252 130.293  0.00  0.00    +0.000 N 
ATOM      2  C   UNL     1      -7.534   5.337 130.528  0.00  0.00    +0.000 C 
ATOM      3  O   UNL     1      -7.702   6.213 131.330  0.00  0.00    +0.000 OA
ATOM      4  C   UNL     1      -7.204   3.567 130.508  0.00  0.00    +0.000 C 
ATOM      5  C   UNL     1      -6.225   3.717 131.833  0.00  0.00    +0.000 A 
ATOM      6  C   UNL     1      -5.661   4.803 132.612  0.00  0.00    +0.000 A 
ATOM      7  C   UNL     1      -4.332   5.199 132.635  0.00  0.00    +0.000 A 
ATOM      8 CL   UNL     1      -3.922   6.715 133.323  0.00  0.00    +0.000 Cl
ATOM      9  C   UNL     1      -3.566   4.470 131.812  0.00  0.00    +0.000 A 
ATOM     10  C   UNL     1      -4.492   3.733 130.850  0.00  0.00    +0.000 A 
ATOM     11  C   UNL     1      -6.194   3.807 130.556  0.00  0.00    +0.000 A 
ENDROOT
BRANCH   4  12
ATOM     12  C   UNL     1      -7.557   2.058 131.012  0.00  0.00    +0.000 A 
ATOM     13  N   UNL     1      -8.932   1.946 131.322  0.00  0.00    +0.000 NA
ATOM     14  C   UNL     1      -9.338   0.779 131.802  0.00  0.00    +0.000 A 
ATOM     15  C   UNL     1      -8.435  -0.242 131.780  0.00  0.00    +0.000 A 
ATOM     16  N   UNL     1      -7.158  -0.173 131.267  0.00  0.00    +0.000 NA
ATOM     17  C   UNL     1      -6.713   1.014 130.840  0.00  0.00    +0.000 A 
BRANCH  17  18
ATOM     18  O   UNL     1      -5.489   1.042 130.225  0.00  0.00    +0.000 OA
ATOM     19  C   UNL     1      -4.944  -0.200 129.810  0.00  0.00    +0.000 C 
ENDBRANCH  17  18
ENDBRANCH   4  12
BRANCH   4  20
ATOM     20  N   UNL     1      -7.082   3.556 128.645  0.00  0.00    +0.000 NA
ATOM     21  C   UNL     1      -8.392   3.146 128.146  0.00  0.00    +0.000 C 
ATOM     22  C   UNL     1      -8.036   1.864 127.465  0.00  0.00    +0.000 C 
ATOM     23  C   UNL     1      -6.609   2.100 126.978  0.00  0.00    +0.000 C 
ATOM     24  C   UNL     1      -5.916   2.962 128.012  0.00  0.00    +0.000 C 
BRANCH  24  25
ATOM     25  C   UNL     1      -4.871   4.160 127.538  0.00  0.00    +0.000 C 
ATOM     26  O   UNL     1      -5.309   5.272 127.256  0.00  0.00    +0.000 OA
ATOM     27  N   UNL     1      -3.470   3.933 127.479  0.00  0.00    +0.000 N 
ATOM     28  C   UNL     1      -2.827   2.761 127.695  0.00  0.00    +0.000 C 
ATOM     29  C   UNL     1      -2.368   4.745 127.214  0.00  0.00    +0.000 C 
ENDBRANCH  24  25
BRANCH  22  30
ATOM     30  O   UNL     1      -8.030   0.765 128.338  0.00  0.00    +0.000 OA
ATOM     31  H   UNL     1      -8.779   0.938 128.952  0.00  0.00    +0.000 HD
ENDBRANCH  22  30
ENDBRANCH   4  20
BRANCH   1  32
ATOM     32  S   UNL     1     -10.272   5.136 130.819  0.00  0.00    +0.000 S 
ATOM     33  O   UNL     1     -10.367   5.133 132.267  0.00  0.00    +0.000 OA
ATOM     34  O   UNL     1     -11.410   4.555 130.107  0.00  0.00    +0.000 OA
BRANCH  32  38
ATOM     35  C   UNL     1     -12.789   9.219 129.437  0.00  0.00    +0.000 A 
ATOM     36  C   UNL     1     -13.200   8.591 130.605  0.00  0.00    +0.000 A 
ATOM     37  C   UNL     1     -12.427   7.458 131.093  0.00  0.00    +0.000 A 
ATOM     38  C   UNL     1     -11.242   6.924 130.368  0.00  0.00    +0.000 A 
ATOM     39  C   UNL     1     -10.973   7.510 129.182  0.00  0.00    +0.000 A 
ATOM     40  C   UNL     1     -11.701   8.659 128.759  0.00  0.00    +0.000 A 
BRANCH  35  42
ATOM     41  C   UNL     1     -13.609  11.347 130.086  0.00  0.00    +0.000 C 
ATOM     42  O   UNL     1     -13.370  10.399 129.033  0.00  0.00    +0.000 OA
ENDBRANCH  35  42
BRANCH  39  43
ATOM     43  O   UNL     1      -9.949   6.919 128.542  0.00  0.00    +0.000 OA
ATOM     44  C   UNL     1     -10.167   6.786 127.167  0.00  0.00    +0.000 C 
ENDBRANCH  39  43
ENDBRANCH  32  38
ENDBRANCH   1  32
TORSDOF 9
ENDMDL
MODEL 2
REMARK VINA RESULT:      -9.1      3.231      5.933
REMARK  Name = CHEMBL1779403
REMARK  14 active torsions:
REMARK  status: ('A' for Active; 'I' for Inactive)
REMARK    1  A    between atoms: C_1  and  O_2
REMARK    2  A    between atoms: O_2  and  C_3
REMARK    3  A    between atoms: C_6  and  S_7
REMARK    4  A    between atoms: S_7  and  N_10
REMARK    5  A    between atoms: C_13  and  C_14
REMARK    6  A    between atoms: C_13  and  N_22
REMARK    7  A    between atoms: C_19  and  O_20
REMARK    8  A    between atoms: O_20  and  C_21
REMARK    9  A    between atoms: C_24  and  O_25
REMARK   10  A    between atoms: C_27  and  C_28
REMARK   11  A    between atoms: N_30  and  C_31
REMARK   12  A    between atoms: N_30  and  C_32
REMARK   13  A    between atoms: C_40  and  O_41
REMARK   14  A    between atoms: O_41  and  C_42
REMARK                            x       y       z     vdW  Elec       q    Type
REMARK                         _______ _______ _______ _____ _____    ______ ____
ROOT
ATOM      1  N   UNL     1      -7.310   2.984 128.569  0.00  0.00    +0.000 N 
ATOM      2  C   UNL     1      -7.613   4.231 128.218  0.00  0.00    +0.000 C 
ATOM      3  O   UNL     1      -8.492   4.630 127.506  0.00  0.00    +0.000 OA
ATOM      4  C   UNL     1      -7.432   3.369 129.789  0.00  0.00    +0.000 C 
ATOM      5  C   UNL     1      -8.734   4.181 130.405  0.00  0.00    +0.000 A 
ATOM      6  C   UNL     1      -9.586   5.281 129.991  0.00  0.00    +0.000 A 
ATOM      7  C   UNL     1      -9.602   6.560 130.528  0.00  0.00    +0.000 A 
ATOM      8 CL   UNL     1     -10.404   7.814 129.678  0.00  0.00    +0.000 Cl
ATOM      9  C   UNL     1      -8.696   6.718 131.503  0.00  0.00    +0.000 A 
ATOM     10  C   UNL     1      -7.704   5.564 131.404  0.00  0.00    +0.000 A 
ATOM     11  C   UNL     1      -7.469   4.301 130.246  0.00  0.00    +0.000 A 
ENDROOT
BRANCH   4  12
ATOM     12  C   UNL     1      -7.816   2.127 130.770  0.00  0.00    +0.000 A 
ATOM     13  N   UNL     1      -8.056   0.954 130.019  0.00  0.00    +0.000 NA
ATOM     14  C   UNL     1      -8.437  -0.118 130.699  0.00  0.00    +0.000 A 
ATOM     15  C   UNL     1      -8.386  -0.035 132.058  0.00  0.00    +0.000 A 
ATOM     16  N   UNL     1      -7.936   1.051 132.779  0.00  0.00    +0.000 NA
ATOM     17  C   UNL     1      -7.611   2.162 132.108  0.00  0.00    +0.000 A 
BRANCH  17  18
ATOM     18  O   UNL     1      -7.055   3.188 132.825  0.00  0.00    +0.000 OA
ATOM     19  C   UNL     1      -6.620   2.897 134.144  0.00  0.00    +0.000 C 
ENDBRANCH  17  18
ENDBRANCH   4  12
BRANCH   4  20
ATOM     20  N   UNL     1      -5.572   3.513 129.714  0.00  0.00    +0.000 NA
ATOM     21  C   UNL     1      -5.071   2.203 129.308  0.00  0.00    +0.000 C 
ATOM     22  C   UNL     1      -4.280   1.825 130.519  0.00  0.00    +0.000 C 
ATOM     23  C   UNL     1      -3.783   3.165 131.055  0.00  0.00    +0.000 C 
ATOM     24  C   UNL     1      -4.867   4.188 130.793  0.00  0.00    +0.000 C 
BRANCH  24  25
ATOM     25  C   UNL     1      -4.470   5.726 130.318  0.00  0.00    +0.000 C 
ATOM     26  O   UNL     1      -4.683   6.080 129.162  0.00  0.00    +0.000 OA
ATOM     27  N   UNL     1      -3.910   6.657 131.234  0.00  0.00    +0.000 N 
ATOM     28  C   UNL     1      -3.555   6.419 132.519  0.00  0.00    +0.000 C 
ATOM     29  C   UNL     1      -3.568   8.007 131.156  0.00  0.00    +0.000 C 
ENDBRANCH  24  25
BRANCH  22  30
ATOM     30  O   UNL     1      -5.060   1.213 131.512  0.00  0.00    +0.000 OA
ATOM     31  H   UNL     1      -5.474   0.445 131.057  0.00  0.00    +0.000 HD
ENDBRANCH  22  30
ENDBRANCH   4  20
BRANCH   1  32
ATOM     32  S   UNL     1      -7.969   1.975 126.668  0.00  0.00    +0.000 S 
ATOM     33  O   UNL     1      -9.278   1.403 126.926  0.00  0.00    +0.000 OA
ATOM     34  O   UNL     1      -6.987   1.067 126.076  0.00  0.00    +0.000 OA
BRANCH  32  38
ATOM     35  C   UNL     1      -8.199   3.211 121.837  0.00  0.00    +0.000 A 
ATOM     36  C   UNL     1      -9.180   2.353 122.316  0.00  0.00    +0.000 A 
ATOM     37  C   UNL     1      -9.206   2.051 123.739  0.00  0.00    +0.000 A 
ATOM     38  C   UNL     1      -8.198   2.592 124.691  0.00  0.00    +0.000 A 
ATOM     39  C   UNL     1      -7.208   3.323 124.136  0.00  0.00    +0.000 A 
ATOM     40  C   UNL     1      -7.242   3.661 122.753  0.00  0.00    +0.000 A 
BRANCH  35  42
ATOM     41  C   UNL     1      -6.970   4.067 119.998  0.00  0.00    +0.000 C 
ATOM     42  O   UNL     1      -8.241   3.672 120.541  0.00  0.00    +0.000 OA
ENDBRANCH  35  42
BRANCH  39  43
ATOM     43  O   UNL     1      -6.286   3.701 125.039  0.00  0.00    +0.000 OA
ATOM     44  C   UNL     1      -6.063   5.082 125.048  0.00  0.00    +0.000 C 
ENDBRANCH  39  43
ENDBRANCH  32  38
ENDBRANCH   1  32
TORSDOF 9
ENDMDL
MODEL 3
REMARK VINA RESULT:      -9.0      2.658      3.572
REMARK  Name = CHEMBL1779403
REMARK  14 active torsions:
REMARK  status: ('A' for Active; 'I' for Inactive)
REMARK    1  A    between atoms: C_1  and  O_2
REMARK    2  A    between atoms: O_2  and  C_3
REMARK    3  A    between atoms: C_6  and  S_7
REMARK    4  A    between atoms: S_7  and  N_10
REMARK    5  A    between atoms: C_13  and  C_14
REMARK    6  A    between atoms: C_13  and  N_22
REMARK    7  A    between atoms: C_19  and  O_20
REMARK    8  A    between atoms: O_20  and  C_21
REMARK    9  A    between atoms: C_24  and  O_25
REMARK   10  A    between atoms: C_27  and  C_28
REMARK   11  A    between atoms: N_30  and  C_31
REMARK   12  A    between atoms: N_30  and  C_32
REMARK   13  A    between atoms: C_40  and  O_41
REMARK   14  A    between atoms: O_41  and  C_42
REMARK                            x       y       z     vdW  Elec       q    Type
REMARK                         _______ _______ _______ _____ _____    ______ ____
ROOT
ATOM      1  N   UNL     1      -7.575   3.121 128.004  0.00  0.00    +0.000 N 
ATOM      2  C   UNL     1      -6.822   4.215 127.926  0.00  0.00    +0.000 C 
ATOM      3  O   UNL     1      -6.501   4.983 128.789  0.00  0.00    +0.000 OA
ATOM      4  C   UNL     1      -6.581   2.482 127.500  0.00  0.00    +0.000 C 
ATOM      5  C   UNL     1      -5.027   2.541 128.063  0.00  0.00    +0.000 A 
ATOM      6  C   UNL     1      -4.110   3.564 128.528  0.00  0.00    +0.000 A 
ATOM      7  C   UNL     1      -2.990   4.036 127.859  0.00  0.00    +0.000 A 
ATOM      8 CL   UNL     1      -2.247   5.486 128.389  0.00  0.00    +0.000 Cl
ATOM      9  C   UNL     1      -2.825   3.452 126.664  0.00  0.00    +0.000 A 
ATOM     10  C   UNL     1      -4.140   2.773 126.294  0.00  0.00    +0.000 A 
ATOM     11  C   UNL     1      -5.715   2.776 127.009  0.00  0.00    +0.000 A 
ENDROOT
BRANCH   4  12
ATOM     12  C   UNL     1      -6.612   0.907 127.918  0.00  0.00    +0.000 A 
ATOM     13  N   UNL     1      -7.584   0.676 128.919  0.00  0.00    +0.000 NA
ATOM     14  C   UNL     1      -7.667  -0.560 129.389  0.00  0.00    +0.000 A 
ATOM     15  C   UNL     1      -6.940  -1.515 128.743  0.00  0.00    +0.000 A 
ATOM     16  N   UNL     1      -6.162  -1.310 127.624  0.00  0.00    +0.000 NA
ATOM     17  C   UNL     1      -6.016  -0.057 127.178  0.00  0.00    +0.000 A 
BRANCH  17  18
ATOM     18  O   UNL     1      -5.340   0.115 125.999  0.00  0.00    +0.000 OA
ATOM     19  C   UNL     1      -5.199  -1.020 125.161  0.00  0.00    +0.000 C 
ENDBRANCH  17  18
ENDBRANCH   4  12
BRANCH   4  20
ATOM     20  N   UNL     1      -7.522   2.689 125.901  0.00  0.00    +0.000 NA
ATOM     21  C   UNL     1      -8.874   2.194 126.148  0.00  0.00    +0.000 C 
ATOM     22  C   UNL     1      -8.921   1.041 125.198  0.00  0.00    +0.000 C 
ATOM     23  C   UNL     1      -8.019   1.485 124.050  0.00  0.00    +0.000 C 
ATOM     24  C   UNL     1      -6.892   2.299 124.650  0.00  0.00    +0.000 C 
BRANCH  24  25
ATOM     25  C   UNL     1      -6.329   3.650 123.869  0.00  0.00    +0.000 C 
ATOM     26  O   UNL     1      -6.261   4.717 124.473  0.00  0.00    +0.000 OA
ATOM     27  N   UNL     1      -5.894   3.591 122.518  0.00  0.00    +0.000 N 
ATOM     28  C   UNL     1      -5.956   2.520 121.691  0.00  0.00    +0.000 C 
ATOM     29  C   UNL     1      -5.303   4.508 121.649  0.00  0.00    +0.000 C 
ENDBRANCH  24  25
BRANCH  22  30
ATOM     30  O   UNL     1      -8.394  -0.140 125.744  0.00  0.00    +0.000 OA
ATOM     31  H   UNL     1      -9.188  -0.673 125.980  0.00  0.00    +0.000 HD
ENDBRANCH  22  30
ENDBRANCH   4  20
BRANCH   1  32
ATOM     32  S   UNL     1      -8.931   3.816 129.661  0.00  0.00    +0.000 S 
ATOM     33  O   UNL     1      -8.152   3.780 130.886  0.00  0.00    +0.000 OA
ATOM     34  O   UNL     1     -10.232   3.150 129.717  0.00  0.00    +0.000 OA
BRANCH  32  38
ATOM     35  C   UNL     1     -11.975   7.738 130.177  0.00  0.00    +0.000 A 
ATOM     36  C   UNL     1     -11.917   6.842 131.236  0.00  0.00    +0.000 A 
ATOM     37  C   UNL     1     -10.966   5.743 131.164  0.00  0.00    +0.000 A 
ATOM     38  C   UNL     1     -10.086   5.519 129.985  0.00  0.00    +0.000 A 
ATOM     39  C   UNL     1     -10.281   6.361 128.947  0.00  0.00    +0.000 A 
ATOM     40  C   UNL     1     -11.167   7.469 129.067  0.00  0.00    +0.000 A 
BRANCH  35  42
ATOM     41  C   UNL     1     -13.072   9.491 129.016  0.00  0.00    +0.000 C 
ATOM     42  O   UNL     1     -12.719   8.892 130.274  0.00  0.00    +0.000 OA
ENDBRANCH  35  42
BRANCH  39  43
ATOM     43  O   UNL     1      -9.519   6.044 127.886  0.00  0.00    +0.000 OA
ATOM     44  C   UNL     1     -10.013   6.562 126.683  0.00  0.00    +0.000 C 
ENDBRANCH  39  43
ENDBRANCH  32  38
ENDBRANCH   1  32
TORSDOF 9
ENDMDL
MODEL 4
REMARK VINA RESULT:      -8.8      2.296      3.584
REMARK  Name = CHEMBL1779403
REMARK  14 active torsions:
REMARK  status: ('A' for Active; 'I' for Inactive)
REMARK    1  A    between atoms: C_1  and  O_2
REMARK    2  A    between atoms: O_2  and  C_3
REMARK    3  A    between atoms: C_6  and  S_7
REMARK    4  A    between atoms: S_7  and  N_10
REMARK    5  A    between atoms: C_13  and  C_14
REMARK    6  A    between atoms: C_13  and  N_22
REMARK    7  A    between atoms: C_19  and  O_20
REMARK    8  A    between atoms: O_20  and  C_21
REMARK    9  A    between atoms: C_24  and  O_25
REMARK   10  A    between atoms: C_27  and  C_28
REMARK   11  A    between atoms: N_30  and  C_31
REMARK   12  A    between atoms: N_30  and  C_32
REMARK   13  A    between atoms: C_40  and  O_41
REMARK   14  A    between atoms: O_41  and  C_42
REMARK                            x       y       z     vdW  Elec       q    Type
REMARK                         _______ _______ _______ _____ _____    ______ ____
ROOT
ATOM      1  N   UNL     1      -7.173   4.950 130.685  0.00  0.00    +0.000 N 
ATOM      2  C   UNL     1      -7.441   5.969 131.498  0.00  0.00    +0.000 C 
ATOM      3  O   UNL     1      -8.498   6.369 131.897  0.00  0.00    +0.000 OA
ATOM      4  C   UNL     1      -6.422   4.489 131.619  0.00  0.00    +0.000 C 
ATOM      5  C   UNL     1      -6.881   4.280 133.195  0.00  0.00    +0.000 A 
ATOM      6  C   UNL     1      -7.622   5.035 134.189  0.00  0.00    +0.000 A 
ATOM      7  C   UNL     1      -7.097   5.665 135.307  0.00  0.00    +0.000 A 
ATOM      8 CL   UNL     1      -8.059   6.803 136.155  0.00  0.00    +0.000 Cl
ATOM      9  C   UNL     1      -5.766   5.534 135.392  0.00  0.00    +0.000 A 
ATOM     10  C   UNL     1      -5.258   5.084 134.026  0.00  0.00    +0.000 A 
ATOM     11  C   UNL     1      -6.016   4.900 132.482  0.00  0.00    +0.000 A 
ENDROOT
BRANCH   4  12
ATOM     12  C   UNL     1      -6.264   2.871 131.512  0.00  0.00    +0.000 A 
ATOM     13  N   UNL     1      -7.182   2.341 130.577  0.00  0.00    +0.000 NA
ATOM     14  C   UNL     1      -7.195   1.023 130.440  0.00  0.00    +0.000 A 
ATOM     15  C   UNL     1      -6.208   0.329 131.075  0.00  0.00    +0.000 A 
ATOM     16  N   UNL     1      -5.182   0.884 131.810  0.00  0.00    +0.000 NA
ATOM     17  C   UNL     1      -5.194   2.206 132.011  0.00  0.00    +0.000 A 
BRANCH  17  18
ATOM     18  O   UNL     1      -4.109   2.756 132.639  0.00  0.00    +0.000 OA
ATOM     19  C   UNL     1      -3.108   1.864 133.103  0.00  0.00    +0.000 C 
ENDBRANCH  17  18
ENDBRANCH   4  12
BRANCH   4  20
ATOM     20  N   UNL     1      -5.053   5.285 130.632  0.00  0.00    +0.000 NA
ATOM     21  C   UNL     1      -5.215   4.828 129.254  0.00  0.00    +0.000 C 
ATOM     22  C   UNL     1      -3.942   4.069 129.066  0.00  0.00    +0.000 C 
ATOM     23  C   UNL     1      -2.946   4.812 129.953  0.00  0.00    +0.000 C 
ATOM     24  C   UNL     1      -3.702   5.299 131.171  0.00  0.00    +0.000 C 
BRANCH  24  25
ATOM     25  C   UNL     1      -3.377   6.792 131.815  0.00  0.00    +0.000 C 
ATOM     26  O   UNL     1      -3.967   7.780 131.386  0.00  0.00    +0.000 OA
ATOM     27  N   UNL     1      -2.448   6.949 132.878  0.00  0.00    +0.000 N 
ATOM     28  C   UNL     1      -1.671   5.984 133.425  0.00  0.00    +0.000 C 
ATOM     29  C   UNL     1      -2.046   8.029 133.663  0.00  0.00    +0.000 C 
ENDBRANCH  24  25
BRANCH  22  30
ATOM     30  O   UNL     1      -4.025   2.741 129.511  0.00  0.00    +0.000 OA
ATOM     31  H   UNL     1      -4.961   2.486 129.339  0.00  0.00    +0.000 HD
ENDBRANCH  22  30
ENDBRANCH   4  20
BRANCH   1  32
ATOM     32  S   UNL     1      -9.043   5.072 129.437  0.00  0.00    +0.000 S 
ATOM     33  O   UNL     1      -9.886   3.957 129.831  0.00  0.00    +0.000 OA
ATOM     34  O   UNL     1      -8.819   5.222 128.000  0.00  0.00    +0.000 OA
BRANCH  32  38
ATOM     35  C   UNL     1     -12.317   8.808 128.941  0.00  0.00    +0.000 A 
ATOM     36  C   UNL     1     -11.307   8.724 127.992  0.00  0.00    +0.000 A 
ATOM     37  C   UNL     1     -10.395   7.591 128.045  0.00  0.00    +0.000 A 
ATOM     38  C   UNL     1     -10.478   6.544 129.099  0.00  0.00    +0.000 A 
ATOM     39  C   UNL     1     -11.410   6.754 130.054  0.00  0.00    +0.000 A 
ATOM     40  C   UNL     1     -12.334   7.832 129.943  0.00  0.00    +0.000 A 
BRANCH  35  42
ATOM     41  C   UNL     1     -13.348  10.723 129.886  0.00  0.00    +0.000 C 
ATOM     42  O   UNL     1     -13.311   9.752 128.827  0.00  0.00    +0.000 OA
ENDBRANCH  35  42
BRANCH  39  43
ATOM     43  O   UNL     1     -11.367   5.820 131.021  0.00  0.00    +0.000 OA
ATOM     44  C   UNL     1     -11.624   6.339 132.294  0.00  0.00    +0.000 C 
ENDBRANCH  39  43
ENDBRANCH  32  38
ENDBRANCH   1  32
TORSDOF 9
ENDMDL
MODEL 5
REMARK VINA RESULT:      -8.7      3.621      6.918
REMARK  Name = CHEMBL1779403
REMARK  14 active torsions:
REMARK  status: ('A' for Active; 'I' for Inactive)
REMARK    1  A    between atoms: C_1  and  O_2
REMARK    2  A    between atoms: O_2  and  C_3
REMARK    3  A    between atoms: C_6  and  S_7
REMARK    4  A    between atoms: S_7  and  N_10
REMARK    5  A    between atoms: C_13  and  C_14
REMARK    6  A    between atoms: C_13  and  N_22
REMARK    7  A    between atoms: C_19  and  O_20
REMARK    8  A    between atoms: O_20  and  C_21
REMARK    9  A    between atoms: C_24  and  O_25
REMARK   10  A    between atoms: C_27  and  C_28
REMARK   11  A    between atoms: N_30  and  C_31
REMARK   12  A    between atoms: N_30  and  C_32
REMARK   13  A    between atoms: C_40  and  O_41
REMARK   14  A    between atoms: O_41  and  C_42
REMARK                            x       y       z     vdW  Elec       q    Type
REMARK                         _______ _______ _______ _____ _____    ______ ____
ROOT
ATOM      1  N   UNL     1      -6.540   3.855 126.817  0.00  0.00    +0.000 N 
ATOM      2  C   UNL     1      -7.267   4.948 127.034  0.00  0.00    +0.000 C 
ATOM      3  O   UNL     1      -8.421   5.159 126.784  0.00  0.00    +0.000 OA
ATOM      4  C   UNL     1      -6.288   3.853 128.077  0.00  0.00    +0.000 C 
ATOM      5  C   UNL     1      -7.424   3.950 129.276  0.00  0.00    +0.000 A 
ATOM      6  C   UNL     1      -8.624   4.725 129.535  0.00  0.00    +0.000 A 
ATOM      7  C   UNL     1      -8.768   5.733 130.477  0.00  0.00    +0.000 A 
ATOM      8 CL   UNL     1     -10.128   6.772 130.389  0.00  0.00    +0.000 Cl
ATOM      9  C   UNL     1      -7.636   5.966 131.155  0.00  0.00    +0.000 A 
ATOM     10  C   UNL     1      -6.490   5.321 130.380  0.00  0.00    +0.000 A 
ATOM     11  C   UNL     1      -6.391   4.562 128.830  0.00  0.00    +0.000 A 
ENDROOT
BRANCH   4  12
ATOM     12  C   UNL     1      -5.935   2.356 128.612  0.00  0.00    +0.000 A 
ATOM     13  N   UNL     1      -4.891   2.400 129.564  0.00  0.00    +0.000 NA
ATOM     14  C   UNL     1      -4.469   1.235 130.035  0.00  0.00    +0.000 A 
ATOM     15  C   UNL     1      -5.195   0.134 129.694  0.00  0.00    +0.000 A 
ATOM     16  N   UNL     1      -6.349   0.136 128.939  0.00  0.00    +0.000 NA
ATOM     17  C   UNL     1      -6.749   1.294 128.403  0.00  0.00    +0.000 A 
BRANCH  17  18
ATOM     18  O   UNL     1      -7.957   1.303 127.756  0.00  0.00    +0.000 OA
ATOM     19  C   UNL     1      -8.544   0.045 127.463  0.00  0.00    +0.000 C 
ENDBRANCH  17  18
ENDBRANCH   4  12
BRANCH   4  20
ATOM     20  N   UNL     1      -4.702   4.685 127.552  0.00  0.00    +0.000 NA
ATOM     21  C   UNL     1      -4.365   4.144 126.239  0.00  0.00    +0.000 C 
ATOM     22  C   UNL     1      -3.070   3.462 126.547  0.00  0.00    +0.000 C 
ATOM     23  C   UNL     1      -2.471   4.318 127.660  0.00  0.00    +0.000 C 
ATOM     24  C   UNL     1      -3.618   4.819 128.512  0.00  0.00    +0.000 C 
BRANCH  24  25
ATOM     25  C   UNL     1      -3.599   6.364 129.116  0.00  0.00    +0.000 C 
ATOM     26  O   UNL     1      -3.991   7.294 128.416  0.00  0.00    +0.000 OA
ATOM     27  N   UNL     1      -3.165   6.631 130.441  0.00  0.00    +0.000 N 
ATOM     28  C   UNL     1      -2.647   5.740 131.321  0.00  0.00    +0.000 C 
ATOM     29  C   UNL     1      -3.123   7.777 131.235  0.00  0.00    +0.000 C 
ENDBRANCH  24  25
BRANCH  22  30
ATOM     30  O   UNL     1      -3.241   2.158 127.036  0.00  0.00    +0.000 OA
ATOM     31  H   UNL     1      -4.191   1.959 126.869  0.00  0.00    +0.000 HD
ENDBRANCH  22  30
ENDBRANCH   4  20
BRANCH   1  32
ATOM     32  S   UNL     1      -7.582   3.178 124.940  0.00  0.00    +0.000 S 
ATOM     33  O   UNL     1      -6.963   3.887 123.835  0.00  0.00    +0.000 OA
ATOM     34  O   UNL     1      -9.043   3.232 124.989  0.00  0.00    +0.000 OA
BRANCH  32  38
ATOM     35  C   UNL     1      -8.536  -1.404 123.204  0.00  0.00    +0.000 A 
ATOM     36  C   UNL     1      -9.492  -0.427 122.962  0.00  0.00    +0.000 A 
ATOM     37  C   UNL     1      -9.203   0.942 123.363  0.00  0.00    +0.000 A 
ATOM     38  C   UNL     1      -7.944   1.325 124.058  0.00  0.00    +0.000 A 
ATOM     39  C   UNL     1      -7.116   0.304 124.365  0.00  0.00    +0.000 A 
ATOM     40  C   UNL     1      -7.387  -1.016 123.902  0.00  0.00    +0.000 A 
BRANCH  35  42
ATOM     41  C   UNL     1      -9.587  -3.521 123.403  0.00  0.00    +0.000 C 
ATOM     42  O   UNL     1      -8.679  -2.670 122.684  0.00  0.00    +0.000 OA
ENDBRANCH  35  42
BRANCH  39  43
ATOM     43  O   UNL     1      -6.046   0.710 125.070  0.00  0.00    +0.000 OA
ATOM     44  C   UNL     1      -5.286  -0.352 125.572  0.00  0.00    +0.000 C 
ENDBRANCH  39  43
ENDBRANCH  32  38
ENDBRANCH   1  32
TORSDOF 9
ENDMDL
MODEL 6
REMARK VINA RESULT:      -8.7      3.547      7.376
REMARK  Name = CHEMBL1779403
REMARK  14 active torsions:
REMARK  status: ('A' for Active; 'I' for Inactive)
REMARK    1  A    between atoms: C_1  and  O_2
REMARK    2  A    between atoms: O_2  and  C_3
REMARK    3  A    between atoms: C_6  and  S_7
REMARK    4  A    between atoms: S_7  and  N_10
REMARK    5  A    between atoms: C_13  and  C_14
REMARK    6  A    between atoms: C_13  and  N_22
REMARK    7  A    between atoms: C_19  and  O_20
REMARK    8  A    between atoms: O_20  and  C_21
REMARK    9  A    between atoms: C_24  and  O_25
REMARK   10  A    between atoms: C_27  and  C_28
REMARK   11  A    between atoms: N_30  and  C_31
REMARK   12  A    between atoms: N_30  and  C_32
REMARK   13  A    between atoms: C_40  and  O_41
REMARK   14  A    between atoms: O_41  and  C_42
REMARK                            x       y       z     vdW  Elec       q    Type
REMARK                         _______ _______ _______ _____ _____    ______ ____
ROOT
ATOM      1  N   UNL     1      -5.637   1.863 130.876  0.00  0.00    +0.000 N 
ATOM      2  C   UNL     1      -4.417   1.583 130.423  0.00  0.00    +0.000 C 
ATOM      3  O   UNL     1      -4.068   0.745 129.638  0.00  0.00    +0.000 OA
ATOM      4  C   UNL     1      -5.445   3.061 130.455  0.00  0.00    +0.000 C 
ATOM      5  C   UNL     1      -4.940   3.467 128.933  0.00  0.00    +0.000 A 
ATOM      6  C   UNL     1      -3.943   2.996 127.990  0.00  0.00    +0.000 A 
ATOM      7  C   UNL     1      -2.768   3.644 127.640  0.00  0.00    +0.000 A 
ATOM      8 CL   UNL     1      -1.552   2.775 126.799  0.00  0.00    +0.000 Cl
ATOM      9  C   UNL     1      -2.603   4.799 128.299  0.00  0.00    +0.000 A 
ATOM     10  C   UNL     1      -3.562   4.796 129.485  0.00  0.00    +0.000 A 
ATOM     11  C   UNL     1      -4.602   3.592 130.162  0.00  0.00    +0.000 A 
ENDROOT
BRANCH   4  12
ATOM     12  C   UNL     1      -6.855   3.809 130.124  0.00  0.00    +0.000 A 
ATOM     13  N   UNL     1      -7.937   2.907 130.244  0.00  0.00    +0.000 NA
ATOM     14  C   UNL     1      -9.138   3.380 129.942  0.00  0.00    +0.000 A 
ATOM     15  C   UNL     1      -9.234   4.721 129.721  0.00  0.00    +0.000 A 
ATOM     16  N   UNL     1      -8.199   5.627 129.824  0.00  0.00    +0.000 NA
ATOM     17  C   UNL     1      -6.971   5.157 130.063  0.00  0.00    +0.000 A 
BRANCH  17  18
ATOM     18  O   UNL     1      -5.978   6.075 130.281  0.00  0.00    +0.000 OA
ATOM     19  C   UNL     1      -6.338   7.274 130.947  0.00  0.00    +0.000 C 
ENDBRANCH  17  18
ENDBRANCH   4  12
BRANCH   4  20
ATOM     20  N   UNL     1      -5.001   3.396 132.237  0.00  0.00    +0.000 NA
ATOM     21  C   UNL     1      -6.047   2.781 133.048  0.00  0.00    +0.000 C 
ATOM     22  C   UNL     1      -6.628   3.989 133.709  0.00  0.00    +0.000 C 
ATOM     23  C   UNL     1      -5.436   4.934 133.840  0.00  0.00    +0.000 C 
ATOM     24  C   UNL     1      -4.561   4.728 132.622  0.00  0.00    +0.000 C 
BRANCH  24  25
ATOM     25  C   UNL     1      -2.909   4.746 132.766  0.00  0.00    +0.000 C 
ATOM     26  O   UNL     1      -2.308   3.702 133.005  0.00  0.00    +0.000 OA
ATOM     27  N   UNL     1      -2.168   5.945 132.588  0.00  0.00    +0.000 N 
ATOM     28  C   UNL     1      -2.669   7.186 132.382  0.00  0.00    +0.000 C 
ATOM     29  C   UNL     1      -0.807   6.247 132.558  0.00  0.00    +0.000 C 
ENDBRANCH  24  25
BRANCH  22  30
ATOM     30  O   UNL     1      -7.610   4.620 132.931  0.00  0.00    +0.000 OA
ATOM     31  H   UNL     1      -7.568   5.564 133.207  0.00  0.00    +0.000 HD
ENDBRANCH  22  30
ENDBRANCH   4  20
BRANCH   1  32
ATOM     32  S   UNL     1      -6.470  -0.228 130.786  0.00  0.00    +0.000 S 
ATOM     33  O   UNL     1      -7.399  -0.359 131.893  0.00  0.00    +0.000 OA
ATOM     34  O   UNL     1      -5.469  -1.288 130.669  0.00  0.00    +0.000 OA
BRANCH  32  38
ATOM     35  C   UNL     1      -8.433  -2.994 127.124  0.00  0.00    +0.000 A 
ATOM     36  C   UNL     1      -8.399  -3.559 128.392  0.00  0.00    +0.000 A 
ATOM     37  C   UNL     1      -7.928  -2.745 129.503  0.00  0.00    +0.000 A 
ATOM     38  C   UNL     1      -7.444  -1.349 129.325  0.00  0.00    +0.000 A 
ATOM     39  C   UNL     1      -7.396  -0.908 128.050  0.00  0.00    +0.000 A 
ATOM     40  C   UNL     1      -7.926  -1.697 126.989  0.00  0.00    +0.000 A 
BRANCH  35  42
ATOM     41  C   UNL     1      -8.245  -3.745 124.883  0.00  0.00    +0.000 C 
ATOM     42  O   UNL     1      -9.038  -3.652 126.078  0.00  0.00    +0.000 OA
ENDBRANCH  35  42
BRANCH  39  43
ATOM     43  O   UNL     1      -6.865   0.323 127.957  0.00  0.00    +0.000 OA
ATOM     44  C   UNL     1      -7.574   1.161 127.089  0.00  0.00    +0.000 C 
ENDBRANCH  39  43
ENDBRANCH  32  38
ENDBRANCH   1  32
TORSDOF 9
ENDMDL
MODEL 7
REMARK VINA RESULT:      -8.6      3.389      5.753
REMARK  Name = CHEMBL1779403
REMARK  14 active torsions:
REMARK  status: ('A' for Active; 'I' for Inactive)
REMARK    1  A    between atoms: C_1  and  O_2
REMARK    2  A    between atoms: O_2  and  C_3
REMARK    3  A    between atoms: C_6  and  S_7
REMARK    4  A    between atoms: S_7  and  N_10
REMARK    5  A    between atoms: C_13  and  C_14
REMARK    6  A    between atoms: C_13  and  N_22
REMARK    7  A    between atoms: C_19  and  O_20
REMARK    8  A    between atoms: O_20  and  C_21
REMARK    9  A    between atoms: C_24  and  O_25
REMARK   10  A    between atoms: C_27  and  C_28
REMARK   11  A    between atoms: N_30  and  C_31
REMARK   12  A    between atoms: N_30  and  C_32
REMARK   13  A    between atoms: C_40  and  O_41
REMARK   14  A    between atoms: O_41  and  C_42
REMARK                            x       y       z     vdW  Elec       q    Type
REMARK                         _______ _______ _______ _____ _____    ______ ____
ROOT
ATOM      1  N   UNL     1      -6.698   3.232 128.453  0.00  0.00    +0.000 N 
ATOM      2  C   UNL     1      -7.554   4.248 128.533  0.00  0.00    +0.000 C 
ATOM      3  O   UNL     1      -8.747   4.250 128.416  0.00  0.00    +0.000 OA
ATOM      4  C   UNL     1      -6.305   3.557 129.632  0.00  0.00    +0.000 C 
ATOM      5  C   UNL     1      -7.296   3.791 130.935  0.00  0.00    +0.000 A 
ATOM      6  C   UNL     1      -8.562   4.452 131.195  0.00  0.00    +0.000 A 
ATOM      7  C   UNL     1      -8.750   5.627 131.908  0.00  0.00    +0.000 A 
ATOM      8 CL   UNL     1     -10.254   6.441 131.798  0.00  0.00    +0.000 Cl
ATOM      9  C   UNL     1      -7.596   6.150 132.345  0.00  0.00    +0.000 A 
ATOM     10  C   UNL     1      -6.463   5.487 131.568  0.00  0.00    +0.000 A 
ATOM     11  C   UNL     1      -6.428   4.404 130.221  0.00  0.00    +0.000 A 
ENDROOT
BRANCH   4  12
ATOM     12  C   UNL     1      -5.667   2.281 130.420  0.00  0.00    +0.000 A 
ATOM     13  N   UNL     1      -4.555   2.681 131.196  0.00  0.00    +0.000 NA
ATOM     14  C   UNL     1      -3.909   1.721 131.843  0.00  0.00    +0.000 A 
ATOM     15  C   UNL     1      -4.481   0.484 131.840  0.00  0.00    +0.000 A 
ATOM     16  N   UNL     1      -5.688   0.160 131.259  0.00  0.00    +0.000 NA
ATOM     17  C   UNL     1      -6.318   1.101 130.548  0.00  0.00    +0.000 A 
BRANCH  17  18
ATOM     18  O   UNL     1      -7.570   0.801 130.078  0.00  0.00    +0.000 OA
ATOM     19  C   UNL     1      -7.976  -0.557 130.138  0.00  0.00    +0.000 C 
ENDBRANCH  17  18
ENDBRANCH   4  12
BRANCH   4  20
ATOM     20  N   UNL     1      -4.936   4.431 128.713  0.00  0.00    +0.000 NA
ATOM     21  C   UNL     1      -4.747   3.703 127.461  0.00  0.00    +0.000 C 
ATOM     22  C   UNL     1      -3.346   3.212 127.639  0.00  0.00    +0.000 C 
ATOM     23  C   UNL     1      -2.688   4.302 128.481  0.00  0.00    +0.000 C 
ATOM     24  C   UNL     1      -3.738   4.832 129.433  0.00  0.00    +0.000 C 
BRANCH  24  25
ATOM     25  C   UNL     1      -3.815   6.453 129.776  0.00  0.00    +0.000 C 
ATOM     26  O   UNL     1      -4.433   7.204 129.026  0.00  0.00    +0.000 OA
ATOM     27  N   UNL     1      -3.201   6.989 130.940  0.00  0.00    +0.000 N 
ATOM     28  C   UNL     1      -2.435   6.321 131.834  0.00  0.00    +0.000 C 
ATOM     29  C   UNL     1      -3.172   8.255 131.525  0.00  0.00    +0.000 C 
ENDBRANCH  24  25
BRANCH  22  30
ATOM     30  O   UNL     1      -3.276   2.003 128.347  0.00  0.00    +0.000 OA
ATOM     31  H   UNL     1      -2.863   2.248 129.205  0.00  0.00    +0.000 HD
ENDBRANCH  22  30
ENDBRANCH   4  20
BRANCH   1  32
ATOM     32  S   UNL     1      -7.833   2.011 126.940  0.00  0.00    +0.000 S 
ATOM     33  O   UNL     1      -9.077   1.608 127.571  0.00  0.00    +0.000 OA
ATOM     34  O   UNL     1      -7.066   0.937 126.309  0.00  0.00    +0.000 OA
BRANCH  32  38
ATOM     35  C   UNL     1      -9.027   2.621 122.132  0.00  0.00    +0.000 A 
ATOM     36  C   UNL     1      -9.703   1.628 122.828  0.00  0.00    +0.000 A 
ATOM     37  C   UNL     1      -9.455   1.488 124.255  0.00  0.00    +0.000 A 
ATOM     38  C   UNL     1      -8.477   2.339 124.986  0.00  0.00    +0.000 A 
ATOM     39  C   UNL     1      -7.774   3.203 124.223  0.00  0.00    +0.000 A 
ATOM     40  C   UNL     1      -8.082   3.369 122.842  0.00  0.00    +0.000 A 
BRANCH  35  42
ATOM     41  C   UNL     1      -8.612   3.994 120.243  0.00  0.00    +0.000 C 
ATOM     42  O   UNL     1      -9.358   2.914 120.829  0.00  0.00    +0.000 OA
ENDBRANCH  35  42
BRANCH  39  43
ATOM     43  O   UNL     1      -6.848   3.871 124.932  0.00  0.00    +0.000 OA
ATOM     44  C   UNL     1      -5.817   4.386 124.138  0.00  0.00    +0.000 C 
ENDBRANCH  39  43
ENDBRANCH  32  38
ENDBRANCH   1  32
TORSDOF 9
ENDMDL
MODEL 8
REMARK VINA RESULT:      -8.4      2.805      7.285
REMARK  Name = CHEMBL1779403
REMARK  14 active torsions:
REMARK  status: ('A' for Active; 'I' for Inactive)
REMARK    1  A    between atoms: C_1  and  O_2
REMARK    2  A    between atoms: O_2  and  C_3
REMARK    3  A    between atoms: C_6  and  S_7
REMARK    4  A    between atoms: S_7  and  N_10
REMARK    5  A    between atoms: C_13  and  C_14
REMARK    6  A    between atoms: C_13  and  N_22
REMARK    7  A    between atoms: C_19  and  O_20
REMARK    8  A    between atoms: O_20  and  C_21
REMARK    9  A    between atoms: C_24  and  O_25
REMARK   10  A    between atoms: C_27  and  C_28
REMARK   11  A    between atoms: N_30  and  C_31
REMARK   12  A    between atoms: N_30  and  C_32
REMARK   13  A    between atoms: C_40  and  O_41
REMARK   14  A    between atoms: O_41  and  C_42
REMARK                            x       y       z     vdW  Elec       q    Type
REMARK                         _______ _______ _______ _____ _____    ______ ____
ROOT
ATOM      1  N   UNL     1      -7.147   3.434 129.115  0.00  0.00    +0.000 N 
ATOM      2  C   UNL     1      -5.827   3.294 129.016  0.00  0.00    +0.000 C 
ATOM      3  O   UNL     1      -5.112   3.460 128.068  0.00  0.00    +0.000 OA
ATOM      4  C   UNL     1      -6.920   4.262 130.071  0.00  0.00    +0.000 C 
ATOM      5  C   UNL     1      -5.886   5.550 129.990  0.00  0.00    +0.000 A 
ATOM      6  C   UNL     1      -4.552   5.804 129.478  0.00  0.00    +0.000 A 
ATOM      7  C   UNL     1      -3.404   6.009 130.230  0.00  0.00    +0.000 A 
ATOM      8 CL   UNL     1      -1.875   5.929 129.461  0.00  0.00    +0.000 Cl
ATOM      9  C   UNL     1      -3.633   5.926 131.548  0.00  0.00    +0.000 A 
ATOM     10  C   UNL     1      -4.984   5.244 131.741  0.00  0.00    +0.000 A 
ATOM     11  C   UNL     1      -6.086   4.473 130.654  0.00  0.00    +0.000 A 
ENDROOT
BRANCH   4  12
ATOM     12  C   UNL     1      -8.141   5.327 130.240  0.00  0.00    +0.000 A 
ATOM     13  N   UNL     1      -9.009   5.271 129.126  0.00  0.00    +0.000 NA
ATOM     14  C   UNL     1     -10.015   6.134 129.114  0.00  0.00    +0.000 A 
ATOM     15  C   UNL     1     -10.216   6.860 130.249  0.00  0.00    +0.000 A 
ATOM     16  N   UNL     1      -9.490   6.743 131.415  0.00  0.00    +0.000 NA
ATOM     17  C   UNL     1      -8.432   5.925 131.420  0.00  0.00    +0.000 A 
BRANCH  17  18
ATOM     18  O   UNL     1      -7.794   5.730 132.616  0.00  0.00    +0.000 OA
ATOM     19  C   UNL     1      -8.552   5.940 133.797  0.00  0.00    +0.000 C 
ENDBRANCH  17  18
ENDBRANCH   4  12
BRANCH   4  20
ATOM     20  N   UNL     1      -7.267   2.785 131.158  0.00  0.00    +0.000 NA
ATOM     21  C   UNL     1      -8.474   2.155 130.629  0.00  0.00    +0.000 C 
ATOM     22  C   UNL     1      -9.403   2.328 131.787  0.00  0.00    +0.000 C 
ATOM     23  C   UNL     1      -8.479   2.273 133.000  0.00  0.00    +0.000 C 
ATOM     24  C   UNL     1      -7.172   2.925 132.602  0.00  0.00    +0.000 C 
BRANCH  24  25
ATOM     25  C   UNL     1      -5.730   2.297 133.127  0.00  0.00    +0.000 C 
ATOM     26  O   UNL     1      -5.149   1.457 132.445  0.00  0.00    +0.000 OA
ATOM     27  N   UNL     1      -5.135   2.734 134.341  0.00  0.00    +0.000 N 
ATOM     28  C   UNL     1      -5.663   3.601 135.238  0.00  0.00    +0.000 C 
ATOM     29  C   UNL     1      -3.923   2.467 134.977  0.00  0.00    +0.000 C 
ENDBRANCH  24  25
BRANCH  22  30
ATOM     30  O   UNL     1     -10.056   3.570 131.783  0.00  0.00    +0.000 OA
ATOM     31  H   UNL     1      -9.731   4.016 132.599  0.00  0.00    +0.000 HD
ENDBRANCH  22  30
ENDBRANCH   4  20
BRANCH   1  32
ATOM     32  S   UNL     1      -7.664   2.838 127.007  0.00  0.00    +0.000 S 
ATOM     33  O   UNL     1      -7.495   4.020 126.181  0.00  0.00    +0.000 OA
ATOM     34  O   UNL     1      -8.939   2.137 126.857  0.00  0.00    +0.000 OA
BRANCH  32  38
ATOM     35  C   UNL     1      -6.372  -0.954 124.029  0.00  0.00    +0.000 A 
ATOM     36  C   UNL     1      -7.010   0.125 123.434  0.00  0.00    +0.000 A 
ATOM     37  C   UNL     1      -7.311   1.292 124.251  0.00  0.00    +0.000 A 
ATOM     38  C   UNL     1      -6.998   1.355 125.704  0.00  0.00    +0.000 A 
ATOM     39  C   UNL     1      -6.485   0.225 126.238  0.00  0.00    +0.000 A 
ATOM     40  C   UNL     1      -6.137  -0.878 125.407  0.00  0.00    +0.000 A 
BRANCH  35  42
ATOM     41  C   UNL     1      -5.482  -3.152 124.016  0.00  0.00    +0.000 C 
ATOM     42  O   UNL     1      -5.903  -2.000 123.268  0.00  0.00    +0.000 OA
ENDBRANCH  35  42
BRANCH  39  43
ATOM     43  O   UNL     1      -6.314   0.323 127.568  0.00  0.00    +0.000 OA
ATOM     44  C   UNL     1      -6.980  -0.680 128.280  0.00  0.00    +0.000 C 
ENDBRANCH  39  43
ENDBRANCH  32  38
ENDBRANCH   1  32
TORSDOF 9
ENDMDL
MODEL 9
REMARK VINA RESULT:      -8.4      3.131      7.162
REMARK  Name = CHEMBL1779403
REMARK  14 active torsions:
REMARK  status: ('A' for Active; 'I' for Inactive)
REMARK    1  A    between atoms: C_1  and  O_2
REMARK    2  A    between atoms: O_2  and  C_3
REMARK    3  A    between atoms: C_6  and  S_7
REMARK    4  A    between atoms: S_7  and  N_10
REMARK    5  A    between atoms: C_13  and  C_14
REMARK    6  A    between atoms: C_13  and  N_22
REMARK    7  A    between atoms: C_19  and  O_20
REMARK    8  A    between atoms: O_20  and  C_21
REMARK    9  A    between atoms: C_24  and  O_25
REMARK   10  A    between atoms: C_27  and  C_28
REMARK   11  A    between atoms: N_30  and  C_31
REMARK   12  A    between atoms: N_30  and  C_32
REMARK   13  A    between atoms: C_40  and  O_41
REMARK   14  A    between atoms: O_41  and  C_42
REMARK                            x       y       z     vdW  Elec       q    Type
REMARK                         _______ _______ _______ _____ _____    ______ ____
ROOT
ATOM      1  N   UNL     1      -7.253   3.038 128.401  0.00  0.00    +0.000 N 
ATOM      2  C   UNL     1      -7.537   4.267 127.974  0.00  0.00    +0.000 C 
ATOM      3  O   UNL     1      -8.393   4.633 127.219  0.00  0.00    +0.000 OA
ATOM      4  C   UNL     1      -7.404   3.490 129.594  0.00  0.00    +0.000 C 
ATOM      5  C   UNL     1      -8.715   4.344 130.130  0.00  0.00    +0.000 A 
ATOM      6  C   UNL     1      -9.547   5.425 129.635  0.00  0.00    +0.000 A 
ATOM      7  C   UNL     1      -9.565   6.732 130.101  0.00  0.00    +0.000 A 
ATOM      8 CL   UNL     1     -10.335   7.943 129.164  0.00  0.00    +0.000 Cl
ATOM      9  C   UNL     1      -8.684   6.936 131.090  0.00  0.00    +0.000 A 
ATOM     10  C   UNL     1      -7.699   5.771 131.080  0.00  0.00    +0.000 A 
ATOM     11  C   UNL     1      -7.445   4.445 129.998  0.00  0.00    +0.000 A 
ENDROOT
BRANCH   4  12
ATOM     12  C   UNL     1      -7.824   2.305 130.631  0.00  0.00    +0.000 A 
ATOM     13  N   UNL     1      -8.070   1.099 129.936  0.00  0.00    +0.000 NA
ATOM     14  C   UNL     1      -8.479   0.069 130.663  0.00  0.00    +0.000 A 
ATOM     15  C   UNL     1      -8.450   0.222 132.018  0.00  0.00    +0.000 A 
ATOM     16  N   UNL     1      -7.995   1.337 132.689  0.00  0.00    +0.000 NA
ATOM     17  C   UNL     1      -7.642   2.407 131.969  0.00  0.00    +0.000 A 
BRANCH  17  18
ATOM     18  O   UNL     1      -7.082   3.460 132.641  0.00  0.00    +0.000 OA
ATOM     19  C   UNL     1      -7.285   3.515 134.044  0.00  0.00    +0.000 C 
ENDBRANCH  17  18
ENDBRANCH   4  12
BRANCH   4  20
ATOM     20  N   UNL     1      -5.542   3.617 129.561  0.00  0.00    +0.000 NA
ATOM     21  C   UNL     1      -5.039   2.271 129.299  0.00  0.00    +0.000 C 
ATOM     22  C   UNL     1      -4.288   2.008 130.564  0.00  0.00    +0.000 C 
ATOM     23  C   UNL     1      -3.795   3.391 130.982  0.00  0.00    +0.000 C 
ATOM     24  C   UNL     1      -4.863   4.389 130.589  0.00  0.00    +0.000 C 
BRANCH  24  25
ATOM     25  C   UNL     1      -4.440   5.872 129.979  0.00  0.00    +0.000 C 
ATOM     26  O   UNL     1      -4.484   6.066 128.767  0.00  0.00    +0.000 OA
ATOM     27  N   UNL     1      -4.051   6.936 130.835  0.00  0.00    +0.000 N 
ATOM     28  C   UNL     1      -3.889   6.879 132.179  0.00  0.00    +0.000 C 
ATOM     29  C   UNL     1      -3.737   8.280 130.631  0.00  0.00    +0.000 C 
ENDBRANCH  24  25
BRANCH  22  30
ATOM     30  O   UNL     1      -5.101   1.500 131.589  0.00  0.00    +0.000 OA
ATOM     31  H   UNL     1      -4.572   0.766 131.976  0.00  0.00    +0.000 HD
ENDBRANCH  22  30
ENDBRANCH   4  20
BRANCH   1  32
ATOM     32  S   UNL     1      -7.872   1.932 126.540  0.00  0.00    +0.000 S 
ATOM     33  O   UNL     1      -7.701   2.849 125.427  0.00  0.00    +0.000 OA
ATOM     34  O   UNL     1      -9.172   1.266 126.619  0.00  0.00    +0.000 OA
BRANCH  32  38
ATOM     35  C   UNL     1      -6.777  -2.563 124.665  0.00  0.00    +0.000 A 
ATOM     36  C   UNL     1      -7.548  -1.721 123.875  0.00  0.00    +0.000 A 
ATOM     37  C   UNL     1      -7.802  -0.367 124.344  0.00  0.00    +0.000 A 
ATOM     38  C   UNL     1      -7.303   0.134 125.653  0.00  0.00    +0.000 A 
ATOM     39  C   UNL     1      -6.662  -0.775 126.418  0.00  0.00    +0.000 A 
ATOM     40  C   UNL     1      -6.366  -2.073 125.909  0.00  0.00    +0.000 A 
BRANCH  35  42
ATOM     41  C   UNL     1      -4.964  -3.846 123.834  0.00  0.00    +0.000 C 
ATOM     42  O   UNL     1      -6.355  -3.783 124.188  0.00  0.00    +0.000 OA
ENDBRANCH  35  42
BRANCH  39  43
ATOM     43  O   UNL     1      -6.321  -0.280 127.620  0.00  0.00    +0.000 OA
ATOM     44  C   UNL     1      -5.699  -1.224 128.445  0.00  0.00    +0.000 C 
ENDBRANCH  39  43
ENDBRANCH  32  38
ENDBRANCH   1  32
TORSDOF 9
ENDMDL
