MODEL 1
REMARK VINA RESULT:      -7.9      0.000      0.000
REMARK  Name = CHEMBL410420
REMARK  11 active torsions:
REMARK  status: ('A' for Active; 'I' for Inactive)
REMARK    1  A    between atoms: CD1_1  and  CG_2
REMARK    2  A    between atoms: CG_2  and  CD2_3
REMARK    3  A    between atoms: CG_2  and  CB_4
REMARK    4  A    between atoms: CB_4  and  CA_5
REMARK    5  A    between atoms: C_9  and  C_10
REMARK    6  A    between atoms: N_21  and  C_22
REMARK    7  A    between atoms: C_22  and  C_23
REMARK    8  A    between atoms: C_22  and  C_29
REMARK    9  A    between atoms: N_25  and  C_26
REMARK   10  A    between atoms: C_26  and  C_27
REMARK   11  A    between atoms: C_26  and  C_28
REMARK                            x       y       z     vdW  Elec       q    Type
REMARK                         _______ _______ _______ _____ _____    ______ ____
ROOT
ATOM      1  CA  LEU A   2      -5.001   2.750 126.978  0.00  0.00    +0.000 C 
ATOM      2  C   LEU A   2      -5.636   2.556 125.611  0.00  0.00    +0.000 C 
ATOM      3  O   LEU A   2      -5.494   3.274 124.614  0.00  0.00    +0.000 OA
ATOM      4  N   UNK A   1      -6.311   1.403 125.521  0.00  0.00    +0.000 N 
ATOM      5  C   UNK A   1      -6.332   0.422 126.589  0.00  0.00    +0.000 C 
ATOM      6  C   UNK A   1      -6.582   1.122 127.921  0.00  0.00    +0.000 C 
ATOM      7  O   UNK A   1      -7.183   0.491 128.782  0.00  0.00    +0.000 OA
ATOM      8  N   LEU A   2      -6.004   2.393 128.051  0.00  0.00    +0.000 N 
ATOM      9  H   UNK A   1      -6.665   1.224 124.592  0.00  0.00    +0.000 HD
ENDROOT
BRANCH   5  10
ATOM     10  C   UNK A   1      -7.451  -0.628 126.401  0.00  0.00    +0.000 C 
ATOM     11  C   UNK A   1      -6.843  -2.031 126.524  0.00  0.00    +0.000 C 
ATOM     12  C   UNK A   1      -6.462  -2.294 125.095  0.00  0.00    +0.000 A 
ATOM     13  C   UNK A   1      -5.418  -3.076 124.642  0.00  0.00    +0.000 A 
ATOM     14  C   UNK A   1      -5.108  -3.034 123.281  0.00  0.00    +0.000 A 
ATOM     15  C   UNK A   1      -5.828  -2.209 122.401  0.00  0.00    +0.000 A 
ATOM     16  C   UNK A   1      -6.859  -1.394 122.868  0.00  0.00    +0.000 A 
ATOM     17  C   UNK A   1      -7.165  -1.447 124.218  0.00  0.00    +0.000 A 
ATOM     18  C   UNK A   1      -8.090  -0.550 124.984  0.00  0.00    +0.000 C 
ENDBRANCH   5  10
BRANCH   1  19
ATOM     19  CB  LEU A   2      -4.502   4.159 127.011  0.00  0.00    +0.000 C 
BRANCH  19  21
ATOM     20  CD1 LEU A   2      -2.820   5.276 128.422  0.00  0.00    +0.000 C 
ATOM     21  CG  LEU A   2      -3.044   4.506 127.112  0.00  0.00    +0.000 C 
ATOM     22  CD2 LEU A   2      -2.297   3.187 127.172  0.00  0.00    +0.000 C 
ENDBRANCH  19  21
ENDBRANCH   1  19
BRANCH   8  23
ATOM     23  C   UNK A   0      -6.342   3.329 129.209  0.00  0.00    +0.000 C 
BRANCH  23  24
ATOM     24  C   UNK A   0      -5.265   3.297 130.336  0.00  0.00    +0.000 A 
ATOM     25  C   UNK A   0      -4.375   2.267 130.662  0.00  0.00    +0.000 A 
ATOM     26  C   UNK A   0      -3.745   2.452 131.942  0.00  0.00    +0.000 A 
ATOM     27  C   UNK A   0      -4.011   3.695 132.442  0.00  0.00    +0.000 A 
ATOM     28 BR   UNK A   0      -3.303   4.387 134.027  0.00  0.00    +0.000 Br
ATOM     29  S   UNK A   0      -5.073   4.567 131.489  0.00  0.00    +0.000 S 
ENDBRANCH  23  24
BRANCH  23  30
ATOM     30  C   UNK A   0      -7.841   3.101 129.798  0.00  0.00    +0.000 C 
ATOM     31  O   UNK A   0      -8.876   3.483 129.258  0.00  0.00    +0.000 OA
ATOM     32  N   UNK A   0      -8.001   2.430 130.997  0.00  0.00    +0.000 N 
ATOM     33  H   UNK A   0      -7.393   1.666 131.217  0.00  0.00    +0.000 HD
BRANCH  32  34
ATOM     34  C   UNK A   0      -9.276   2.243 131.660  0.00  0.00    +0.000 C 
ATOM     35  C   UNK A   0      -9.457   0.743 131.777  0.00  0.00    +0.000 C 
ATOM     36  C   UNK A   0      -9.248   2.856 133.065  0.00  0.00    +0.000 C 
ENDBRANCH  32  34
ENDBRANCH  23  30
ENDBRANCH   8  23
TORSDOF 7
ENDMDL
MODEL 2
REMARK VINA RESULT:      -7.7      2.797      7.277
REMARK  Name = CHEMBL410420
REMARK  11 active torsions:
REMARK  status: ('A' for Active; 'I' for Inactive)
REMARK    1  A    between atoms: CD1_1  and  CG_2
REMARK    2  A    between atoms: CG_2  and  CD2_3
REMARK    3  A    between atoms: CG_2  and  CB_4
REMARK    4  A    between atoms: CB_4  and  CA_5
REMARK    5  A    between atoms: C_9  and  C_10
REMARK    6  A    between atoms: N_21  and  C_22
REMARK    7  A    between atoms: C_22  and  C_23
REMARK    8  A    between atoms: C_22  and  C_29
REMARK    9  A    between atoms: N_25  and  C_26
REMARK   10  A    between atoms: C_26  and  C_27
REMARK   11  A    between atoms: C_26  and  C_28
REMARK                            x       y       z     vdW  Elec       q    Type
REMARK                         _______ _______ _______ _____ _____    ______ ____
ROOT
ATOM      1  CA  LEU A   2      -7.083   1.544 129.396  0.00  0.00    +0.000 C 
ATOM      2  C   LEU A   2      -7.049   3.036 129.111  0.00  0.00    +0.000 C 
ATOM      3  O   LEU A   2      -7.799   3.901 129.575  0.00  0.00    +0.000 OA
ATOM      4  N   UNK A   1      -5.997   3.387 128.360  0.00  0.00    +0.000 N 
ATOM      5  C   UNK A   1      -4.967   2.447 127.965  0.00  0.00    +0.000 C 
ATOM      6  C   UNK A   1      -5.614   1.161 127.463  0.00  0.00    +0.000 C 
ATOM      7  O   UNK A   1      -5.016   0.531 126.600  0.00  0.00    +0.000 OA
ATOM      8  N   LEU A   2      -6.794   0.783 128.122  0.00  0.00    +0.000 N 
ATOM      9  H   UNK A   1      -5.917   4.387 128.236  0.00  0.00    +0.000 HD
ENDROOT
BRANCH   5  10
ATOM     10  C   UNK A   1      -4.077   2.993 126.825  0.00  0.00    +0.000 C 
ATOM     11  C   UNK A   1      -2.645   3.163 127.347  0.00  0.00    +0.000 C 
ATOM     12  C   UNK A   1      -2.706   4.570 127.869  0.00  0.00    +0.000 A 
ATOM     13  C   UNK A   1      -1.982   5.102 128.918  0.00  0.00    +0.000 A 
ATOM     14  C   UNK A   1      -2.327   6.374 129.377  0.00  0.00    +0.000 A 
ATOM     15  C   UNK A   1      -3.390   7.088 128.798  0.00  0.00    +0.000 A 
ATOM     16  C   UNK A   1      -4.142   6.533 127.762  0.00  0.00    +0.000 A 
ATOM     17  C   UNK A   1      -3.788   5.274 127.308  0.00  0.00    +0.000 A 
ATOM     18  C   UNK A   1      -4.540   4.401 126.349  0.00  0.00    +0.000 C 
ENDBRANCH   5  10
BRANCH   1  19
ATOM     19  CB  LEU A   2      -8.415   1.267 130.018  0.00  0.00    +0.000 C 
BRANCH  19  21
ATOM     20  CD1 LEU A   2      -9.932   1.617 131.927  0.00  0.00    +0.000 C 
ATOM     21  CG  LEU A   2      -8.590   1.010 131.487  0.00  0.00    +0.000 C 
ATOM     22  CD2 LEU A   2      -8.645  -0.496 131.652  0.00  0.00    +0.000 C 
ENDBRANCH  19  21
ENDBRANCH   1  19
BRANCH   8  23
ATOM     23  C   UNK A   0      -7.696  -0.334 127.604  0.00  0.00    +0.000 C 
BRANCH  23  24
ATOM     24  C   UNK A   0      -7.407  -1.702 128.293  0.00  0.00    +0.000 A 
ATOM     25  C   UNK A   0      -8.284  -2.772 128.510  0.00  0.00    +0.000 A 
ATOM     26  C   UNK A   0      -7.774  -3.738 129.444  0.00  0.00    +0.000 A 
ATOM     27  C   UNK A   0      -6.464  -3.486 129.741  0.00  0.00    +0.000 A 
ATOM     28 BR   UNK A   0      -5.386  -4.558 130.828  0.00  0.00    +0.000 Br
ATOM     29  S   UNK A   0      -5.896  -2.081 129.035  0.00  0.00    +0.000 S 
ENDBRANCH  23  24
BRANCH  23  30
ATOM     30  C   UNK A   0      -7.690  -0.460 125.983  0.00  0.00    +0.000 C 
ATOM     31  O   UNK A   0      -8.243   0.322 125.213  0.00  0.00    +0.000 OA
ATOM     32  N   UNK A   0      -7.024  -1.517 125.389  0.00  0.00    +0.000 N 
ATOM     33  H   UNK A   0      -6.169  -1.847 125.793  0.00  0.00    +0.000 HD
BRANCH  32  34
ATOM     34  C   UNK A   0      -7.022  -1.780 123.964  0.00  0.00    +0.000 C 
ATOM     35  C   UNK A   0      -5.655  -2.359 123.660  0.00  0.00    +0.000 C 
ATOM     36  C   UNK A   0      -8.095  -2.813 123.605  0.00  0.00    +0.000 C 
ENDBRANCH  32  34
ENDBRANCH  23  30
ENDBRANCH   8  23
TORSDOF 7
ENDMDL
MODEL 3
REMARK VINA RESULT:      -7.6      3.029      4.110
REMARK  Name = CHEMBL410420
REMARK  11 active torsions:
REMARK  status: ('A' for Active; 'I' for Inactive)
REMARK    1  A    between atoms: CD1_1  and  CG_2
REMARK    2  A    between atoms: CG_2  and  CD2_3
REMARK    3  A    between atoms: CG_2  and  CB_4
REMARK    4  A    between atoms: CB_4  and  CA_5
REMARK    5  A    between atoms: C_9  and  C_10
REMARK    6  A    between atoms: N_21  and  C_22
REMARK    7  A    between atoms: C_22  and  C_23
REMARK    8  A    between atoms: C_22  and  C_29
REMARK    9  A    between atoms: N_25  and  C_26
REMARK   10  A    between atoms: C_26  and  C_27
REMARK   11  A    between atoms: C_26  and  C_28
REMARK                            x       y       z     vdW  Elec       q    Type
REMARK                         _______ _______ _______ _____ _____    ______ ____
ROOT
ATOM      1  CA  LEU A   2      -4.863   2.023 128.591  0.00  0.00    +0.000 C 
ATOM      2  C   LEU A   2      -5.412   0.868 127.771  0.00  0.00    +0.000 C 
ATOM      3  O   LEU A   2      -5.067   0.530 126.634  0.00  0.00    +0.000 OA
ATOM      4  N   UNK A   1      -6.275   0.115 128.466  0.00  0.00    +0.000 N 
ATOM      5  C   UNK A   1      -6.555   0.338 129.871  0.00  0.00    +0.000 C 
ATOM      6  C   UNK A   1      -6.779   1.827 130.117  0.00  0.00    +0.000 C 
ATOM      7  O   UNK A   1      -7.549   2.137 131.017  0.00  0.00    +0.000 OA
ATOM      8  N   LEU A   2      -5.994   2.691 129.339  0.00  0.00    +0.000 N 
ATOM      9  H   UNK A   1      -6.581  -0.704 127.960  0.00  0.00    +0.000 HD
ENDROOT
BRANCH   5  10
ATOM     10  C   UNK A   1      -7.826  -0.405 130.343  0.00  0.00    +0.000 C 
ATOM     11  C   UNK A   1      -7.608  -0.904 131.776  0.00  0.00    +0.000 C 
ATOM     12  C   UNK A   1      -7.010  -2.256 131.511  0.00  0.00    +0.000 A 
ATOM     13  C   UNK A   1      -6.110  -2.940 132.305  0.00  0.00    +0.000 A 
ATOM     14  C   UNK A   1      -5.520  -4.094 131.786  0.00  0.00    +0.000 A 
ATOM     15  C   UNK A   1      -5.823  -4.540 130.489  0.00  0.00    +0.000 A 
ATOM     16  C   UNK A   1      -6.706  -3.828 129.676  0.00  0.00    +0.000 A 
ATOM     17  C   UNK A   1      -7.292  -2.688 130.201  0.00  0.00    +0.000 A 
ATOM     18  C   UNK A   1      -8.117  -1.666 129.478  0.00  0.00    +0.000 C 
ENDBRANCH   5  10
BRANCH   1  19
ATOM     19  CB  LEU A   2      -4.122   2.901 127.633  0.00  0.00    +0.000 C 
BRANCH  19  21
ATOM     20  CD1 LEU A   2      -1.893   3.022 126.592  0.00  0.00    +0.000 C 
ATOM     21  CG  LEU A   2      -2.704   3.340 127.858  0.00  0.00    +0.000 C 
ATOM     22  CD2 LEU A   2      -2.751   4.843 128.059  0.00  0.00    +0.000 C 
ENDBRANCH  19  21
ENDBRANCH   1  19
BRANCH   8  23
ATOM     23  C   UNK A   0      -6.249   4.195 129.281  0.00  0.00    +0.000 C 
BRANCH  23  24
ATOM     24  C   UNK A   0      -5.576   4.960 130.462  0.00  0.00    +0.000 A 
ATOM     25  C   UNK A   0      -5.574   6.336 130.720  0.00  0.00    +0.000 A 
ATOM     26  C   UNK A   0      -4.603   6.720 131.708  0.00  0.00    +0.000 A 
ATOM     27  C   UNK A   0      -4.056   5.622 132.310  0.00  0.00    +0.000 A 
ATOM     28 BR   UNK A   0      -2.834   5.671 133.723  0.00  0.00    +0.000 Br
ATOM     29  S   UNK A   0      -4.582   4.184 131.640  0.00  0.00    +0.000 S 
ENDBRANCH  23  24
BRANCH  23  30
ATOM     30  C   UNK A   0      -7.823   4.571 129.134  0.00  0.00    +0.000 C 
ATOM     31  O   UNK A   0      -8.413   4.735 128.069  0.00  0.00    +0.000 OA
ATOM     32  N   UNK A   0      -8.590   4.729 130.275  0.00  0.00    +0.000 N 
ATOM     33  H   UNK A   0      -8.418   4.140 131.067  0.00  0.00    +0.000 HD
BRANCH  32  34
ATOM     34  C   UNK A   0      -9.978   5.146 130.272  0.00  0.00    +0.000 C 
ATOM     35  C   UNK A   0     -10.783   3.883 130.504  0.00  0.00    +0.000 C 
ATOM     36  C   UNK A   0     -10.247   6.130 131.415  0.00  0.00    +0.000 C 
ENDBRANCH  32  34
ENDBRANCH  23  30
ENDBRANCH   8  23
TORSDOF 7
ENDMDL
MODEL 4
REMARK VINA RESULT:      -7.6      3.831      7.401
REMARK  Name = CHEMBL410420
REMARK  11 active torsions:
REMARK  status: ('A' for Active; 'I' for Inactive)
REMARK    1  A    between atoms: CD1_1  and  CG_2
REMARK    2  A    between atoms: CG_2  and  CD2_3
REMARK    3  A    between atoms: CG_2  and  CB_4
REMARK    4  A    between atoms: CB_4  and  CA_5
REMARK    5  A    between atoms: C_9  and  C_10
REMARK    6  A    between atoms: N_21  and  C_22
REMARK    7  A    between atoms: C_22  and  C_23
REMARK    8  A    between atoms: C_22  and  C_29
REMARK    9  A    between atoms: N_25  and  C_26
REMARK   10  A    between atoms: C_26  and  C_27
REMARK   11  A    between atoms: C_26  and  C_28
REMARK                            x       y       z     vdW  Elec       q    Type
REMARK                         _______ _______ _______ _____ _____    ______ ____
ROOT
ATOM      1  CA  LEU A   2      -7.109   2.393 126.694  0.00  0.00    +0.000 C 
ATOM      2  C   LEU A   2      -6.972   3.745 127.372  0.00  0.00    +0.000 C 
ATOM      3  O   LEU A   2      -6.405   4.749 126.927  0.00  0.00    +0.000 OA
ATOM      4  N   UNK A   1      -7.663   3.814 128.517  0.00  0.00    +0.000 N 
ATOM      5  C   UNK A   1      -8.520   2.739 128.981  0.00  0.00    +0.000 C 
ATOM      6  C   UNK A   1      -7.791   1.407 128.839  0.00  0.00    +0.000 C 
ATOM      7  O   UNK A   1      -8.061   0.531 129.650  0.00  0.00    +0.000 OA
ATOM      8  N   LEU A   2      -6.948   1.297 127.723  0.00  0.00    +0.000 N 
ATOM      9  H   UNK A   1      -7.649   4.735 128.933  0.00  0.00    +0.000 HD
ENDROOT
BRANCH   5  10
ATOM     10  C   UNK A   1      -8.909   2.898 130.469  0.00  0.00    +0.000 C 
ATOM     11  C   UNK A   1     -10.417   3.164 130.563  0.00  0.00    +0.000 C 
ATOM     12  C   UNK A   1     -10.439   4.663 130.477  0.00  0.00    +0.000 A 
ATOM     13  C   UNK A   1     -11.445   5.453 129.954  0.00  0.00    +0.000 A 
ATOM     14  C   UNK A   1     -11.190   6.815 129.784  0.00  0.00    +0.000 A 
ATOM     15  C   UNK A   1      -9.942   7.364 130.123  0.00  0.00    +0.000 A 
ATOM     16  C   UNK A   1      -8.917   6.558 130.619  0.00  0.00    +0.000 A 
ATOM     17  C   UNK A   1      -9.181   5.209 130.791  0.00  0.00    +0.000 A 
ATOM     18  C   UNK A   1      -8.206   4.121 131.127  0.00  0.00    +0.000 C 
ENDBRANCH   5  10
BRANCH   1  19
ATOM     19  CB  LEU A   2      -6.108   2.379 125.583  0.00  0.00    +0.000 C 
BRANCH  19  21
ATOM     20  CD1 LEU A   2      -7.963   1.750 124.089  0.00  0.00    +0.000 C 
ATOM     21  CG  LEU A   2      -6.490   2.185 124.143  0.00  0.00    +0.000 C 
ATOM     22  CD2 LEU A   2      -6.344   3.541 123.479  0.00  0.00    +0.000 C 
ENDBRANCH  19  21
ENDBRANCH   1  19
BRANCH   8  23
ATOM     23  C   UNK A   0      -5.969   0.139 127.551  0.00  0.00    +0.000 C 
BRANCH  23  24
ATOM     24  C   UNK A   0      -6.438  -0.883 126.471  0.00  0.00    +0.000 A 
ATOM     25  C   UNK A   0      -5.685  -1.488 125.457  0.00  0.00    +0.000 A 
ATOM     26  C   UNK A   0      -6.497  -2.128 124.458  0.00  0.00    +0.000 A 
ATOM     27  C   UNK A   0      -7.806  -2.170 124.847  0.00  0.00    +0.000 A 
ATOM     28 BR   UNK A   0      -9.180  -3.007 123.895  0.00  0.00    +0.000 Br
ATOM     29  S   UNK A   0      -8.084  -1.368 126.287  0.00  0.00    +0.000 S 
ENDBRANCH  23  24
BRANCH  23  30
ATOM     30  C   UNK A   0      -5.591  -0.593 128.953  0.00  0.00    +0.000 C 
ATOM     31  O   UNK A   0      -4.780  -0.168 129.772  0.00  0.00    +0.000 OA
ATOM     32  N   UNK A   0      -6.209  -1.786 129.281  0.00  0.00    +0.000 N 
ATOM     33  H   UNK A   0      -7.169  -1.925 129.033  0.00  0.00    +0.000 HD
BRANCH  32  34
ATOM     34  C   UNK A   0      -5.892  -2.570 130.458  0.00  0.00    +0.000 C 
ATOM     35  C   UNK A   0      -7.204  -2.743 131.197  0.00  0.00    +0.000 C 
ATOM     36  C   UNK A   0      -5.356  -3.949 130.058  0.00  0.00    +0.000 C 
ENDBRANCH  32  34
ENDBRANCH  23  30
ENDBRANCH   8  23
TORSDOF 7
ENDMDL
MODEL 5
REMARK VINA RESULT:      -7.5      3.301      5.787
REMARK  Name = CHEMBL410420
REMARK  11 active torsions:
REMARK  status: ('A' for Active; 'I' for Inactive)
REMARK    1  A    between atoms: CD1_1  and  CG_2
REMARK    2  A    between atoms: CG_2  and  CD2_3
REMARK    3  A    between atoms: CG_2  and  CB_4
REMARK    4  A    between atoms: CB_4  and  CA_5
REMARK    5  A    between atoms: C_9  and  C_10
REMARK    6  A    between atoms: N_21  and  C_22
REMARK    7  A    between atoms: C_22  and  C_23
REMARK    8  A    between atoms: C_22  and  C_29
REMARK    9  A    between atoms: N_25  and  C_26
REMARK   10  A    between atoms: C_26  and  C_27
REMARK   11  A    between atoms: C_26  and  C_28
REMARK                            x       y       z     vdW  Elec       q    Type
REMARK                         _______ _______ _______ _____ _____    ______ ____
ROOT
ATOM      1  CA  LEU A   2      -6.846   2.062 131.262  0.00  0.00    +0.000 C 
ATOM      2  C   LEU A   2      -5.640   1.171 131.023  0.00  0.00    +0.000 C 
ATOM      3  O   LEU A   2      -4.565   1.190 131.633  0.00  0.00    +0.000 OA
ATOM      4  N   UNK A   1      -5.885   0.213 130.119  0.00  0.00    +0.000 N 
ATOM      5  C   UNK A   1      -7.193   0.010 129.528  0.00  0.00    +0.000 C 
ATOM      6  C   UNK A   1      -7.776   1.353 129.101  0.00  0.00    +0.000 C 
ATOM      7  O   UNK A   1      -8.522   1.358 128.130  0.00  0.00    +0.000 OA
ATOM      8  N   LEU A   2      -7.465   2.438 129.935  0.00  0.00    +0.000 N 
ATOM      9  H   UNK A   1      -5.119  -0.437 130.014  0.00  0.00    +0.000 HD
ENDROOT
BRANCH   5  10
ATOM     10  C   UNK A   1      -7.138  -0.891 128.272  0.00  0.00    +0.000 C 
ATOM     11  C   UNK A   1      -7.788  -2.241 128.599  0.00  0.00    +0.000 C 
ATOM     12  C   UNK A   1      -6.597  -3.005 129.105  0.00  0.00    +0.000 A 
ATOM     13  C   UNK A   1      -6.595  -4.020 130.042  0.00  0.00    +0.000 A 
ATOM     14  C   UNK A   1      -5.363  -4.467 130.524  0.00  0.00    +0.000 A 
ATOM     15  C   UNK A   1      -4.162  -3.891 130.080  0.00  0.00    +0.000 A 
ATOM     16  C   UNK A   1      -4.169  -2.842 129.160  0.00  0.00    +0.000 A 
ATOM     17  C   UNK A   1      -5.394  -2.410 128.681  0.00  0.00    +0.000 A 
ATOM     18  C   UNK A   1      -5.675  -1.200 127.841  0.00  0.00    +0.000 C 
ENDBRANCH   5  10
BRANCH   1  19
ATOM     19  CB  LEU A   2      -6.361   3.210 132.090  0.00  0.00    +0.000 C 
BRANCH  19  21
ATOM     20  CD1 LEU A   2      -7.305   5.138 133.296  0.00  0.00    +0.000 C 
ATOM     21  CG  LEU A   2      -7.023   3.630 133.370  0.00  0.00    +0.000 C 
ATOM     22  CD2 LEU A   2      -8.337   2.877 133.435  0.00  0.00    +0.000 C 
ENDBRANCH  19  21
ENDBRANCH   1  19
BRANCH   8  23
ATOM     23  C   UNK A   0      -7.760   3.882 129.540  0.00  0.00    +0.000 C 
BRANCH  23  24
ATOM     24  C   UNK A   0      -9.154   4.365 130.043  0.00  0.00    +0.000 A 
ATOM     25  C   UNK A   0     -10.305   3.606 130.284  0.00  0.00    +0.000 A 
ATOM     26  C   UNK A   0     -11.487   4.410 130.437  0.00  0.00    +0.000 A 
ATOM     27  C   UNK A   0     -11.170   5.736 130.516  0.00  0.00    +0.000 A 
ATOM     28 BR   UNK A   0     -12.393   7.115 130.824  0.00  0.00    +0.000 Br
ATOM     29  S   UNK A   0      -9.540   6.029 130.290  0.00  0.00    +0.000 S 
ENDBRANCH  23  24
BRANCH  23  30
ATOM     30  C   UNK A   0      -7.558   4.164 127.951  0.00  0.00    +0.000 C 
ATOM     31  O   UNK A   0      -8.349   4.779 127.239  0.00  0.00    +0.000 OA
ATOM     32  N   UNK A   0      -6.423   3.690 127.319  0.00  0.00    +0.000 N 
ATOM     33  H   UNK A   0      -5.551   3.689 127.812  0.00  0.00    +0.000 HD
BRANCH  32  34
ATOM     34  C   UNK A   0      -6.176   3.806 125.896  0.00  0.00    +0.000 C 
ATOM     35  C   UNK A   0      -4.686   4.043 125.760  0.00  0.00    +0.000 C 
ATOM     36  C   UNK A   0      -6.545   2.503 125.178  0.00  0.00    +0.000 C 
ENDBRANCH  32  34
ENDBRANCH  23  30
ENDBRANCH   8  23
TORSDOF 7
ENDMDL
MODEL 6
REMARK VINA RESULT:      -7.5      3.609      7.475
REMARK  Name = CHEMBL410420
REMARK  11 active torsions:
REMARK  status: ('A' for Active; 'I' for Inactive)
REMARK    1  A    between atoms: CD1_1  and  CG_2
REMARK    2  A    between atoms: CG_2  and  CD2_3
REMARK    3  A    between atoms: CG_2  and  CB_4
REMARK    4  A    between atoms: CB_4  and  CA_5
REMARK    5  A    between atoms: C_9  and  C_10
REMARK    6  A    between atoms: N_21  and  C_22
REMARK    7  A    between atoms: C_22  and  C_23
REMARK    8  A    between atoms: C_22  and  C_29
REMARK    9  A    between atoms: N_25  and  C_26
REMARK   10  A    between atoms: C_26  and  C_27
REMARK   11  A    between atoms: C_26  and  C_28
REMARK                            x       y       z     vdW  Elec       q    Type
REMARK                         _______ _______ _______ _____ _____    ______ ____
ROOT
ATOM      1  CA  LEU A   2      -5.405   2.698 128.476  0.00  0.00    +0.000 C 
ATOM      2  C   LEU A   2      -5.436   2.498 129.981  0.00  0.00    +0.000 C 
ATOM      3  O   LEU A   2      -4.466   2.435 130.745  0.00  0.00    +0.000 OA
ATOM      4  N   UNK A   1      -6.682   2.517 130.473  0.00  0.00    +0.000 N 
ATOM      5  C   UNK A   1      -7.843   2.801 129.653  0.00  0.00    +0.000 C 
ATOM      6  C   UNK A   1      -7.760   2.006 128.354  0.00  0.00    +0.000 C 
ATOM      7  O   UNK A   1      -8.816   1.659 127.840  0.00  0.00    +0.000 OA
ATOM      8  N   LEU A   2      -6.468   1.837 127.833  0.00  0.00    +0.000 N 
ATOM      9  H   UNK A   1      -6.709   2.470 131.482  0.00  0.00    +0.000 HD
ENDROOT
BRANCH   5  10
ATOM     10  C   UNK A   1      -9.166   2.411 130.351  0.00  0.00    +0.000 C 
ATOM     11  C   UNK A   1     -10.038   3.663 130.503  0.00  0.00    +0.000 C 
ATOM     12  C   UNK A   1      -9.571   4.165 131.839  0.00  0.00    +0.000 A 
ATOM     13  C   UNK A   1      -9.534   5.477 132.270  0.00  0.00    +0.000 A 
ATOM     14  C   UNK A   1      -8.879   5.756 133.472  0.00  0.00    +0.000 A 
ATOM     15  C   UNK A   1      -8.265   4.733 134.214  0.00  0.00    +0.000 A 
ATOM     16  C   UNK A   1      -8.274   3.415 133.758  0.00  0.00    +0.000 A 
ATOM     17  C   UNK A   1      -8.932   3.146 132.570  0.00  0.00    +0.000 A 
ATOM     18  C   UNK A   1      -8.927   1.866 131.789  0.00  0.00    +0.000 C 
ENDBRANCH   5  10
BRANCH   1  19
ATOM     19  CB  LEU A   2      -4.002   2.412 128.044  0.00  0.00    +0.000 C 
BRANCH  19  21
ATOM     20  CD1 LEU A   2      -4.149   4.196 126.352  0.00  0.00    +0.000 C 
ATOM     21  CG  LEU A   2      -3.437   2.889 126.737  0.00  0.00    +0.000 C 
ATOM     22  CD2 LEU A   2      -1.969   3.173 126.987  0.00  0.00    +0.000 C 
ENDBRANCH  19  21
ENDBRANCH   1  19
BRANCH   8  23
ATOM     23  C   UNK A   0      -6.172   0.879 126.682  0.00  0.00    +0.000 C 
BRANCH  23  24
ATOM     24  C   UNK A   0      -7.041   1.173 125.422  0.00  0.00    +0.000 A 
ATOM     25  C   UNK A   0      -7.197   2.382 124.733  0.00  0.00    +0.000 A 
ATOM     26  C   UNK A   0      -8.306   2.368 123.818  0.00  0.00    +0.000 A 
ATOM     27  C   UNK A   0      -8.817   1.108 123.687  0.00  0.00    +0.000 A 
ATOM     28 BR   UNK A   0     -10.193   0.625 122.519  0.00  0.00    +0.000 Br
ATOM     29  S   UNK A   0      -8.090   0.003 124.709  0.00  0.00    +0.000 S 
ENDBRANCH  23  24
BRANCH  23  30
ATOM     30  C   UNK A   0      -6.246  -0.686 127.118  0.00  0.00    +0.000 C 
ATOM     31  O   UNK A   0      -5.433  -1.547 126.793  0.00  0.00    +0.000 OA
ATOM     32  N   UNK A   0      -7.293  -1.116 127.913  0.00  0.00    +0.000 N 
ATOM     33  H   UNK A   0      -7.646  -0.512 128.629  0.00  0.00    +0.000 HD
BRANCH  32  34
ATOM     34  C   UNK A   0      -7.511  -2.498 128.293  0.00  0.00    +0.000 C 
ATOM     35  C   UNK A   0      -8.015  -2.452 129.722  0.00  0.00    +0.000 C 
ATOM     36  C   UNK A   0      -8.581  -3.139 127.404  0.00  0.00    +0.000 C 
ENDBRANCH  32  34
ENDBRANCH  23  30
ENDBRANCH   8  23
TORSDOF 7
ENDMDL
MODEL 7
REMARK VINA RESULT:      -7.3      3.251      5.850
REMARK  Name = CHEMBL410420
REMARK  11 active torsions:
REMARK  status: ('A' for Active; 'I' for Inactive)
REMARK    1  A    between atoms: CD1_1  and  CG_2
REMARK    2  A    between atoms: CG_2  and  CD2_3
REMARK    3  A    between atoms: CG_2  and  CB_4
REMARK    4  A    between atoms: CB_4  and  CA_5
REMARK    5  A    between atoms: C_9  and  C_10
REMARK    6  A    between atoms: N_21  and  C_22
REMARK    7  A    between atoms: C_22  and  C_23
REMARK    8  A    between atoms: C_22  and  C_29
REMARK    9  A    between atoms: N_25  and  C_26
REMARK   10  A    between atoms: C_26  and  C_27
REMARK   11  A    between atoms: C_26  and  C_28
REMARK                            x       y       z     vdW  Elec       q    Type
REMARK                         _______ _______ _______ _____ _____    ______ ____
ROOT
ATOM      1  CA  LEU A   2      -6.871   1.847 131.704  0.00  0.00    +0.000 C 
ATOM      2  C   LEU A   2      -6.052   0.568 131.720  0.00  0.00    +0.000 C 
ATOM      3  O   LEU A   2      -5.362   0.136 132.650  0.00  0.00    +0.000 OA
ATOM      4  N   UNK A   1      -6.241  -0.172 130.620  0.00  0.00    +0.000 N 
ATOM      5  C   UNK A   1      -7.203   0.181 129.593  0.00  0.00    +0.000 C 
ATOM      6  C   UNK A   1      -7.075   1.664 129.262  0.00  0.00    +0.000 C 
ATOM      7  O   UNK A   1      -7.338   2.007 128.116  0.00  0.00    +0.000 OA
ATOM      8  N   LEU A   2      -6.759   2.498 130.344  0.00  0.00    +0.000 N 
ATOM      9  H   UNK A   1      -5.768  -1.064 130.658  0.00  0.00    +0.000 HD
ENDROOT
BRANCH   5  10
ATOM     10  C   UNK A   1      -6.980  -0.608 128.283  0.00  0.00    +0.000 C 
ATOM     11  C   UNK A   1      -7.748  -1.933 128.361  0.00  0.00    +0.000 C 
ATOM     12  C   UNK A   1      -6.705  -2.820 128.981  0.00  0.00    +0.000 A 
ATOM     13  C   UNK A   1      -6.919  -3.911 129.800  0.00  0.00    +0.000 A 
ATOM     14  C   UNK A   1      -5.815  -4.483 130.435  0.00  0.00    +0.000 A 
ATOM     15  C   UNK A   1      -4.526  -3.956 130.257  0.00  0.00    +0.000 A 
ATOM     16  C   UNK A   1      -4.318  -2.832 129.456  0.00  0.00    +0.000 A 
ATOM     17  C   UNK A   1      -5.417  -2.275 128.825  0.00  0.00    +0.000 A 
ATOM     18  C   UNK A   1      -5.483  -0.980 128.074  0.00  0.00    +0.000 C 
ENDBRANCH   5  10
BRANCH   1  19
ATOM     19  CB  LEU A   2      -6.381   2.672 132.851  0.00  0.00    +0.000 C 
BRANCH  19  21
ATOM     20  CD1 LEU A   2      -6.903   4.543 134.367  0.00  0.00    +0.000 C 
ATOM     21  CG  LEU A   2      -7.268   3.099 133.986  0.00  0.00    +0.000 C 
ATOM     22  CD2 LEU A   2      -8.687   3.066 133.452  0.00  0.00    +0.000 C 
ENDBRANCH  19  21
ENDBRANCH   1  19
BRANCH   8  23
ATOM     23  C   UNK A   0      -6.363   3.961 130.159  0.00  0.00    +0.000 C 
BRANCH  23  24
ATOM     24  C   UNK A   0      -7.552   4.937 130.411  0.00  0.00    +0.000 A 
ATOM     25  C   UNK A   0      -7.539   6.177 131.062  0.00  0.00    +0.000 A 
ATOM     26  C   UNK A   0      -8.855   6.654 131.388  0.00  0.00    +0.000 A 
ATOM     27  C   UNK A   0      -9.815   5.881 130.800  0.00  0.00    +0.000 A 
ATOM     28 BR   UNK A   0     -11.653   6.212 130.876  0.00  0.00    +0.000 Br
ATOM     29  S   UNK A   0      -9.183   4.560 129.994  0.00  0.00    +0.000 S 
ENDBRANCH  23  24
BRANCH  23  30
ATOM     30  C   UNK A   0      -5.633   4.250 128.735  0.00  0.00    +0.000 C 
ATOM     31  O   UNK A   0      -6.020   5.061 127.897  0.00  0.00    +0.000 OA
ATOM     32  N   UNK A   0      -4.488   3.547 128.407  0.00  0.00    +0.000 N 
ATOM     33  H   UNK A   0      -3.829   3.320 129.125  0.00  0.00    +0.000 HD
BRANCH  32  34
ATOM     34  C   UNK A   0      -3.802   3.656 127.135  0.00  0.00    +0.000 C 
ATOM     35  C   UNK A   0      -2.324   3.642 127.468  0.00  0.00    +0.000 C 
ATOM     36  C   UNK A   0      -4.128   2.454 126.242  0.00  0.00    +0.000 C 
ENDBRANCH  32  34
ENDBRANCH  23  30
ENDBRANCH   8  23
TORSDOF 7
ENDMDL
MODEL 8
REMARK VINA RESULT:      -7.1      2.893      5.004
REMARK  Name = CHEMBL410420
REMARK  11 active torsions:
REMARK  status: ('A' for Active; 'I' for Inactive)
REMARK    1  A    between atoms: CD1_1  and  CG_2
REMARK    2  A    between atoms: CG_2  and  CD2_3
REMARK    3  A    between atoms: CG_2  and  CB_4
REMARK    4  A    between atoms: CB_4  and  CA_5
REMARK    5  A    between atoms: C_9  and  C_10
REMARK    6  A    between atoms: N_21  and  C_22
REMARK    7  A    between atoms: C_22  and  C_23
REMARK    8  A    between atoms: C_22  and  C_29
REMARK    9  A    between atoms: N_25  and  C_26
REMARK   10  A    between atoms: C_26  and  C_27
REMARK   11  A    between atoms: C_26  and  C_28
REMARK                            x       y       z     vdW  Elec       q    Type
REMARK                         _______ _______ _______ _____ _____    ______ ____
ROOT
ATOM      1  CA  LEU A   2      -7.076   0.622 129.820  0.00  0.00    +0.000 C 
ATOM      2  C   LEU A   2      -6.068  -0.029 128.888  0.00  0.00    +0.000 C 
ATOM      3  O   LEU A   2      -5.052  -0.655 129.209  0.00  0.00    +0.000 OA
ATOM      4  N   UNK A   1      -6.451   0.024 127.606  0.00  0.00    +0.000 N 
ATOM      5  C   UNK A   1      -7.734   0.557 127.192  0.00  0.00    +0.000 C 
ATOM      6  C   UNK A   1      -7.999   1.873 127.916  0.00  0.00    +0.000 C 
ATOM      7  O   UNK A   1      -8.668   2.712 127.327  0.00  0.00    +0.000 OA
ATOM      8  N   LEU A   2      -7.521   1.943 129.233  0.00  0.00    +0.000 N 
ATOM      9  H   UNK A   1      -5.831  -0.480 126.987  0.00  0.00    +0.000 HD
ENDROOT
BRANCH   5  10
ATOM     10  C   UNK A   1      -7.791   0.843 125.674  0.00  0.00    +0.000 C 
ATOM     11  C   UNK A   1      -8.993   0.107 125.072  0.00  0.00    +0.000 C 
ATOM     12  C   UNK A   1      -8.363  -1.211 124.722  0.00  0.00    +0.000 A 
ATOM     13  C   UNK A   1      -8.980  -2.446 124.683  0.00  0.00    +0.000 A 
ATOM     14  C   UNK A   1      -8.177  -3.578 124.529  0.00  0.00    +0.000 A 
ATOM     15  C   UNK A   1      -6.781  -3.465 124.429  0.00  0.00    +0.000 A 
ATOM     16  C   UNK A   1      -6.158  -2.218 124.503  0.00  0.00    +0.000 A 
ATOM     17  C   UNK A   1      -6.962  -1.101 124.649  0.00  0.00    +0.000 A 
ATOM     18  C   UNK A   1      -6.531   0.307 124.933  0.00  0.00    +0.000 C 
ENDBRANCH   5  10
BRANCH   1  19
ATOM     19  CB  LEU A   2      -6.414   0.707 131.159  0.00  0.00    +0.000 C 
BRANCH  19  21
ATOM     20  CD1 LEU A   2      -6.580  -0.862 133.050  0.00  0.00    +0.000 C 
ATOM     21  CG  LEU A   2      -7.139   0.435 132.445  0.00  0.00    +0.000 C 
ATOM     22  CD2 LEU A   2      -6.820   1.596 133.367  0.00  0.00    +0.000 C 
ENDBRANCH  19  21
ENDBRANCH   1  19
BRANCH   8  23
ATOM     23  C   UNK A   0      -7.486   3.250 130.020  0.00  0.00    +0.000 C 
BRANCH  23  24
ATOM     24  C   UNK A   0      -8.908   3.847 130.249  0.00  0.00    +0.000 A 
ATOM     25  C   UNK A   0     -10.088   3.180 130.600  0.00  0.00    +0.000 A 
ATOM     26  C   UNK A   0     -11.265   3.986 130.419  0.00  0.00    +0.000 A 
ATOM     27  C   UNK A   0     -10.932   5.282 130.143  0.00  0.00    +0.000 A 
ATOM     28 BR   UNK A   0     -12.153   6.682 129.943  0.00  0.00    +0.000 Br
ATOM     29  S   UNK A   0      -9.284   5.510 129.979  0.00  0.00    +0.000 S 
ENDBRANCH  23  24
BRANCH  23  30
ATOM     30  C   UNK A   0      -6.462   4.347 129.393  0.00  0.00    +0.000 C 
ATOM     31  O   UNK A   0      -6.387   4.640 128.202  0.00  0.00    +0.000 OA
ATOM     32  N   UNK A   0      -5.595   5.020 130.234  0.00  0.00    +0.000 N 
ATOM     33  H   UNK A   0      -5.902   5.277 131.152  0.00  0.00    +0.000 HD
BRANCH  32  34
ATOM     34  C   UNK A   0      -4.583   5.953 129.781  0.00  0.00    +0.000 C 
ATOM     35  C   UNK A   0      -4.749   7.186 130.647  0.00  0.00    +0.000 C 
ATOM     36  C   UNK A   0      -3.181   5.374 129.996  0.00  0.00    +0.000 C 
ENDBRANCH  32  34
ENDBRANCH  23  30
ENDBRANCH   8  23
TORSDOF 7
ENDMDL
MODEL 9
REMARK VINA RESULT:      -7.1      3.553      7.512
REMARK  Name = CHEMBL410420
REMARK  11 active torsions:
REMARK  status: ('A' for Active; 'I' for Inactive)
REMARK    1  A    between atoms: CD1_1  and  CG_2
REMARK    2  A    between atoms: CG_2  and  CD2_3
REMARK    3  A    between atoms: CG_2  and  CB_4
REMARK    4  A    between atoms: CB_4  and  CA_5
REMARK    5  A    between atoms: C_9  and  C_10
REMARK    6  A    between atoms: N_21  and  C_22
REMARK    7  A    between atoms: C_22  and  C_23
REMARK    8  A    between atoms: C_22  and  C_29
REMARK    9  A    between atoms: N_25  and  C_26
REMARK   10  A    between atoms: C_26  and  C_27
REMARK   11  A    between atoms: C_26  and  C_28
REMARK                            x       y       z     vdW  Elec       q    Type
REMARK                         _______ _______ _______ _____ _____    ______ ____
ROOT
ATOM      1  CA  LEU A   2      -7.799   2.717 127.615  0.00  0.00    +0.000 C 
ATOM      2  C   LEU A   2      -7.994   4.212 127.431  0.00  0.00    +0.000 C 
ATOM      3  O   LEU A   2      -8.019   4.835 126.364  0.00  0.00    +0.000 OA
ATOM      4  N   UNK A   1      -8.278   4.834 128.582  0.00  0.00    +0.000 N 
ATOM      5  C   UNK A   1      -8.473   4.123 129.831  0.00  0.00    +0.000 C 
ATOM      6  C   UNK A   1      -7.368   3.086 130.006  0.00  0.00    +0.000 C 
ATOM      7  O   UNK A   1      -7.023   2.822 131.150  0.00  0.00    +0.000 OA
ATOM      8  N   LEU A   2      -6.928   2.469 128.825  0.00  0.00    +0.000 N 
ATOM      9  H   UNK A   1      -8.494   5.814 128.459  0.00  0.00    +0.000 HD
ENDROOT
BRANCH   5  10
ATOM     10  C   UNK A   1      -8.425   5.062 131.057  0.00  0.00    +0.000 C 
ATOM     11  C   UNK A   1      -9.761   4.974 131.805  0.00  0.00    +0.000 C 
ATOM     12  C   UNK A   1     -10.541   6.051 131.107  0.00  0.00    +0.000 A 
ATOM     13  C   UNK A   1     -11.908   6.097 130.913  0.00  0.00    +0.000 A 
ATOM     14  C   UNK A   1     -12.418   7.084 130.066  0.00  0.00    +0.000 A 
ATOM     15  C   UNK A   1     -11.565   7.994 129.421  0.00  0.00    +0.000 A 
ATOM     16  C   UNK A   1     -10.182   7.923 129.593  0.00  0.00    +0.000 A 
ATOM     17  C   UNK A   1      -9.685   6.946 130.439  0.00  0.00    +0.000 A 
ATOM     18  C   UNK A   1      -8.253   6.553 130.643  0.00  0.00    +0.000 C 
ENDBRANCH   5  10
BRANCH   1  19
ATOM     19  CB  LEU A   2      -7.255   2.203 126.319  0.00  0.00    +0.000 C 
BRANCH  19  21
ATOM     20  CD1 LEU A   2      -9.204   0.700 126.228  0.00  0.00    +0.000 C 
ATOM     21  CG  LEU A   2      -8.018   1.264 125.430  0.00  0.00    +0.000 C 
ATOM     22  CD2 LEU A   2      -8.541   2.100 124.278  0.00  0.00    +0.000 C 
ENDBRANCH  19  21
ENDBRANCH   1  19
BRANCH   8  23
ATOM     23  C   UNK A   0      -5.680   1.591 128.780  0.00  0.00    +0.000 C 
BRANCH  23  24
ATOM     24  C   UNK A   0      -5.725   0.437 129.827  0.00  0.00    +0.000 A 
ATOM     25  C   UNK A   0      -4.729   0.037 130.726  0.00  0.00    +0.000 A 
ATOM     26  C   UNK A   0      -4.989  -1.247 131.319  0.00  0.00    +0.000 A 
ATOM     27  C   UNK A   0      -6.251  -1.677 131.018  0.00  0.00    +0.000 A 
ATOM     28 BR   UNK A   0      -7.033  -3.243 131.673  0.00  0.00    +0.000 Br
ATOM     29  S   UNK A   0      -7.053  -0.655 129.967  0.00  0.00    +0.000 S 
ENDBRANCH  23  24
BRANCH  23  30
ATOM     30  C   UNK A   0      -4.296   2.440 128.872  0.00  0.00    +0.000 C 
ATOM     31  O   UNK A   0      -3.846   2.943 129.899  0.00  0.00    +0.000 OA
ATOM     32  N   UNK A   0      -3.543   2.631 127.728  0.00  0.00    +0.000 N 
ATOM     33  H   UNK A   0      -3.487   1.897 127.050  0.00  0.00    +0.000 HD
BRANCH  32  34
ATOM     34  C   UNK A   0      -2.341   3.439 127.671  0.00  0.00    +0.000 C 
ATOM     35  C   UNK A   0      -1.612   2.996 126.419  0.00  0.00    +0.000 C 
ATOM     36  C   UNK A   0      -2.696   4.924 127.546  0.00  0.00    +0.000 C 
ENDBRANCH  32  34
ENDBRANCH  23  30
ENDBRANCH   8  23
TORSDOF 7
ENDMDL
