MODEL 1
REMARK VINA RESULT:     -10.8      0.000      0.000
REMARK  Name = CHEMBL1630532
REMARK  15 active torsions:
REMARK  status: ('A' for Active; 'I' for Inactive)
REMARK    1  A    between atoms: CD1_1  and  CG1_2
REMARK    2  A    between atoms: CG1_2  and  CB_3
REMARK    3  A    between atoms: CB_3  and  CG2_4
REMARK    4  A    between atoms: CB_3  and  CA_5
REMARK    5  A    between atoms: CA_9  and  CB_10
REMARK    6  A    between atoms: CB_10  and  CG_11
REMARK    7  A    between atoms: CZ_14  and  OH_15
REMARK    8  A    between atoms: C_30  and  C_31
REMARK    9  A    between atoms: CA_37  and  CB_38
REMARK   10  A    between atoms: CB_38  and  CG_39
REMARK   11  A    between atoms: CG_39  and  CD_40
REMARK   12  A    between atoms: CA_56  and  CB_57
REMARK   13  A    between atoms: CB_57  and  CG_58
REMARK   14  A    between atoms: CG_58  and  CD1_59
REMARK   15  A    between atoms: CG_58  and  CD2_60
REMARK                            x       y       z     vdW  Elec       q    Type
REMARK                         _______ _______ _______ _____ _____    ______ ____
ROOT
ATOM      1  CA  ILE A   1      -5.055   4.623 127.381  0.00  0.00    +0.000 C 
ATOM      2  N   ILE A   1      -3.373   4.497 128.632  0.00  0.00    +0.000 N 
ATOM      3  C   TYR A   9      -3.259   3.689 130.316  0.00  0.00    +0.000 C 
ATOM      4  O   TYR A   9      -3.356   4.364 131.490  0.00  0.00    +0.000 OA
ATOM      5  CA  TYR A   9      -4.505   1.990 130.131  0.00  0.00    +0.000 C 
ATOM      6  N   TYR A   9      -3.611   1.014 129.689  0.00  0.00    +0.000 N 
ATOM      7  C   CYS A   8      -3.836   0.343 130.699  0.00  0.00    +0.000 C 
ATOM      8  O   CYS A   8      -3.716  -0.837 130.048  0.00  0.00    +0.000 OA
ATOM      9  CA  CYS A   8      -4.710   0.991 132.460  0.00  0.00    +0.000 C 
ATOM     10  CB  CYS A   8      -6.049   0.146 133.204  0.00  0.00    +0.000 C 
ATOM     11  SG  CYS A   8      -5.811  -1.670 133.547  0.00  0.00    +0.000 S 
ATOM     12  SG  CYS A   4      -7.511  -2.360 132.769  0.00  0.00    +0.000 S 
ATOM     13  CB  CYS A   4      -6.975  -3.290 131.319  0.00  0.00    +0.000 C 
ATOM     14  CA  CYS A   4      -8.062  -3.056 130.329  0.00  0.00    +0.000 C 
ATOM     15  N   CYS A   4      -8.603  -1.740 130.367  0.00  0.00    +0.000 N 
ATOM     16  C   UNK A   3      -7.790  -0.709 130.307  0.00  0.00    +0.000 C 
ATOM     17  O   UNK A   3      -8.418   0.341 130.301  0.00  0.00    +0.000 OA
ATOM     18  C   UNK A   3      -6.235  -1.158 130.069  0.00  0.00    +0.000 C 
ATOM     19  N   UNK A   3      -5.564  -0.419 129.143  0.00  0.00    +0.000 N 
ATOM     20  C   GLN A   2      -6.031   0.714 129.184  0.00  0.00    +0.000 C 
ATOM     21  O   GLN A   2      -5.510   1.602 128.600  0.00  0.00    +0.000 OA
ATOM     22  CA  GLN A   2      -6.290   2.057 128.891  0.00  0.00    +0.000 C 
ATOM     23  N   GLN A   2      -4.758   3.526 129.288  0.00  0.00    +0.000 N 
ATOM     24  C   ILE A   1      -4.632   5.112 128.520  0.00  0.00    +0.000 C 
ATOM     25  O   ILE A   1      -4.304   6.291 128.426  0.00  0.00    +0.000 OA
ATOM     26  C   CYS A   4      -7.553  -3.346 128.995  0.00  0.00    +0.000 C 
ATOM     27  O   CYS A   4      -6.617  -4.092 128.698  0.00  0.00    +0.000 OA
ATOM     28  N   PRO A   5      -8.786  -2.609 128.129  0.00  0.00    +0.000 N 
ATOM     29  CD  PRO A   5      -9.401  -3.027 126.900  0.00  0.00    +0.000 C 
ATOM     30  CG  PRO A   5      -8.397  -3.972 127.089  0.00  0.00    +0.000 C 
ATOM     31  CB  PRO A   5      -7.340  -2.260 127.119  0.00  0.00    +0.000 C 
ATOM     32  CA  PRO A   5      -8.454  -1.436 127.595  0.00  0.00    +0.000 C 
ATOM     33  C   PRO A   5      -9.091  -0.350 126.284  0.00  0.00    +0.000 C 
ATOM     34  O   PRO A   5     -10.215  -0.626 125.889  0.00  0.00    +0.000 OA
ATOM     35  N   LEU A   6      -8.115   0.640 125.467  0.00  0.00    +0.000 N 
ATOM     36  CA  LEU A   6      -6.389   1.148 125.467  0.00  0.00    +0.000 C 
ATOM     37  C   LEU A   6      -5.082   2.735 125.834  0.00  0.00    +0.000 C 
ATOM     38  O   LEU A   6      -5.426   3.856 125.279  0.00  0.00    +0.000 OA
ATOM     39  N   GLY A   7      -4.932   2.961 127.726  0.00  0.00    +0.000 N 
ATOM     40  CA  GLY A   7      -6.138   3.571 129.453  0.00  0.00    +0.000 C 
ATOM     41  C   GLY A   7      -5.027   3.155 131.375  0.00  0.00    +0.000 C 
ATOM     42  O   GLY A   7      -3.669   2.425 131.617  0.00  0.00    +0.000 OA
ATOM     43  N   CYS A   8      -5.262   2.482 132.570  0.00  0.00    +0.000 N 
ATOM     44  H   ILE A   1      -2.993   5.207 129.467  0.00  0.00    +0.000 HD
ATOM     45  H   TYR A   9      -3.811   0.315 128.943  0.00  0.00    +0.000 HD
ATOM     46  H   CYS A   4      -9.563  -1.463 130.456  0.00  0.00    +0.000 HD
ATOM     47  H   UNK A   3      -5.179  -0.676 128.288  0.00  0.00    +0.000 HD
ATOM     48  H   GLN A   2      -4.908   4.137 130.181  0.00  0.00    +0.000 HD
ATOM     49  H   LEU A   6      -8.068   0.809 124.519  0.00  0.00    +0.000 HD
ATOM     50  H   GLY A   7      -3.870   2.826 127.880  0.00  0.00    +0.000 HD
ATOM     51  H   CYS A   8      -6.186   2.795 132.764  0.00  0.00    +0.000 HD
ENDROOT
BRANCH  18  52
ATOM     52  C   UNK A   3      -5.489  -0.780 131.228  0.00  0.00    +0.000 C 
ATOM     53  N   UNK A   3      -3.841  -0.894 131.818  0.00  0.00    +0.000 N 
ATOM     54  O   UNK A   3      -6.195   0.239 131.380  0.00  0.00    +0.000 OA
ATOM     55  H   UNK A   3      -3.305   0.059 132.190  0.00  0.00    +0.000 HD
ATOM     56  H   UNK A   3      -3.210  -0.941 130.940  0.00  0.00    +0.000 HD
ENDBRANCH  18  52
BRANCH   1  57
ATOM     57  CB  ILE A   1      -6.449   3.067 126.924  0.00  0.00    +0.000 C 
ATOM     58  CG2 ILE A   1      -8.249   3.081 127.617  0.00  0.00    +0.000 C 
BRANCH  57  60
ATOM     59  CD1 ILE A   1      -8.067   3.741 124.578  0.00  0.00    +0.000 C 
ATOM     60  CG1 ILE A   1      -6.762   2.682 124.878  0.00  0.00    +0.000 C 
ENDBRANCH  57  60
ENDBRANCH   1  57
BRANCH   5  61
ATOM     61  CB  TYR A   9      -6.566   2.348 130.911  0.00  0.00    +0.000 C 
BRANCH  61  62
ATOM     62  CG  TYR A   9      -6.908   3.818 132.212  0.00  0.00    +0.000 A 
ATOM     63  CD1 TYR A   9      -7.312   5.346 131.740  0.00  0.00    +0.000 A 
ATOM     64  CE1 TYR A   9      -8.473   6.087 131.873  0.00  0.00    +0.000 A 
ATOM     65  CZ  TYR A   9      -8.943   5.657 133.027  0.00  0.00    +0.000 A 
ATOM     66  CE2 TYR A   9      -8.646   4.361 133.605  0.00  0.00    +0.000 A 
ATOM     67  CD2 TYR A   9      -7.788   3.359 133.141  0.00  0.00    +0.000 A 
BRANCH  65  68
ATOM     68  OH  TYR A   9      -9.517   6.584 133.812  0.00  0.00    +0.000 OA
ATOM     69  HH  TYR A   9     -10.433   6.284 133.962  0.00  0.00    +0.000 HD
ENDBRANCH  65  68
ENDBRANCH  61  62
ENDBRANCH   5  61
BRANCH  22  70
ATOM     70  CB  GLN A   2      -8.250   2.617 128.545  0.00  0.00    +0.000 C 
BRANCH  70  71
ATOM     71  CG  GLN A   2      -9.184   2.615 129.708  0.00  0.00    +0.000 C 
BRANCH  71  72
ATOM     72  CD  GLN A   2     -10.254   3.353 130.206  0.00  0.00    +0.000 C 
ATOM     73  NE2 GLN A   2     -10.599   2.629 131.241  0.00  0.00    +0.000 N 
ATOM     74  OE1 GLN A   2     -10.616   4.438 129.811  0.00  0.00    +0.000 OA
ATOM     75 HE21 GLN A   2     -10.129   1.771 131.496  0.00  0.00    +0.000 HD
ATOM     76 HE22 GLN A   2     -11.390   3.012 131.650  0.00  0.00    +0.000 HD
ENDBRANCH  71  72
ENDBRANCH  70  71
ENDBRANCH  22  70
BRANCH  36  77
ATOM     77  CB  LEU A   6      -5.132  -0.366 125.843  0.00  0.00    +0.000 C 
BRANCH  77  78
ATOM     78  CG  LEU A   6      -4.841  -1.778 124.994  0.00  0.00    +0.000 C 
ATOM     79  CD1 LEU A   6      -4.676  -2.629 126.478  0.00  0.00    +0.000 C 
ATOM     80  CD2 LEU A   6      -5.819  -1.710 123.964  0.00  0.00    +0.000 C 
ENDBRANCH  77  78
ENDBRANCH  36  77
TORSDOF 11
ENDMDL
MODEL 2
REMARK VINA RESULT:     -10.7      3.308      6.767
REMARK  Name = CHEMBL1630532
REMARK  15 active torsions:
REMARK  status: ('A' for Active; 'I' for Inactive)
REMARK    1  A    between atoms: CD1_1  and  CG1_2
REMARK    2  A    between atoms: CG1_2  and  CB_3
REMARK    3  A    between atoms: CB_3  and  CG2_4
REMARK    4  A    between atoms: CB_3  and  CA_5
REMARK    5  A    between atoms: CA_9  and  CB_10
REMARK    6  A    between atoms: CB_10  and  CG_11
REMARK    7  A    between atoms: CZ_14  and  OH_15
REMARK    8  A    between atoms: C_30  and  C_31
REMARK    9  A    between atoms: CA_37  and  CB_38
REMARK   10  A    between atoms: CB_38  and  CG_39
REMARK   11  A    between atoms: CG_39  and  CD_40
REMARK   12  A    between atoms: CA_56  and  CB_57
REMARK   13  A    between atoms: CB_57  and  CG_58
REMARK   14  A    between atoms: CG_58  and  CD1_59
REMARK   15  A    between atoms: CG_58  and  CD2_60
REMARK                            x       y       z     vdW  Elec       q    Type
REMARK                         _______ _______ _______ _____ _____    ______ ____
ROOT
ATOM      1  CA  ILE A   1      -4.999   0.579 129.204  0.00  0.00    +0.000 C 
ATOM      2  N   ILE A   1      -3.680   2.089 128.577  0.00  0.00    +0.000 N 
ATOM      3  C   TYR A   9      -3.487   3.807 129.293  0.00  0.00    +0.000 C 
ATOM      4  O   TYR A   9      -4.075   4.916 128.774  0.00  0.00    +0.000 OA
ATOM      5  CA  TYR A   9      -3.762   3.509 131.368  0.00  0.00    +0.000 C 
ATOM      6  N   TYR A   9      -2.460   3.265 131.807  0.00  0.00    +0.000 N 
ATOM      7  C   CYS A   8      -2.515   4.258 132.537  0.00  0.00    +0.000 C 
ATOM      8  O   CYS A   8      -1.760   3.694 133.508  0.00  0.00    +0.000 OA
ATOM      9  CA  CYS A   8      -3.866   5.821 132.419  0.00  0.00    +0.000 C 
ATOM     10  CB  CYS A   8      -4.769   6.382 133.810  0.00  0.00    +0.000 C 
ATOM     11  SG  CYS A   8      -3.782   6.849 135.320  0.00  0.00    +0.000 S 
ATOM     12  SG  CYS A   4      -4.820   5.844 136.692  0.00  0.00    +0.000 S 
ATOM     13  CB  CYS A   4      -3.685   4.546 137.226  0.00  0.00    +0.000 C 
ATOM     14  CA  CYS A   4      -4.577   3.384 137.490  0.00  0.00    +0.000 C 
ATOM     15  N   CYS A   4      -5.661   3.269 136.573  0.00  0.00    +0.000 N 
ATOM     16  C   UNK A   3      -5.416   3.289 135.282  0.00  0.00    +0.000 C 
ATOM     17  O   UNK A   3      -6.446   3.131 134.641  0.00  0.00    +0.000 OA
ATOM     18  C   UNK A   3      -3.813   3.327 134.956  0.00  0.00    +0.000 C 
ATOM     19  N   UNK A   3      -3.415   2.485 133.963  0.00  0.00    +0.000 N 
ATOM     20  C   GLN A   2      -4.350   2.394 133.175  0.00  0.00    +0.000 C 
ATOM     21  O   GLN A   2      -4.208   1.858 132.130  0.00  0.00    +0.000 OA
ATOM     22  CA  GLN A   2      -5.145   1.997 132.095  0.00  0.00    +0.000 C 
ATOM     23  N   GLN A   2      -4.549   2.561 130.097  0.00  0.00    +0.000 N 
ATOM     24  C   ILE A   1      -5.043   1.746 128.609  0.00  0.00    +0.000 C 
ATOM     25  O   ILE A   1      -5.283   1.648 127.410  0.00  0.00    +0.000 OA
ATOM     26  C   CYS A   4      -3.780   2.165 137.470  0.00  0.00    +0.000 C 
ATOM     27  O   CYS A   4      -2.571   2.059 137.691  0.00  0.00    +0.000 OA
ATOM     28  N   PRO A   5      -5.051   1.077 137.361  0.00  0.00    +0.000 N 
ATOM     29  CD  PRO A   5      -5.194  -0.212 137.977  0.00  0.00    +0.000 C 
ATOM     30  CG  PRO A   5      -3.913   0.181 138.358  0.00  0.00    +0.000 C 
ATOM     31  CB  PRO A   5      -3.784   0.296 136.353  0.00  0.00    +0.000 C 
ATOM     32  CA  PRO A   5      -5.213   0.546 136.151  0.00  0.00    +0.000 C 
ATOM     33  C   PRO A   5      -6.052  -0.902 135.442  0.00  0.00    +0.000 C 
ATOM     34  O   PRO A   5      -6.840  -1.458 136.194  0.00  0.00    +0.000 OA
ATOM     35  N   LEU A   6      -5.521  -1.601 134.089  0.00  0.00    +0.000 N 
ATOM     36  CA  LEU A   6      -4.249  -1.349 132.842  0.00  0.00    +0.000 C 
ATOM     37  C   LEU A   6      -3.899  -0.856 130.843  0.00  0.00    +0.000 C 
ATOM     38  O   LEU A   6      -4.623  -1.514 129.991  0.00  0.00    +0.000 OA
ATOM     39  N   GLY A   7      -4.184   1.022 130.631  0.00  0.00    +0.000 N 
ATOM     40  CA  GLY A   7      -5.802   2.500 130.700  0.00  0.00    +0.000 C 
ATOM     41  C   GLY A   7      -4.958   4.594 130.614  0.00  0.00    +0.000 C 
ATOM     42  O   GLY A   7      -3.478   5.087 130.642  0.00  0.00    +0.000 OA
ATOM     43  N   CYS A   8      -5.051   5.767 131.355  0.00  0.00    +0.000 N 
ATOM     44  H   ILE A   1      -3.813   2.938 127.797  0.00  0.00    +0.000 HD
ATOM     45  H   TYR A   9      -2.190   2.532 132.497  0.00  0.00    +0.000 HD
ATOM     46  H   CYS A   4      -6.641   3.190 136.774  0.00  0.00    +0.000 HD
ATOM     47  H   UNK A   3      -2.820   1.717 133.987  0.00  0.00    +0.000 HD
ATOM     48  H   GLN A   2      -5.109   3.387 129.653  0.00  0.00    +0.000 HD
ATOM     49  H   LEU A   6      -5.401  -2.536 133.889  0.00  0.00    +0.000 HD
ATOM     50  H   GLY A   7      -3.221   1.351 130.265  0.00  0.00    +0.000 HD
ATOM     51  H   CYS A   8      -6.034   5.795 131.511  0.00  0.00    +0.000 HD
ENDROOT
BRANCH  18  52
ATOM     52  C   UNK A   3      -3.527   4.570 134.312  0.00  0.00    +0.000 C 
ATOM     53  N   UNK A   3      -2.132   5.431 133.688  0.00  0.00    +0.000 N 
ATOM     54  O   UNK A   3      -4.628   4.545 133.721  0.00  0.00    +0.000 OA
ATOM     55  H   UNK A   3      -2.151   5.832 132.605  0.00  0.00    +0.000 HD
ATOM     56  H   UNK A   3      -1.404   4.673 133.426  0.00  0.00    +0.000 HD
ENDBRANCH  18  52
BRANCH   1  57
ATOM     57  CB  ILE A   1      -5.424  -0.018 131.212  0.00  0.00    +0.000 C 
ATOM     58  CG2 ILE A   1      -7.117   0.373 132.051  0.00  0.00    +0.000 C 
BRANCH  57  60
ATOM     59  CD1 ILE A   1      -6.714  -2.647 131.170  0.00  0.00    +0.000 C 
ATOM     60  CG1 ILE A   1      -5.178  -2.065 131.637  0.00  0.00    +0.000 C 
ENDBRANCH  57  60
ENDBRANCH   1  57
BRANCH   5  61
ATOM     61  CB  TYR A   9      -5.854   3.930 132.026  0.00  0.00    +0.000 C 
BRANCH  61  62
ATOM     62  CG  TYR A   9      -7.110   4.902 130.823  0.00  0.00    +0.000 A 
ATOM     63  CD1 TYR A   9      -8.035   4.133 129.695  0.00  0.00    +0.000 A 
ATOM     64  CE1 TYR A   9      -9.400   3.937 129.583  0.00  0.00    +0.000 A 
ATOM     65  CZ  TYR A   9      -9.880   5.041 130.121  0.00  0.00    +0.000 A 
ATOM     66  CE2 TYR A   9      -9.177   5.858 131.090  0.00  0.00    +0.000 A 
ATOM     67  CD2 TYR A   9      -7.879   5.717 131.592  0.00  0.00    +0.000 A 
BRANCH  65  68
ATOM     68  OH  TYR A   9     -10.974   5.555 129.533  0.00  0.00    +0.000 OA
ATOM     69  HH  TYR A   9     -10.845   5.442 128.573  0.00  0.00    +0.000 HD
ENDBRANCH  65  68
ENDBRANCH  61  62
ENDBRANCH   5  61
BRANCH  22  70
ATOM     70  CB  GLN A   2      -7.055   1.314 132.493  0.00  0.00    +0.000 C 
BRANCH  70  71
ATOM     71  CG  GLN A   2      -8.052   2.304 132.995  0.00  0.00    +0.000 C 
BRANCH  71  72
ATOM     72  CD  GLN A   2      -9.424   2.536 132.957  0.00  0.00    +0.000 C 
ATOM     73  NE2 GLN A   2      -9.532   3.547 133.782  0.00  0.00    +0.000 N 
ATOM     74  OE1 GLN A   2     -10.218   1.993 132.222  0.00  0.00    +0.000 OA
ATOM     75 HE21 GLN A   2      -8.741   3.953 134.264  0.00  0.00    +0.000 HD
ATOM     76 HE22 GLN A   2     -10.468   3.771 133.892  0.00  0.00    +0.000 HD
ENDBRANCH  71  72
ENDBRANCH  70  71
ENDBRANCH  22  70
BRANCH  36  77
ATOM     77  CB  LEU A   6      -2.517  -0.702 133.615  0.00  0.00    +0.000 C 
BRANCH  77  78
ATOM     78  CG  LEU A   6      -1.370  -1.498 134.535  0.00  0.00    +0.000 C 
ATOM     79  CD1 LEU A   6      -2.308  -2.936 134.451  0.00  0.00    +0.000 C 
ATOM     80  CD2 LEU A   6      -0.155  -1.040 133.955  0.00  0.00    +0.000 C 
ENDBRANCH  77  78
ENDBRANCH  36  77
TORSDOF 11
ENDMDL
MODEL 3
REMARK VINA RESULT:     -10.3      2.521      4.607
REMARK  Name = CHEMBL1630532
REMARK  15 active torsions:
REMARK  status: ('A' for Active; 'I' for Inactive)
REMARK    1  A    between atoms: CD1_1  and  CG1_2
REMARK    2  A    between atoms: CG1_2  and  CB_3
REMARK    3  A    between atoms: CB_3  and  CG2_4
REMARK    4  A    between atoms: CB_3  and  CA_5
REMARK    5  A    between atoms: CA_9  and  CB_10
REMARK    6  A    between atoms: CB_10  and  CG_11
REMARK    7  A    between atoms: CZ_14  and  OH_15
REMARK    8  A    between atoms: C_30  and  C_31
REMARK    9  A    between atoms: CA_37  and  CB_38
REMARK   10  A    between atoms: CB_38  and  CG_39
REMARK   11  A    between atoms: CG_39  and  CD_40
REMARK   12  A    between atoms: CA_56  and  CB_57
REMARK   13  A    between atoms: CB_57  and  CG_58
REMARK   14  A    between atoms: CG_58  and  CD1_59
REMARK   15  A    between atoms: CG_58  and  CD2_60
REMARK                            x       y       z     vdW  Elec       q    Type
REMARK                         _______ _______ _______ _____ _____    ______ ____
ROOT
ATOM      1  CA  ILE A   1      -6.017   2.970 127.237  0.00  0.00    +0.000 C 
ATOM      2  N   ILE A   1      -4.483   4.398 127.375  0.00  0.00    +0.000 N 
ATOM      3  C   TYR A   9      -4.030   5.449 128.856  0.00  0.00    +0.000 C 
ATOM      4  O   TYR A   9      -4.442   6.731 129.030  0.00  0.00    +0.000 OA
ATOM      5  CA  TYR A   9      -4.349   4.152 130.496  0.00  0.00    +0.000 C 
ATOM      6  N   TYR A   9      -3.101   3.547 130.642  0.00  0.00    +0.000 N 
ATOM      7  C   CYS A   8      -3.003   4.011 131.781  0.00  0.00    +0.000 C 
ATOM      8  O   CYS A   8      -2.344   2.931 132.259  0.00  0.00    +0.000 OA
ATOM      9  CA  CYS A   8      -4.100   5.568 132.592  0.00  0.00    +0.000 C 
ATOM     10  CB  CYS A   8      -4.907   5.435 134.139  0.00  0.00    +0.000 C 
ATOM     11  SG  CYS A   8      -3.863   4.913 135.591  0.00  0.00    +0.000 S 
ATOM     12  SG  CYS A   4      -5.043   3.486 136.326  0.00  0.00    +0.000 S 
ATOM     13  CB  CYS A   4      -4.120   1.965 136.023  0.00  0.00    +0.000 C 
ATOM     14  CA  CYS A   4      -5.180   0.964 135.720  0.00  0.00    +0.000 C 
ATOM     15  N   CYS A   4      -6.267   1.487 134.965  0.00  0.00    +0.000 N 
ATOM     16  C   UNK A   3      -6.021   2.144 133.854  0.00  0.00    +0.000 C 
ATOM     17  O   UNK A   3      -7.063   2.480 133.306  0.00  0.00    +0.000 OA
ATOM     18  C   UNK A   3      -4.431   2.136 133.468  0.00  0.00    +0.000 C 
ATOM     19  N   UNK A   3      -4.165   1.891 132.156  0.00  0.00    +0.000 N 
ATOM     20  C   GLN A   2      -5.103   2.347 131.510  0.00  0.00    +0.000 C 
ATOM     21  O   GLN A   2      -5.043   2.421 130.330  0.00  0.00    +0.000 OA
ATOM     22  CA  GLN A   2      -5.948   2.679 130.446  0.00  0.00    +0.000 C 
ATOM     23  N   GLN A   2      -5.271   4.118 128.985  0.00  0.00    +0.000 N 
ATOM     24  C   ILE A   1      -5.882   4.270 127.333  0.00  0.00    +0.000 C 
ATOM     25  O   ILE A   1      -6.133   4.843 126.278  0.00  0.00    +0.000 OA
ATOM     26  C   CYS A   4      -4.578  -0.159 135.013  0.00  0.00    +0.000 C 
ATOM     27  O   CYS A   4      -3.400  -0.521 135.052  0.00  0.00    +0.000 OA
ATOM     28  N   PRO A   5      -6.001  -0.852 134.460  0.00  0.00    +0.000 N 
ATOM     29  CD  PRO A   5      -6.339  -2.243 134.333  0.00  0.00    +0.000 C 
ATOM     30  CG  PRO A   5      -5.014  -2.276 134.760  0.00  0.00    +0.000 C 
ATOM     31  CB  PRO A   5      -4.867  -1.152 133.097  0.00  0.00    +0.000 C 
ATOM     32  CA  PRO A   5      -6.241  -0.650 133.166  0.00  0.00    +0.000 C 
ATOM     33  C   PRO A   5      -7.290  -1.391 131.881  0.00  0.00    +0.000 C 
ATOM     34  O   PRO A   5      -8.155  -2.149 132.299  0.00  0.00    +0.000 OA
ATOM     35  N   LEU A   6      -6.871  -1.345 130.325  0.00  0.00    +0.000 N 
ATOM     36  CA  LEU A   6      -5.574  -0.650 129.290  0.00  0.00    +0.000 C 
ATOM     37  C   LEU A   6      -5.151   0.762 127.810  0.00  0.00    +0.000 C 
ATOM     38  O   LEU A   6      -5.966   0.745 126.801  0.00  0.00    +0.000 OA
ATOM     39  N   GLY A   7      -5.146   2.493 128.619  0.00  0.00    +0.000 N 
ATOM     40  CA  GLY A   7      -6.519   3.916 129.566  0.00  0.00    +0.000 C 
ATOM     41  C   GLY A   7      -5.365   5.616 130.505  0.00  0.00    +0.000 C 
ATOM     42  O   GLY A   7      -3.826   5.824 130.665  0.00  0.00    +0.000 OA
ATOM     43  N   CYS A   8      -5.278   6.232 131.749  0.00  0.00    +0.000 N 
ATOM     44  H   ILE A   1      -4.483   5.537 127.158  0.00  0.00    +0.000 HD
ATOM     45  H   TYR A   9      -2.946   2.534 130.832  0.00  0.00    +0.000 HD
ATOM     46  H   CYS A   4      -7.248   1.443 135.172  0.00  0.00    +0.000 HD
ATOM     47  H   UNK A   3      -3.695   1.152 131.734  0.00  0.00    +0.000 HD
ATOM     48  H   GLN A   2      -5.698   5.119 129.075  0.00  0.00    +0.000 HD
ATOM     49  H   LEU A   6      -6.895  -2.046 129.663  0.00  0.00    +0.000 HD
ATOM     50  H   GLY A   7      -4.143   2.835 128.400  0.00  0.00    +0.000 HD
ATOM     51  H   CYS A   8      -6.245   6.303 131.974  0.00  0.00    +0.000 HD
ENDROOT
BRANCH  18  52
ATOM     52  C   UNK A   3      -3.958   3.483 133.536  0.00  0.00    +0.000 C 
ATOM     53  N   UNK A   3      -2.441   4.347 133.366  0.00  0.00    +0.000 N 
ATOM     54  O   UNK A   3      -5.038   3.911 133.077  0.00  0.00    +0.000 OA
ATOM     55  H   UNK A   3      -2.380   5.247 132.643  0.00  0.00    +0.000 HD
ATOM     56  H   UNK A   3      -1.823   3.744 132.714  0.00  0.00    +0.000 HD
ENDBRANCH  18  52
BRANCH   1  57
ATOM     57  CB  ILE A   1      -6.531   1.476 128.677  0.00  0.00    +0.000 C 
ATOM     58  CG2 ILE A   1      -8.171   1.562 129.689  0.00  0.00    +0.000 C 
BRANCH  57  60
ATOM     59  CD1 ILE A   1      -8.089  -0.563 127.267  0.00  0.00    +0.000 C 
ATOM     60  CG1 ILE A   1      -6.540  -0.511 127.981  0.00  0.00    +0.000 C 
ENDBRANCH  57  60
ENDBRANCH   1  57
BRANCH   5  61
ATOM     61  CB  TYR A   9      -6.353   4.438 131.439  0.00  0.00    +0.000 C 
BRANCH  61  62
ATOM     62  CG  TYR A   9      -7.562   5.891 130.810  0.00  0.00    +0.000 A 
ATOM     63  CD1 TYR A   9      -8.536   5.728 129.489  0.00  0.00    +0.000 A 
ATOM     64  CE1 TYR A   9      -9.911   5.664 129.346  0.00  0.00    +0.000 A 
ATOM     65  CZ  TYR A   9     -10.325   6.449 130.321  0.00  0.00    +0.000 A 
ATOM     66  CE2 TYR A   9      -9.571   6.734 131.525  0.00  0.00    +0.000 A 
ATOM     67  CD2 TYR A   9      -8.279   6.331 131.878  0.00  0.00    +0.000 A 
BRANCH  65  68
ATOM     68  OH  TYR A   9     -11.393   7.217 130.045  0.00  0.00    +0.000 OA
ATOM     69  HH  TYR A   9     -11.172   8.113 130.361  0.00  0.00    +0.000 HD
ENDBRANCH  65  68
ENDBRANCH  61  62
ENDBRANCH   5  61
BRANCH  22  70
ATOM     70  CB  GLN A   2      -7.941   2.146 130.584  0.00  0.00    +0.000 C 
BRANCH  70  71
ATOM     71  CG  GLN A   2      -8.722   2.686 131.735  0.00  0.00    +0.000 C 
BRANCH  71  72
ATOM     72  CD  GLN A   2     -10.036   2.999 132.066  0.00  0.00    +0.000 C 
ATOM     73  NE2 GLN A   2      -9.908   3.324 133.328  0.00  0.00    +0.000 N 
ATOM     74  OE1 GLN A   2     -10.969   3.066 131.296  0.00  0.00    +0.000 OA
ATOM     75 HE21 GLN A   2      -9.023   3.299 133.818  0.00  0.00    +0.000 HD
ATOM     76 HE22 GLN A   2     -10.783   3.510 133.701  0.00  0.00    +0.000 HD
ENDBRANCH  71  72
ENDBRANCH  70  71
ENDBRANCH  22  70
BRANCH  36  77
ATOM     77  CB  LEU A   6      -3.765  -0.733 130.147  0.00  0.00    +0.000 C 
BRANCH  77  78
ATOM     78  CG  LEU A   6      -2.669  -1.992 130.258  0.00  0.00    +0.000 C 
ATOM     79  CD1 LEU A   6      -2.491  -1.681 131.939  0.00  0.00    +0.000 C 
ATOM     80  CD2 LEU A   6      -3.292  -2.999 129.470  0.00  0.00    +0.000 C 
ENDBRANCH  77  78
ENDBRANCH  36  77
TORSDOF 11
ENDMDL
MODEL 4
REMARK VINA RESULT:     -10.3      2.073      4.007
REMARK  Name = CHEMBL1630532
REMARK  15 active torsions:
REMARK  status: ('A' for Active; 'I' for Inactive)
REMARK    1  A    between atoms: CD1_1  and  CG1_2
REMARK    2  A    between atoms: CG1_2  and  CB_3
REMARK    3  A    between atoms: CB_3  and  CG2_4
REMARK    4  A    between atoms: CB_3  and  CA_5
REMARK    5  A    between atoms: CA_9  and  CB_10
REMARK    6  A    between atoms: CB_10  and  CG_11
REMARK    7  A    between atoms: CZ_14  and  OH_15
REMARK    8  A    between atoms: C_30  and  C_31
REMARK    9  A    between atoms: CA_37  and  CB_38
REMARK   10  A    between atoms: CB_38  and  CG_39
REMARK   11  A    between atoms: CG_39  and  CD_40
REMARK   12  A    between atoms: CA_56  and  CB_57
REMARK   13  A    between atoms: CB_57  and  CG_58
REMARK   14  A    between atoms: CG_58  and  CD1_59
REMARK   15  A    between atoms: CG_58  and  CD2_60
REMARK                            x       y       z     vdW  Elec       q    Type
REMARK                         _______ _______ _______ _____ _____    ______ ____
ROOT
ATOM      1  CA  ILE A   1      -3.146   5.599 132.371  0.00  0.00    +0.000 C 
ATOM      2  N   ILE A   1      -2.309   4.061 133.530  0.00  0.00    +0.000 N 
ATOM      3  C   TYR A   9      -3.104   2.442 134.028  0.00  0.00    +0.000 C 
ATOM      4  O   TYR A   9      -3.701   2.228 135.229  0.00  0.00    +0.000 OA
ATOM      5  CA  TYR A   9      -4.247   1.913 132.329  0.00  0.00    +0.000 C 
ATOM      6  N   TYR A   9      -3.342   1.151 131.590  0.00  0.00    +0.000 N 
ATOM      7  C   CYS A   8      -4.091   0.174 131.671  0.00  0.00    +0.000 C 
ATOM      8  O   CYS A   8      -3.774  -0.282 130.438  0.00  0.00    +0.000 OA
ATOM      9  CA  CYS A   8      -5.651  -0.095 133.004  0.00  0.00    +0.000 C 
ATOM     10  CB  CYS A   8      -7.253  -0.571 132.483  0.00  0.00    +0.000 C 
ATOM     11  SG  CYS A   8      -7.376  -2.111 131.442  0.00  0.00    +0.000 S 
ATOM     12  SG  CYS A   4      -8.533  -1.408 129.981  0.00  0.00    +0.000 S 
ATOM     13  CB  CYS A   4      -7.443  -1.380 128.543  0.00  0.00    +0.000 C 
ATOM     14  CA  CYS A   4      -7.882  -0.172 127.791  0.00  0.00    +0.000 C 
ATOM     15  N   CYS A   4      -8.252   0.922 128.623  0.00  0.00    +0.000 N 
ATOM     16  C   UNK A   3      -7.425   1.325 129.562  0.00  0.00    +0.000 C 
ATOM     17  O   UNK A   3      -7.875   2.300 130.149  0.00  0.00    +0.000 OA
ATOM     18  C   UNK A   3      -5.999   0.523 129.518  0.00  0.00    +0.000 C 
ATOM     19  N   UNK A   3      -4.899   1.312 129.662  0.00  0.00    +0.000 N 
ATOM     20  C   GLN A   2      -5.224   2.249 130.383  0.00  0.00    +0.000 C 
ATOM     21  O   GLN A   2      -4.407   2.993 130.808  0.00  0.00    +0.000 OA
ATOM     22  CA  GLN A   2      -5.185   3.446 131.105  0.00  0.00    +0.000 C 
ATOM     23  N   GLN A   2      -3.917   3.573 132.849  0.00  0.00    +0.000 N 
ATOM     24  C   ILE A   1      -3.291   5.066 133.558  0.00  0.00    +0.000 C 
ATOM     25  O   ILE A   1      -2.856   5.789 134.449  0.00  0.00    +0.000 OA
ATOM     26  C   CYS A   4      -6.814   0.232 126.886  0.00  0.00    +0.000 C 
ATOM     27  O   CYS A   4      -5.924  -0.480 126.416  0.00  0.00    +0.000 OA
ATOM     28  N   PRO A   5      -7.396   1.765 126.537  0.00  0.00    +0.000 N 
ATOM     29  CD  PRO A   5      -7.368   2.481 125.292  0.00  0.00    +0.000 C 
ATOM     30  CG  PRO A   5      -6.672   1.311 125.001  0.00  0.00    +0.000 C 
ATOM     31  CB  PRO A   5      -5.617   2.021 126.560  0.00  0.00    +0.000 C 
ATOM     32  CA  PRO A   5      -6.742   2.750 127.149  0.00  0.00    +0.000 C 
ATOM     33  C   PRO A   5      -6.558   4.546 126.942  0.00  0.00    +0.000 C 
ATOM     34  O   PRO A   5      -7.366   5.062 126.181  0.00  0.00    +0.000 OA
ATOM     35  N   LEU A   6      -5.224   5.314 127.421  0.00  0.00    +0.000 N 
ATOM     36  CA  LEU A   6      -3.680   4.949 128.270  0.00  0.00    +0.000 C 
ATOM     37  C   LEU A   6      -2.583   5.266 130.019  0.00  0.00    +0.000 C 
ATOM     38  O   LEU A   6      -2.510   6.507 130.392  0.00  0.00    +0.000 OA
ATOM     39  N   GLY A   7      -3.356   4.209 131.411  0.00  0.00    +0.000 N 
ATOM     40  CA  GLY A   7      -5.192   4.071 132.602  0.00  0.00    +0.000 C 
ATOM     41  C   GLY A   7      -5.203   2.164 133.812  0.00  0.00    +0.000 C 
ATOM     42  O   GLY A   7      -4.208   0.962 133.809  0.00  0.00    +0.000 OA
ATOM     43  N   CYS A   8      -6.051   1.078 134.006  0.00  0.00    +0.000 N 
ATOM     44  H   ILE A   1      -2.323   3.880 134.676  0.00  0.00    +0.000 HD
ATOM     45  H   TYR A   9      -3.213   1.211 130.558  0.00  0.00    +0.000 HD
ATOM     46  H   CYS A   4      -9.105   1.451 128.614  0.00  0.00    +0.000 HD
ATOM     47  H   UNK A   3      -4.170   1.498 129.046  0.00  0.00    +0.000 HD
ATOM     48  H   GLN A   2      -4.430   3.507 133.812  0.00  0.00    +0.000 HD
ATOM     49  H   LEU A   6      -4.704   5.985 126.963  0.00  0.00    +0.000 HD
ATOM     50  H   GLY A   7      -2.522   3.587 131.704  0.00  0.00    +0.000 HD
ATOM     51  H   CYS A   8      -6.921   1.553 134.098  0.00  0.00    +0.000 HD
ENDROOT
BRANCH  18  52
ATOM     52  C   UNK A   3      -5.884  -0.231 130.726  0.00  0.00    +0.000 C 
ATOM     53  N   UNK A   3      -4.753  -1.347 131.470  0.00  0.00    +0.000 N 
ATOM     54  O   UNK A   3      -6.477   0.662 131.368  0.00  0.00    +0.000 OA
ATOM     55  H   UNK A   3      -4.383  -1.146 132.545  0.00  0.00    +0.000 HD
ATOM     56  H   UNK A   3      -3.781  -1.107 131.059  0.00  0.00    +0.000 HD
ENDBRANCH  18  52
BRANCH   1  57
ATOM     57  CB  ILE A   1      -4.272   5.393 130.564  0.00  0.00    +0.000 C 
ATOM     58  CG2 ILE A   1      -6.166   5.754 130.501  0.00  0.00    +0.000 C 
BRANCH  57  60
ATOM     59  CD1 ILE A   1      -4.052   8.046 129.344  0.00  0.00    +0.000 C 
ATOM     60  CG1 ILE A   1      -3.557   6.473 128.904  0.00  0.00    +0.000 C 
ENDBRANCH  57  60
ENDBRANCH   1  57
BRANCH   5  61
ATOM     61  CB  TYR A   9      -6.385   2.531 132.506  0.00  0.00    +0.000 C 
BRANCH  61  62
ATOM     62  CG  TYR A   9      -7.090   3.231 134.233  0.00  0.00    +0.000 A 
ATOM     63  CD1 TYR A   9      -6.323   4.412 135.093  0.00  0.00    +0.000 A 
ATOM     64  CE1 TYR A   9      -6.660   5.722 135.385  0.00  0.00    +0.000 A 
ATOM     65  CZ  TYR A   9      -7.974   5.654 135.473  0.00  0.00    +0.000 A 
ATOM     66  CE2 TYR A   9      -8.792   4.652 134.819  0.00  0.00    +0.000 A 
ATOM     67  CD2 TYR A   9      -8.399   3.549 134.054  0.00  0.00    +0.000 A 
BRANCH  65  68
ATOM     68  OH  TYR A   9      -8.540   6.408 136.430  0.00  0.00    +0.000 OA
ATOM     69  HH  TYR A   9      -8.568   7.317 136.079  0.00  0.00    +0.000 HD
ENDBRANCH  65  68
ENDBRANCH  61  62
ENDBRANCH   5  61
BRANCH  22  70
ATOM     70  CB  GLN A   2      -6.667   4.843 130.752  0.00  0.00    +0.000 C 
BRANCH  70  71
ATOM     71  CG  GLN A   2      -8.082   4.417 130.959  0.00  0.00    +0.000 C 
BRANCH  71  72
ATOM     72  CD  GLN A   2      -9.348   4.980 131.086  0.00  0.00    +0.000 C 
ATOM     73  NE2 GLN A   2     -10.109   3.962 130.773  0.00  0.00    +0.000 N 
ATOM     74  OE1 GLN A   2      -9.597   6.084 131.516  0.00  0.00    +0.000 OA
ATOM     75 HE21 GLN A   2      -9.741   3.056 130.514  0.00  0.00    +0.000 HD
ATOM     76 HE22 GLN A   2     -11.036   4.246 130.765  0.00  0.00    +0.000 HD
ENDBRANCH  71  72
ENDBRANCH  70  71
ENDBRANCH  22  70
BRANCH  36  77
ATOM     77  CB  LEU A   6      -2.907   3.174 127.753  0.00  0.00    +0.000 C 
BRANCH  77  78
ATOM     78  CG  LEU A   6      -2.173   2.678 126.334  0.00  0.00    +0.000 C 
ATOM     79  CD1 LEU A   6      -3.189   3.739 125.443  0.00  0.00    +0.000 C 
ATOM     80  CD2 LEU A   6      -0.800   2.654 126.703  0.00  0.00    +0.000 C 
ENDBRANCH  77  78
ENDBRANCH  36  77
TORSDOF 11
ENDMDL
MODEL 5
REMARK VINA RESULT:      -9.4      2.374      5.434
REMARK  Name = CHEMBL1630532
REMARK  15 active torsions:
REMARK  status: ('A' for Active; 'I' for Inactive)
REMARK    1  A    between atoms: CD1_1  and  CG1_2
REMARK    2  A    between atoms: CG1_2  and  CB_3
REMARK    3  A    between atoms: CB_3  and  CG2_4
REMARK    4  A    between atoms: CB_3  and  CA_5
REMARK    5  A    between atoms: CA_9  and  CB_10
REMARK    6  A    between atoms: CB_10  and  CG_11
REMARK    7  A    between atoms: CZ_14  and  OH_15
REMARK    8  A    between atoms: C_30  and  C_31
REMARK    9  A    between atoms: CA_37  and  CB_38
REMARK   10  A    between atoms: CB_38  and  CG_39
REMARK   11  A    between atoms: CG_39  and  CD_40
REMARK   12  A    between atoms: CA_56  and  CB_57
REMARK   13  A    between atoms: CB_57  and  CG_58
REMARK   14  A    between atoms: CG_58  and  CD1_59
REMARK   15  A    between atoms: CG_58  and  CD2_60
REMARK                            x       y       z     vdW  Elec       q    Type
REMARK                         _______ _______ _______ _____ _____    ______ ____
ROOT
ATOM      1  CA  ILE A   1      -8.466  -0.008 127.316  0.00  0.00    +0.000 C 
ATOM      2  N   ILE A   1      -7.461   1.378 126.099  0.00  0.00    +0.000 N 
ATOM      3  C   TYR A   9      -6.672   2.994 126.618  0.00  0.00    +0.000 C 
ATOM      4  O   TYR A   9      -7.274   4.205 126.497  0.00  0.00    +0.000 OA
ATOM      5  CA  TYR A   9      -5.866   2.557 128.524  0.00  0.00    +0.000 C 
ATOM      6  N   TYR A   9      -4.579   2.121 128.208  0.00  0.00    +0.000 N 
ATOM      7  C   CYS A   8      -4.098   3.048 128.865  0.00  0.00    +0.000 C 
ATOM      8  O   CYS A   8      -3.041   2.317 129.286  0.00  0.00    +0.000 OA
ATOM      9  CA  CYS A   8      -5.065   4.768 129.489  0.00  0.00    +0.000 C 
ATOM     10  CB  CYS A   8      -5.017   5.316 131.151  0.00  0.00    +0.000 C 
ATOM     11  SG  CYS A   8      -3.332   5.530 131.917  0.00  0.00    +0.000 S 
ATOM     12  SG  CYS A   4      -3.638   4.546 133.623  0.00  0.00    +0.000 S 
ATOM     13  CB  CYS A   4      -2.597   3.080 133.467  0.00  0.00    +0.000 C 
ATOM     14  CA  CYS A   4      -3.382   2.017 134.153  0.00  0.00    +0.000 C 
ATOM     15  N   CYS A   4      -4.787   2.112 133.946  0.00  0.00    +0.000 N 
ATOM     16  C   UNK A   3      -5.251   2.211 132.720  0.00  0.00    +0.000 C 
ATOM     17  O   UNK A   3      -6.474   2.234 132.718  0.00  0.00    +0.000 OA
ATOM     18  C   UNK A   3      -4.067   2.081 131.597  0.00  0.00    +0.000 C 
ATOM     19  N   UNK A   3      -4.374   1.284 130.537  0.00  0.00    +0.000 N 
ATOM     20  C   GLN A   2      -5.584   1.374 130.361  0.00  0.00    +0.000 C 
ATOM     21  O   GLN A   2      -6.088   0.914 129.394  0.00  0.00    +0.000 OA
ATOM     22  CA  GLN A   2      -6.874   1.168 129.860  0.00  0.00    +0.000 C 
ATOM     23  N   GLN A   2      -7.330   1.823 127.853  0.00  0.00    +0.000 N 
ATOM     24  C   ILE A   1      -8.640   1.201 126.843  0.00  0.00    +0.000 C 
ATOM     25  O   ILE A   1      -9.482   1.234 125.950  0.00  0.00    +0.000 OA
ATOM     26  C   CYS A   4      -2.901   0.716 133.707  0.00  0.00    +0.000 C 
ATOM     27  O   CYS A   4      -1.786   0.446 133.256  0.00  0.00    +0.000 OA
ATOM     28  N   PRO A   5      -4.188  -0.196 134.276  0.00  0.00    +0.000 N 
ATOM     29  CD  PRO A   5      -4.176  -1.506 134.866  0.00  0.00    +0.000 C 
ATOM     30  CG  PRO A   5      -2.844  -1.304 134.516  0.00  0.00    +0.000 C 
ATOM     31  CB  PRO A   5      -3.762  -1.038 132.746  0.00  0.00    +0.000 C 
ATOM     32  CA  PRO A   5      -5.032  -0.600 133.330  0.00  0.00    +0.000 C 
ATOM     33  C   PRO A   5      -6.321  -1.871 133.159  0.00  0.00    +0.000 C 
ATOM     34  O   PRO A   5      -6.674  -2.388 134.210  0.00  0.00    +0.000 OA
ATOM     35  N   LEU A   6      -6.682  -2.512 131.725  0.00  0.00    +0.000 N 
ATOM     36  CA  LEU A   6      -6.225  -2.312 129.996  0.00  0.00    +0.000 C 
ATOM     37  C   LEU A   6      -6.899  -1.699 128.117  0.00  0.00    +0.000 C 
ATOM     38  O   LEU A   6      -8.049  -2.190 127.770  0.00  0.00    +0.000 OA
ATOM     39  N   GLY A   7      -6.972   0.211 128.102  0.00  0.00    +0.000 N 
ATOM     40  CA  GLY A   7      -8.078   1.863 129.025  0.00  0.00    +0.000 C 
ATOM     41  C   GLY A   7      -7.105   3.839 128.523  0.00  0.00    +0.000 C 
ATOM     42  O   GLY A   7      -5.773   4.144 127.769  0.00  0.00    +0.000 OA
ATOM     43  N   CYS A   8      -6.624   4.948 129.211  0.00  0.00    +0.000 N 
ATOM     44  H   ILE A   1      -7.853   2.299 125.513  0.00  0.00    +0.000 HD
ATOM     45  H   TYR A   9      -4.101   1.305 128.646  0.00  0.00    +0.000 HD
ATOM     46  H   CYS A   4      -5.518   2.136 134.633  0.00  0.00    +0.000 HD
ATOM     47  H   UNK A   3      -3.975   0.450 130.238  0.00  0.00    +0.000 HD
ATOM     48  H   GLN A   2      -7.911   2.745 127.777  0.00  0.00    +0.000 HD
ATOM     49  H   LEU A   6      -6.823  -3.435 131.484  0.00  0.00    +0.000 HD
ATOM     50  H   GLY A   7      -6.305   0.450 127.285  0.00  0.00    +0.000 HD
ATOM     51  H   CYS A   8      -7.365   5.082 129.861  0.00  0.00    +0.000 HD
ENDROOT
BRANCH  18  52
ATOM     52  C   UNK A   3      -3.979   3.330 130.909  0.00  0.00    +0.000 C 
ATOM     53  N   UNK A   3      -3.027   4.053 129.625  0.00  0.00    +0.000 N 
ATOM     54  O   UNK A   3      -5.211   3.507 131.021  0.00  0.00    +0.000 OA
ATOM     55  H   UNK A   3      -3.564   4.553 128.733  0.00  0.00    +0.000 HD
ATOM     56  H   UNK A   3      -2.692   3.234 129.002  0.00  0.00    +0.000 HD
ENDBRANCH  18  52
BRANCH   1  57
ATOM     57  CB  ILE A   1      -7.866  -0.716 129.242  0.00  0.00    +0.000 C 
ATOM     58  CG2 ILE A   1      -8.916  -0.373 130.823  0.00  0.00    +0.000 C 
BRANCH  57  60
ATOM     59  CD1 ILE A   1      -9.100  -3.357 129.518  0.00  0.00    +0.000 C 
ATOM     60  CG1 ILE A   1      -7.497  -2.783 129.391  0.00  0.00    +0.000 C 
ENDBRANCH  57  60
ENDBRANCH   1  57
BRANCH   5  61
ATOM     61  CB  TYR A   9      -7.220   3.172 130.190  0.00  0.00    +0.000 C 
BRANCH  61  62
ATOM     62  CG  TYR A   9      -8.541   4.640 129.923  0.00  0.00    +0.000 A 
ATOM     63  CD1 TYR A   9     -10.121   4.356 129.544  0.00  0.00    +0.000 A 
ATOM     64  CE1 TYR A   9     -11.298   4.554 130.244  0.00  0.00    +0.000 A 
ATOM     65  CZ  TYR A   9     -11.021   5.633 130.948  0.00  0.00    +0.000 A 
ATOM     66  CE2 TYR A   9      -9.684   6.050 131.324  0.00  0.00    +0.000 A 
ATOM     67  CD2 TYR A   9      -8.451   5.483 130.985  0.00  0.00    +0.000 A 
BRANCH  65  68
ATOM     68  OH  TYR A   9     -12.024   6.516 131.094  0.00  0.00    +0.000 OA
ATOM     69  HH  TYR A   9     -12.314   6.445 132.023  0.00  0.00    +0.000 HD
ENDBRANCH  65  68
ENDBRANCH  61  62
ENDBRANCH   5  61
BRANCH  22  70
ATOM     70  CB  GLN A   2      -8.374   0.692 131.200  0.00  0.00    +0.000 C 
BRANCH  70  71
ATOM     71  CG  GLN A   2      -8.613   1.633 132.333  0.00  0.00    +0.000 C 
BRANCH  71  72
ATOM     72  CD  GLN A   2      -9.602   2.491 132.804  0.00  0.00    +0.000 C 
ATOM     73  NE2 GLN A   2     -10.653   2.034 132.171  0.00  0.00    +0.000 N 
ATOM     74  OE1 GLN A   2      -9.470   3.322 133.674  0.00  0.00    +0.000 OA
ATOM     75 HE21 GLN A   2     -10.615   1.256 131.526  0.00  0.00    +0.000 HD
ATOM     76 HE22 GLN A   2     -11.417   2.597 132.371  0.00  0.00    +0.000 HD
ENDBRANCH  71  72
ENDBRANCH  70  71
ENDBRANCH  22  70
BRANCH  36  77
ATOM     77  CB  LEU A   6      -4.271  -1.948 129.744  0.00  0.00    +0.000 C 
BRANCH  77  78
ATOM     78  CG  LEU A   6      -2.974  -2.996 129.621  0.00  0.00    +0.000 C 
ATOM     79  CD1 LEU A   6      -3.209  -3.470 131.257  0.00  0.00    +0.000 C 
ATOM     80  CD2 LEU A   6      -3.193  -3.591 128.348  0.00  0.00    +0.000 C 
ENDBRANCH  77  78
ENDBRANCH  36  77
TORSDOF 11
ENDMDL
MODEL 6
REMARK VINA RESULT:      -9.2      3.199      6.960
REMARK  Name = CHEMBL1630532
REMARK  15 active torsions:
REMARK  status: ('A' for Active; 'I' for Inactive)
REMARK    1  A    between atoms: CD1_1  and  CG1_2
REMARK    2  A    between atoms: CG1_2  and  CB_3
REMARK    3  A    between atoms: CB_3  and  CG2_4
REMARK    4  A    between atoms: CB_3  and  CA_5
REMARK    5  A    between atoms: CA_9  and  CB_10
REMARK    6  A    between atoms: CB_10  and  CG_11
REMARK    7  A    between atoms: CZ_14  and  OH_15
REMARK    8  A    between atoms: C_30  and  C_31
REMARK    9  A    between atoms: CA_37  and  CB_38
REMARK   10  A    between atoms: CB_38  and  CG_39
REMARK   11  A    between atoms: CG_39  and  CD_40
REMARK   12  A    between atoms: CA_56  and  CB_57
REMARK   13  A    between atoms: CB_57  and  CG_58
REMARK   14  A    between atoms: CG_58  and  CD1_59
REMARK   15  A    between atoms: CG_58  and  CD2_60
REMARK                            x       y       z     vdW  Elec       q    Type
REMARK                         _______ _______ _______ _____ _____    ______ ____
ROOT
ATOM      1  CA  ILE A   1      -7.786   3.848 134.572  0.00  0.00    +0.000 C 
ATOM      2  N   ILE A   1      -6.826   5.657 135.037  0.00  0.00    +0.000 N 
ATOM      3  C   TYR A   9      -5.219   6.312 134.335  0.00  0.00    +0.000 C 
ATOM      4  O   TYR A   9      -4.017   6.191 134.954  0.00  0.00    +0.000 OA
ATOM      5  CA  TYR A   9      -5.277   5.693 132.313  0.00  0.00    +0.000 C 
ATOM      6  N   TYR A   9      -5.899   6.776 131.691  0.00  0.00    +0.000 N 
ATOM      7  C   CYS A   8      -4.897   6.958 130.995  0.00  0.00    +0.000 C 
ATOM      8  O   CYS A   8      -5.609   7.357 129.917  0.00  0.00    +0.000 OA
ATOM      9  CA  CYS A   8      -2.992   6.223 131.334  0.00  0.00    +0.000 C 
ATOM     10  CB  CYS A   8      -2.080   5.385 130.097  0.00  0.00    +0.000 C 
ATOM     11  SG  CYS A   8      -1.860   6.270 128.472  0.00  0.00    +0.000 S 
ATOM     12  SG  CYS A   4      -2.385   4.795 127.240  0.00  0.00    +0.000 S 
ATOM     13  CB  CYS A   4      -3.942   5.363 126.526  0.00  0.00    +0.000 C 
ATOM     14  CA  CYS A   4      -4.734   4.113 126.367  0.00  0.00    +0.000 C 
ATOM     15  N   CYS A   4      -4.552   3.178 127.425  0.00  0.00    +0.000 N 
ATOM     16  C   UNK A   3      -4.696   3.577 128.669  0.00  0.00    +0.000 C 
ATOM     17  O   UNK A   3      -4.555   2.642 129.445  0.00  0.00    +0.000 OA
ATOM     18  C   UNK A   3      -5.199   5.131 128.766  0.00  0.00    +0.000 C 
ATOM     19  N   UNK A   3      -6.187   5.353 129.676  0.00  0.00    +0.000 N 
ATOM     20  C   GLN A   2      -6.022   4.547 130.586  0.00  0.00    +0.000 C 
ATOM     21  O   GLN A   2      -6.643   4.637 131.590  0.00  0.00    +0.000 OA
ATOM     22  CA  GLN A   2      -6.211   3.809 131.759  0.00  0.00    +0.000 C 
ATOM     23  N   GLN A   2      -6.001   4.806 133.664  0.00  0.00    +0.000 N 
ATOM     24  C   ILE A   1      -6.709   4.265 135.190  0.00  0.00    +0.000 C 
ATOM     25  O   ILE A   1      -6.802   4.160 136.409  0.00  0.00    +0.000 OA
ATOM     26  C   CYS A   4      -6.144   4.461 126.249  0.00  0.00    +0.000 C 
ATOM     27  O   CYS A   4      -6.619   5.530 125.858  0.00  0.00    +0.000 OA
ATOM     28  N   PRO A   5      -6.768   2.928 126.516  0.00  0.00    +0.000 N 
ATOM     29  CD  PRO A   5      -7.899   2.293 125.900  0.00  0.00    +0.000 C 
ATOM     30  CG  PRO A   5      -7.916   3.572 125.350  0.00  0.00    +0.000 C 
ATOM     31  CB  PRO A   5      -7.980   3.985 127.319  0.00  0.00    +0.000 C 
ATOM     32  CA  PRO A   5      -7.296   2.755 127.725  0.00  0.00    +0.000 C 
ATOM     33  C   PRO A   5      -8.439   1.584 128.517  0.00  0.00    +0.000 C 
ATOM     34  O   PRO A   5      -8.661   0.568 127.873  0.00  0.00    +0.000 OA
ATOM     35  N   LEU A   6      -9.358   2.023 129.767  0.00  0.00    +0.000 N 
ATOM     36  CA  LEU A   6      -9.612   3.455 130.826  0.00  0.00    +0.000 C 
ATOM     37  C   LEU A   6      -9.389   4.198 132.766  0.00  0.00    +0.000 C 
ATOM     38  O   LEU A   6      -9.832   3.413 133.698  0.00  0.00    +0.000 OA
ATOM     39  N   GLY A   7      -7.538   4.575 133.053  0.00  0.00    +0.000 N 
ATOM     40  CA  GLY A   7      -5.615   3.537 133.243  0.00  0.00    +0.000 C 
ATOM     41  C   GLY A   7      -3.916   5.025 133.251  0.00  0.00    +0.000 C 
ATOM     42  O   GLY A   7      -3.927   6.570 133.024  0.00  0.00    +0.000 OA
ATOM     43  N   CYS A   8      -2.730   5.230 132.553  0.00  0.00    +0.000 N 
ATOM     44  H   ILE A   1      -6.032   5.911 135.844  0.00  0.00    +0.000 HD
ATOM     45  H   TYR A   9      -6.634   6.701 130.955  0.00  0.00    +0.000 HD
ATOM     46  H   CYS A   4      -4.298   2.209 127.363  0.00  0.00    +0.000 HD
ATOM     47  H   UNK A   3      -7.103   5.654 129.553  0.00  0.00    +0.000 HD
ATOM     48  H   GLN A   2      -5.069   4.610 134.199  0.00  0.00    +0.000 HD
ATOM     49  H   LEU A   6     -10.293   1.854 129.929  0.00  0.00    +0.000 HD
ATOM     50  H   GLY A   7      -7.562   5.631 133.286  0.00  0.00    +0.000 HD
ATOM     51  H   CYS A   8      -2.376   4.300 132.538  0.00  0.00    +0.000 HD
ENDROOT
BRANCH  18  52
ATOM     52  C   UNK A   3      -4.159   5.888 129.388  0.00  0.00    +0.000 C 
ATOM     53  N   UNK A   3      -3.844   7.554 129.839  0.00  0.00    +0.000 N 
ATOM     54  O   UNK A   3      -3.856   4.919 130.116  0.00  0.00    +0.000 OA
ATOM     55  H   UNK A   3      -3.523   7.797 130.922  0.00  0.00    +0.000 HD
ATOM     56  H   UNK A   3      -4.812   8.012 129.992  0.00  0.00    +0.000 HD
ENDBRANCH  18  52
BRANCH   1  57
ATOM     57  CB  ILE A   1      -8.081   2.998 132.632  0.00  0.00    +0.000 C 
ATOM     58  CG2 ILE A   1      -7.069   1.472 132.026  0.00  0.00    +0.000 C 
BRANCH  57  60
ATOM     59  CD1 ILE A   1      -9.893   0.740 132.190  0.00  0.00    +0.000 C 
ATOM     60  CG1 ILE A   1     -10.056   2.440 132.162  0.00  0.00    +0.000 C 
ENDBRANCH  57  60
ENDBRANCH   1  57
BRANCH   5  61
ATOM     61  CB  TYR A   9      -4.162   3.790 131.966  0.00  0.00    +0.000 C 
BRANCH  61  62
ATOM     62  CG  TYR A   9      -3.333   2.818 133.494  0.00  0.00    +0.000 A 
ATOM     63  CD1 TYR A   9      -4.226   2.067 134.660  0.00  0.00    +0.000 A 
ATOM     64  CE1 TYR A   9      -4.398   0.734 134.991  0.00  0.00    +0.000 A 
ATOM     65  CZ  TYR A   9      -3.217   0.225 134.699  0.00  0.00    +0.000 A 
ATOM     66  CE2 TYR A   9      -2.293   0.788 133.735  0.00  0.00    +0.000 A 
ATOM     67  CD2 TYR A   9      -2.398   1.968 132.992  0.00  0.00    +0.000 A 
BRANCH  65  68
ATOM     68  OH  TYR A   9      -2.760  -0.720 135.538  0.00  0.00    +0.000 OA
ATOM     69  HH  TYR A   9      -2.878  -1.572 135.078  0.00  0.00    +0.000 HD
ENDBRANCH  65  68
ENDBRANCH  61  62
ENDBRANCH   5  61
BRANCH  22  70
ATOM     70  CB  GLN A   2      -6.214   1.747 131.622  0.00  0.00    +0.000 C 
BRANCH  70  71
ATOM     71  CG  GLN A   2      -5.017   1.093 131.018  0.00  0.00    +0.000 C 
BRANCH  71  72
ATOM     72  CD  GLN A   2      -4.463  -0.175 130.877  0.00  0.00    +0.000 C 
ATOM     73  NE2 GLN A   2      -3.842  -0.054 129.731  0.00  0.00    +0.000 N 
ATOM     74  OE1 GLN A   2      -4.480  -1.056 131.708  0.00  0.00    +0.000 OA
ATOM     75 HE21 GLN A   2      -3.852   0.798 129.185  0.00  0.00    +0.000 HD
ATOM     76 HE22 GLN A   2      -3.456  -0.908 129.484  0.00  0.00    +0.000 HD
ENDBRANCH  71  72
ENDBRANCH  70  71
ENDBRANCH  22  70
BRANCH  36  77
ATOM     77  CB  LEU A   6      -9.509   5.190 129.830  0.00  0.00    +0.000 C 
BRANCH  77  78
ATOM     78  CG  LEU A   6     -10.407   6.592 129.988  0.00  0.00    +0.000 C 
ATOM     79  CD1 LEU A   6      -8.971   7.463 130.358  0.00  0.00    +0.000 C 
ATOM     80  CD2 LEU A   6     -11.287   6.508 128.875  0.00  0.00    +0.000 C 
ENDBRANCH  77  78
ENDBRANCH  36  77
TORSDOF 11
ENDMDL
MODEL 7
REMARK VINA RESULT:      -9.1      2.598      6.368
REMARK  Name = CHEMBL1630532
REMARK  15 active torsions:
REMARK  status: ('A' for Active; 'I' for Inactive)
REMARK    1  A    between atoms: CD1_1  and  CG1_2
REMARK    2  A    between atoms: CG1_2  and  CB_3
REMARK    3  A    between atoms: CB_3  and  CG2_4
REMARK    4  A    between atoms: CB_3  and  CA_5
REMARK    5  A    between atoms: CA_9  and  CB_10
REMARK    6  A    between atoms: CB_10  and  CG_11
REMARK    7  A    between atoms: CZ_14  and  OH_15
REMARK    8  A    between atoms: C_30  and  C_31
REMARK    9  A    between atoms: CA_37  and  CB_38
REMARK   10  A    between atoms: CB_38  and  CG_39
REMARK   11  A    between atoms: CG_39  and  CD_40
REMARK   12  A    between atoms: CA_56  and  CB_57
REMARK   13  A    between atoms: CB_57  and  CG_58
REMARK   14  A    between atoms: CG_58  and  CD1_59
REMARK   15  A    between atoms: CG_58  and  CD2_60
REMARK                            x       y       z     vdW  Elec       q    Type
REMARK                         _______ _______ _______ _____ _____    ______ ____
ROOT
ATOM      1  CA  ILE A   1      -3.302   0.614 134.387  0.00  0.00    +0.000 C 
ATOM      2  N   ILE A   1      -2.248  -0.961 133.483  0.00  0.00    +0.000 N 
ATOM      3  C   TYR A   9      -2.908  -2.241 132.288  0.00  0.00    +0.000 C 
ATOM      4  O   TYR A   9      -3.301  -3.489 132.654  0.00  0.00    +0.000 OA
ATOM      5  CA  TYR A   9      -4.291  -1.151 131.116  0.00  0.00    +0.000 C 
ATOM      6  N   TYR A   9      -3.494  -0.697 130.065  0.00  0.00    +0.000 N 
ATOM      7  C   CYS A   8      -4.192  -1.317 129.259  0.00  0.00    +0.000 C 
ATOM      8  O   CYS A   8      -4.062  -0.381 128.292  0.00  0.00    +0.000 OA
ATOM      9  CA  CYS A   8      -5.513  -2.855 129.678  0.00  0.00    +0.000 C 
ATOM     10  CB  CYS A   8      -7.163  -2.853 129.094  0.00  0.00    +0.000 C 
ATOM     11  SG  CYS A   8      -7.406  -2.635 127.260  0.00  0.00    +0.000 S 
ATOM     12  SG  CYS A   4      -8.800  -1.211 127.298  0.00  0.00    +0.000 S 
ATOM     13  CB  CYS A   4      -7.953   0.239 126.638  0.00  0.00    +0.000 C 
ATOM     14  CA  CYS A   4      -8.539   1.370 127.409  0.00  0.00    +0.000 C 
ATOM     15  N   CYS A   4      -8.804   1.063 128.773  0.00  0.00    +0.000 N 
ATOM     16  C   UNK A   3      -7.850   0.540 129.511  0.00  0.00    +0.000 C 
ATOM     17  O   UNK A   3      -8.228   0.384 130.664  0.00  0.00    +0.000 OA
ATOM     18  C   UNK A   3      -6.427   0.444 128.708  0.00  0.00    +0.000 C 
ATOM     19  N   UNK A   3      -5.340   0.836 129.429  0.00  0.00    +0.000 N 
ATOM     20  C   GLN A   2      -5.573   0.565 130.602  0.00  0.00    +0.000 C 
ATOM     21  O   GLN A   2      -4.720   0.645 131.419  0.00  0.00    +0.000 OA
ATOM     22  CA  GLN A   2      -5.454   0.463 131.992  0.00  0.00    +0.000 C 
ATOM     23  N   GLN A   2      -3.930  -0.825 132.818  0.00  0.00    +0.000 N 
ATOM     24  C   ILE A   1      -3.242  -0.693 134.440  0.00  0.00    +0.000 C 
ATOM     25  O   ILE A   1      -2.691  -1.092 135.462  0.00  0.00    +0.000 OA
ATOM     26  C   CYS A   4      -7.640   2.514 127.322  0.00  0.00    +0.000 C 
ATOM     27  O   CYS A   4      -6.816   2.751 126.437  0.00  0.00    +0.000 OA
ATOM     28  N   PRO A   5      -8.314   3.411 128.569  0.00  0.00    +0.000 N 
ATOM     29  CD  PRO A   5      -8.503   4.832 128.660  0.00  0.00    +0.000 C 
ATOM     30  CG  PRO A   5      -7.830   4.679 127.451  0.00  0.00    +0.000 C 
ATOM     31  CB  PRO A   5      -6.561   3.779 128.728  0.00  0.00    +0.000 C 
ATOM     32  CA  PRO A   5      -7.599   3.408 129.692  0.00  0.00    +0.000 C 
ATOM     33  C   PRO A   5      -7.501   4.415 131.202  0.00  0.00    +0.000 C 
ATOM     34  O   PRO A   5      -8.433   5.190 131.364  0.00  0.00    +0.000 OA
ATOM     35  N   LEU A   6      -6.130   4.538 132.041  0.00  0.00    +0.000 N 
ATOM     36  CA  LEU A   6      -4.461   3.865 132.019  0.00  0.00    +0.000 C 
ATOM     37  C   LEU A   6      -3.110   2.631 133.025  0.00  0.00    +0.000 C 
ATOM     38  O   LEU A   6      -3.014   2.862 134.298  0.00  0.00    +0.000 OA
ATOM     39  N   GLY A   7      -3.623   0.814 132.727  0.00  0.00    +0.000 N 
ATOM     40  CA  GLY A   7      -5.241  -0.583 133.213  0.00  0.00    +0.000 C 
ATOM     41  C   GLY A   7      -5.007  -2.498 132.039  0.00  0.00    +0.000 C 
ATOM     42  O   GLY A   7      -3.991  -2.874 130.915  0.00  0.00    +0.000 OA
ATOM     43  N   CYS A   8      -5.782  -3.281 131.189  0.00  0.00    +0.000 N 
ATOM     44  H   ILE A   1      -2.075  -2.056 133.827  0.00  0.00    +0.000 HD
ATOM     45  H   TYR A   9      -3.532   0.262 129.657  0.00  0.00    +0.000 HD
ATOM     46  H   CYS A   4      -9.661   1.173 129.282  0.00  0.00    +0.000 HD
ATOM     47  H   UNK A   3      -4.724   1.576 129.291  0.00  0.00    +0.000 HD
ATOM     48  H   GLN A   2      -4.281  -1.783 133.207  0.00  0.00    +0.000 HD
ATOM     49  H   LEU A   6      -5.708   5.320 132.416  0.00  0.00    +0.000 HD
ATOM     50  H   GLY A   7      -2.735   0.408 132.262  0.00  0.00    +0.000 HD
ATOM     51  H   CYS A   8      -6.639  -3.287 131.695  0.00  0.00    +0.000 HD
ENDROOT
BRANCH  18  52
ATOM     52  C   UNK A   3      -6.100  -0.939 128.561  0.00  0.00    +0.000 C 
ATOM     53  N   UNK A   3      -4.830  -1.915 127.847  0.00  0.00    +0.000 N 
ATOM     54  O   UNK A   3      -6.619  -1.204 129.667  0.00  0.00    +0.000 OA
ATOM     55  H   UNK A   3      -4.305  -2.720 128.488  0.00  0.00    +0.000 HD
ATOM     56  H   UNK A   3      -3.941  -1.296 127.845  0.00  0.00    +0.000 HD
ENDBRANCH  18  52
BRANCH   1  57
ATOM     57  CB  ILE A   1      -4.694   1.944 133.457  0.00  0.00    +0.000 C 
ATOM     58  CG2 ILE A   1      -6.589   1.837 133.803  0.00  0.00    +0.000 C 
BRANCH  57  60
ATOM     59  CD1 ILE A   1      -5.098   4.266 135.195  0.00  0.00    +0.000 C 
ATOM     60  CG1 ILE A   1      -4.311   4.000 133.703  0.00  0.00    +0.000 C 
ENDBRANCH  57  60
ENDBRANCH   1  57
BRANCH   5  61
ATOM     61  CB  TYR A   9      -6.391  -1.365 131.845  0.00  0.00    +0.000 C 
BRANCH  61  62
ATOM     62  CG  TYR A   9      -6.853  -2.769 133.180  0.00  0.00    +0.000 A 
ATOM     63  CD1 TYR A   9      -6.224  -2.789 134.705  0.00  0.00    +0.000 A 
ATOM     64  CE1 TYR A   9      -6.793  -2.597 135.951  0.00  0.00    +0.000 A 
ATOM     65  CZ  TYR A   9      -8.002  -3.093 135.781  0.00  0.00    +0.000 A 
ATOM     66  CE2 TYR A   9      -8.678  -3.192 134.503  0.00  0.00    +0.000 A 
ATOM     67  CD2 TYR A   9      -8.208  -2.875 133.225  0.00  0.00    +0.000 A 
BRANCH  65  68
ATOM     68  OH  TYR A   9      -8.512  -3.772 136.822  0.00  0.00    +0.000 OA
ATOM     69  HH  TYR A   9      -9.460  -3.896 136.628  0.00  0.00    +0.000 HD
ENDBRANCH  65  68
ENDBRANCH  61  62
ENDBRANCH   5  61
BRANCH  22  70
ATOM     70  CB  GLN A   2      -7.012   1.165 133.155  0.00  0.00    +0.000 C 
BRANCH  70  71
ATOM     71  CG  GLN A   2      -8.283   1.526 132.462  0.00  0.00    +0.000 C 
BRANCH  71  72
ATOM     72  CD  GLN A   2      -9.455   2.236 132.705  0.00  0.00    +0.000 C 
ATOM     73  NE2 GLN A   2     -10.298   1.604 131.928  0.00  0.00    +0.000 N 
ATOM     74  OE1 GLN A   2      -9.603   3.104 133.537  0.00  0.00    +0.000 OA
ATOM     75 HE21 GLN A   2     -10.032   0.822 131.345  0.00  0.00    +0.000 HD
ATOM     76 HE22 GLN A   2     -11.159   2.049 131.961  0.00  0.00    +0.000 HD
ENDBRANCH  71  72
ENDBRANCH  70  71
ENDBRANCH  22  70
BRANCH  36  77
ATOM     77  CB  LEU A   6      -3.730   3.656 130.165  0.00  0.00    +0.000 C 
BRANCH  77  78
ATOM     78  CG  LEU A   6      -2.890   4.731 129.197  0.00  0.00    +0.000 C 
ATOM     79  CD1 LEU A   6      -2.815   3.545 127.955  0.00  0.00    +0.000 C 
ATOM     80  CD2 LEU A   6      -3.608   5.941 129.406  0.00  0.00    +0.000 C 
ENDBRANCH  77  78
ENDBRANCH  36  77
TORSDOF 11
ENDMDL
MODEL 8
REMARK VINA RESULT:      -9.0      3.123      6.908
REMARK  Name = CHEMBL1630532
REMARK  15 active torsions:
REMARK  status: ('A' for Active; 'I' for Inactive)
REMARK    1  A    between atoms: CD1_1  and  CG1_2
REMARK    2  A    between atoms: CG1_2  and  CB_3
REMARK    3  A    between atoms: CB_3  and  CG2_4
REMARK    4  A    between atoms: CB_3  and  CA_5
REMARK    5  A    between atoms: CA_9  and  CB_10
REMARK    6  A    between atoms: CB_10  and  CG_11
REMARK    7  A    between atoms: CZ_14  and  OH_15
REMARK    8  A    between atoms: C_30  and  C_31
REMARK    9  A    between atoms: CA_37  and  CB_38
REMARK   10  A    between atoms: CB_38  and  CG_39
REMARK   11  A    between atoms: CG_39  and  CD_40
REMARK   12  A    between atoms: CA_56  and  CB_57
REMARK   13  A    between atoms: CB_57  and  CG_58
REMARK   14  A    between atoms: CG_58  and  CD1_59
REMARK   15  A    between atoms: CG_58  and  CD2_60
REMARK                            x       y       z     vdW  Elec       q    Type
REMARK                         _______ _______ _______ _____ _____    ______ ____
ROOT
ATOM      1  CA  ILE A   1      -4.140   2.627 136.342  0.00  0.00    +0.000 C 
ATOM      2  N   ILE A   1      -5.848   3.683 136.957  0.00  0.00    +0.000 N 
ATOM      3  C   TYR A   9      -6.940   4.795 135.921  0.00  0.00    +0.000 C 
ATOM      4  O   TYR A   9      -6.830   6.148 135.888  0.00  0.00    +0.000 OA
ATOM      5  CA  TYR A   9      -6.976   3.832 134.038  0.00  0.00    +0.000 C 
ATOM      6  N   TYR A   9      -8.082   2.990 134.158  0.00  0.00    +0.000 N 
ATOM      7  C   CYS A   8      -8.630   3.568 133.217  0.00  0.00    +0.000 C 
ATOM      8  O   CYS A   8      -9.221   2.443 132.755  0.00  0.00    +0.000 OA
ATOM      9  CA  CYS A   8      -8.146   5.424 132.439  0.00  0.00    +0.000 C 
ATOM     10  CB  CYS A   8      -7.892   5.682 130.726  0.00  0.00    +0.000 C 
ATOM     11  SG  CYS A   8      -9.260   5.139 129.583  0.00  0.00    +0.000 S 
ATOM     12  SG  CYS A   4      -8.173   4.120 128.259  0.00  0.00    +0.000 S 
ATOM     13  CB  CYS A   4      -8.674   2.406 128.518  0.00  0.00    +0.000 C 
ATOM     14  CA  CYS A   4      -7.422   1.634 128.283  0.00  0.00    +0.000 C 
ATOM     15  N   CYS A   4      -6.248   2.280 128.764  0.00  0.00    +0.000 N 
ATOM     16  C   UNK A   3      -6.214   2.712 130.004  0.00  0.00    +0.000 C 
ATOM     17  O   UNK A   3      -5.121   3.195 130.268  0.00  0.00    +0.000 OA
ATOM     18  C   UNK A   3      -7.558   2.300 130.841  0.00  0.00    +0.000 C 
ATOM     19  N   UNK A   3      -7.325   1.829 132.097  0.00  0.00    +0.000 N 
ATOM     20  C   GLN A   2      -6.315   2.392 132.507  0.00  0.00    +0.000 C 
ATOM     21  O   GLN A   2      -5.988   2.292 133.640  0.00  0.00    +0.000 OA
ATOM     22  CA  GLN A   2      -5.230   2.758 133.311  0.00  0.00    +0.000 C 
ATOM     23  N   GLN A   2      -5.609   3.802 135.163  0.00  0.00    +0.000 N 
ATOM     24  C   ILE A   1      -4.515   3.864 136.550  0.00  0.00    +0.000 C 
ATOM     25  O   ILE A   1      -4.024   4.334 137.572  0.00  0.00    +0.000 OA
ATOM     26  C   CYS A   4      -7.556   0.322 128.901  0.00  0.00    +0.000 C 
ATOM     27  O   CYS A   4      -8.601  -0.285 129.148  0.00  0.00    +0.000 OA
ATOM     28  N   PRO A   5      -5.936  -0.106 128.852  0.00  0.00    +0.000 N 
ATOM     29  CD  PRO A   5      -5.347  -1.390 128.592  0.00  0.00    +0.000 C 
ATOM     30  CG  PRO A   5      -6.714  -1.660 128.587  0.00  0.00    +0.000 C 
ATOM     31  CB  PRO A   5      -6.481  -0.829 130.405  0.00  0.00    +0.000 C 
ATOM     32  CA  PRO A   5      -5.314  -0.029 130.026  0.00  0.00    +0.000 C 
ATOM     33  C   PRO A   5      -3.786  -0.684 130.762  0.00  0.00    +0.000 C 
ATOM     34  O   PRO A   5      -2.997  -1.168 129.962  0.00  0.00    +0.000 OA
ATOM     35  N   LEU A   6      -3.662  -0.940 132.349  0.00  0.00    +0.000 N 
ATOM     36  CA  LEU A   6      -4.634  -0.694 133.842  0.00  0.00    +0.000 C 
ATOM     37  C   LEU A   6      -4.767   0.378 135.630  0.00  0.00    +0.000 C 
ATOM     38  O   LEU A   6      -3.670   0.408 136.323  0.00  0.00    +0.000 OA
ATOM     39  N   GLY A   7      -5.331   2.157 135.220  0.00  0.00    +0.000 N 
ATOM     40  CA  GLY A   7      -4.613   3.962 134.205  0.00  0.00    +0.000 C 
ATOM     41  C   GLY A   7      -6.281   5.474 134.014  0.00  0.00    +0.000 C 
ATOM     42  O   GLY A   7      -7.796   5.353 134.368  0.00  0.00    +0.000 OA
ATOM     43  N   CYS A   8      -6.881   6.215 133.001  0.00  0.00    +0.000 N 
ATOM     44  H   ILE A   1      -5.965   4.754 137.386  0.00  0.00    +0.000 HD
ATOM     45  H   TYR A   9      -8.119   2.003 133.827  0.00  0.00    +0.000 HD
ATOM     46  H   CYS A   4      -5.401   2.484 128.266  0.00  0.00    +0.000 HD
ATOM     47  H   UNK A   3      -7.496   0.955 132.486  0.00  0.00    +0.000 HD
ATOM     48  H   GLN A   2      -5.411   4.877 135.149  0.00  0.00    +0.000 HD
ATOM     49  H   LEU A   6      -3.301  -1.700 132.821  0.00  0.00    +0.000 HD
ATOM     50  H   GLY A   7      -6.245   2.235 135.795  0.00  0.00    +0.000 HD
ATOM     51  H   CYS A   8      -6.072   6.528 132.514  0.00  0.00    +0.000 HD
ENDROOT
BRANCH  18  52
ATOM     52  C   UNK A   3      -8.245   3.504 131.187  0.00  0.00    +0.000 C 
ATOM     53  N   UNK A   3      -9.718   3.981 132.012  0.00  0.00    +0.000 N 
ATOM     54  O   UNK A   3      -7.161   4.109 131.331  0.00  0.00    +0.000 OA
ATOM     55  H   UNK A   3      -9.663   4.755 132.867  0.00  0.00    +0.000 HD
ATOM     56  H   UNK A   3      -9.944   3.184 132.708  0.00  0.00    +0.000 HD
ENDBRANCH  18  52
BRANCH   1  57
ATOM     57  CB  ILE A   1      -3.896   1.490 134.547  0.00  0.00    +0.000 C 
ATOM     58  CG2 ILE A   1      -2.687   2.043 133.150  0.00  0.00    +0.000 C 
BRANCH  57  60
ATOM     59  CD1 ILE A   1      -1.712  -0.459 134.476  0.00  0.00    +0.000 C 
ATOM     60  CG1 ILE A   1      -3.386  -0.537 134.802  0.00  0.00    +0.000 C 
ENDBRANCH  57  60
ENDBRANCH   1  57
BRANCH   5  61
ATOM     61  CB  TYR A   9      -5.481   4.679 132.612  0.00  0.00    +0.000 C 
BRANCH  61  62
ATOM     62  CG  TYR A   9      -4.786   6.529 132.865  0.00  0.00    +0.000 A 
ATOM     63  CD1 TYR A   9      -3.602   6.893 133.955  0.00  0.00    +0.000 A 
ATOM     64  CE1 TYR A   9      -2.294   7.319 133.804  0.00  0.00    +0.000 A 
ATOM     65  CZ  TYR A   9      -2.368   8.052 132.711  0.00  0.00    +0.000 A 
ATOM     66  CE2 TYR A   9      -3.374   7.893 131.680  0.00  0.00    +0.000 A 
ATOM     67  CD2 TYR A   9      -4.474   7.030 131.640  0.00  0.00    +0.000 A 
BRANCH  65  68
ATOM     68  OH  TYR A   9      -1.618   9.167 132.698  0.00  0.00    +0.000 OA
ATOM     69  HH  TYR A   9      -1.621   9.485 131.776  0.00  0.00    +0.000 HD
ENDBRANCH  65  68
ENDBRANCH  61  62
ENDBRANCH   5  61
BRANCH  22  70
ATOM     70  CB  GLN A   2      -3.340   2.704 132.476  0.00  0.00    +0.000 C 
BRANCH  70  71
ATOM     71  CG  GLN A   2      -3.054   3.644 131.353  0.00  0.00    +0.000 C 
BRANCH  71  72
ATOM     72  CD  GLN A   2      -2.134   4.629 131.007  0.00  0.00    +0.000 C 
ATOM     73  NE2 GLN A   2      -2.570   4.976 129.822  0.00  0.00    +0.000 N 
ATOM     74  OE1 GLN A   2      -1.274   5.085 131.727  0.00  0.00    +0.000 OA
ATOM     75 HE21 GLN A   2      -3.375   4.549 129.383  0.00  0.00    +0.000 HD
ATOM     76 HE22 GLN A   2      -1.966   5.629 129.438  0.00  0.00    +0.000 HD
ENDBRANCH  71  72
ENDBRANCH  70  71
ENDBRANCH  22  70
BRANCH  36  77
ATOM     77  CB  LEU A   6      -6.585  -1.063 133.572  0.00  0.00    +0.000 C 
BRANCH  77  78
ATOM     78  CG  LEU A   6      -7.514  -2.384 134.005  0.00  0.00    +0.000 C 
ATOM     79  CD1 LEU A   6      -6.996  -3.206 132.587  0.00  0.00    +0.000 C 
ATOM     80  CD2 LEU A   6      -7.248  -2.491 135.398  0.00  0.00    +0.000 C 
ENDBRANCH  77  78
ENDBRANCH  36  77
TORSDOF 11
ENDMDL
MODEL 9
REMARK VINA RESULT:      -8.9      2.480      6.980
REMARK  Name = CHEMBL1630532
REMARK  15 active torsions:
REMARK  status: ('A' for Active; 'I' for Inactive)
REMARK    1  A    between atoms: CD1_1  and  CG1_2
REMARK    2  A    between atoms: CG1_2  and  CB_3
REMARK    3  A    between atoms: CB_3  and  CG2_4
REMARK    4  A    between atoms: CB_3  and  CA_5
REMARK    5  A    between atoms: CA_9  and  CB_10
REMARK    6  A    between atoms: CB_10  and  CG_11
REMARK    7  A    between atoms: CZ_14  and  OH_15
REMARK    8  A    between atoms: C_30  and  C_31
REMARK    9  A    between atoms: CA_37  and  CB_38
REMARK   10  A    between atoms: CB_38  and  CG_39
REMARK   11  A    between atoms: CG_39  and  CD_40
REMARK   12  A    between atoms: CA_56  and  CB_57
REMARK   13  A    between atoms: CB_57  and  CG_58
REMARK   14  A    between atoms: CG_58  and  CD1_59
REMARK   15  A    between atoms: CG_58  and  CD2_60
REMARK                            x       y       z     vdW  Elec       q    Type
REMARK                         _______ _______ _______ _____ _____    ______ ____
ROOT
ATOM      1  CA  ILE A   1      -7.482  -1.239 128.824  0.00  0.00    +0.000 C 
ATOM      2  N   ILE A   1      -9.150  -0.802 130.023  0.00  0.00    +0.000 N 
ATOM      3  C   TYR A   9      -9.180   0.132 131.644  0.00  0.00    +0.000 C 
ATOM      4  O   TYR A   9      -9.193  -0.466 132.864  0.00  0.00    +0.000 OA
ATOM      5  CA  TYR A   9      -7.714   1.633 131.374  0.00  0.00    +0.000 C 
ATOM      6  N   TYR A   9      -8.462   2.684 130.845  0.00  0.00    +0.000 N 
ATOM      7  C   CYS A   8      -8.164   3.390 131.812  0.00  0.00    +0.000 C 
ATOM      8  O   CYS A   8      -8.115   4.526 131.079  0.00  0.00    +0.000 OA
ATOM      9  CA  CYS A   8      -7.412   2.757 133.634  0.00  0.00    +0.000 C 
ATOM     10  CB  CYS A   8      -5.982   3.467 134.351  0.00  0.00    +0.000 C 
ATOM     11  SG  CYS A   8      -5.979   5.319 134.564  0.00  0.00    +0.000 S 
ATOM     12  SG  CYS A   4      -4.191   5.719 133.782  0.00  0.00    +0.000 S 
ATOM     13  CB  CYS A   4      -4.575   6.607 132.260  0.00  0.00    +0.000 C 
ATOM     14  CA  CYS A   4      -3.514   6.161 131.314  0.00  0.00    +0.000 C 
ATOM     15  N   CYS A   4      -3.156   4.791 131.455  0.00  0.00    +0.000 N 
ATOM     16  C   UNK A   3      -4.099   3.875 131.446  0.00  0.00    +0.000 C 
ATOM     17  O   UNK A   3      -3.618   2.753 131.527  0.00  0.00    +0.000 OA
ATOM     18  C   UNK A   3      -5.576   4.510 131.140  0.00  0.00    +0.000 C 
ATOM     19  N   UNK A   3      -6.326   3.803 130.251  0.00  0.00    +0.000 N 
ATOM     20  C   GLN A   2      -6.016   2.624 130.380  0.00  0.00    +0.000 C 
ATOM     21  O   GLN A   2      -6.643   1.774 129.845  0.00  0.00    +0.000 OA
ATOM     22  CA  GLN A   2      -5.936   1.241 130.185  0.00  0.00    +0.000 C 
ATOM     23  N   GLN A   2      -7.658   0.021 130.644  0.00  0.00    +0.000 N 
ATOM     24  C   ILE A   1      -7.984  -1.586 129.983  0.00  0.00    +0.000 C 
ATOM     25  O   ILE A   1      -8.466  -2.714 129.962  0.00  0.00    +0.000 OA
ATOM     26  C   CYS A   4      -3.960   6.421 129.951  0.00  0.00    +0.000 C 
ATOM     27  O   CYS A   4      -4.782   7.262 129.582  0.00  0.00    +0.000 OA
ATOM     28  N   PRO A   5      -2.824   5.467 129.169  0.00  0.00    +0.000 N 
ATOM     29  CD  PRO A   5      -2.139   5.711 127.930  0.00  0.00    +0.000 C 
ATOM     30  CG  PRO A   5      -3.010   6.793 128.028  0.00  0.00    +0.000 C 
ATOM     31  CB  PRO A   5      -4.288   5.243 128.150  0.00  0.00    +0.000 C 
ATOM     32  CA  PRO A   5      -3.303   4.314 128.708  0.00  0.00    +0.000 C 
ATOM     33  C   PRO A   5      -2.798   3.062 127.490  0.00  0.00    +0.000 C 
ATOM     34  O   PRO A   5      -1.641   3.158 127.105  0.00  0.00    +0.000 OA
ATOM     35  N   LEU A   6      -3.885   2.156 126.718  0.00  0.00    +0.000 N 
ATOM     36  CA  LEU A   6      -5.664   1.883 126.711  0.00  0.00    +0.000 C 
ATOM     37  C   LEU A   6      -7.178   0.515 127.154  0.00  0.00    +0.000 C 
ATOM     38  O   LEU A   6      -6.980  -0.679 126.685  0.00  0.00    +0.000 OA
ATOM     39  N   GLY A   7      -7.386   0.445 129.052  0.00  0.00    +0.000 N 
ATOM     40  CA  GLY A   7      -6.298  -0.196 130.845  0.00  0.00    +0.000 C 
ATOM     41  C   GLY A   7      -7.372   0.499 132.707  0.00  0.00    +0.000 C 
ATOM     42  O   GLY A   7      -8.624   1.419 132.865  0.00  0.00    +0.000 OA
ATOM     43  N   CYS A   8      -7.067   1.218 133.858  0.00  0.00    +0.000 N 
ATOM     44  H   ILE A   1      -9.635  -1.394 130.895  0.00  0.00    +0.000 HD
ATOM     45  H   TYR A   9      -8.159   3.296 130.058  0.00  0.00    +0.000 HD
ATOM     46  H   CYS A   4      -2.243   4.395 131.587  0.00  0.00    +0.000 HD
ATOM     47  H   UNK A   3      -6.660   4.048 129.371  0.00  0.00    +0.000 HD
ATOM     48  H   GLN A   2      -7.604  -0.540 131.580  0.00  0.00    +0.000 HD
ATOM     49  H   LEU A   6      -3.941   1.928 125.783  0.00  0.00    +0.000 HD
ATOM     50  H   GLY A   7      -8.422   0.730 129.171  0.00  0.00    +0.000 HD
ATOM     51  H   CYS A   8      -6.196   0.799 134.096  0.00  0.00    +0.000 HD
ENDROOT
BRANCH  18  52
ATOM     52  C   UNK A   3      -6.384   4.318 132.303  0.00  0.00    +0.000 C 
ATOM     53  N   UNK A   3      -8.009   4.694 132.845  0.00  0.00    +0.000 N 
ATOM     54  O   UNK A   3      -5.826   3.225 132.540  0.00  0.00    +0.000 OA
ATOM     55  H   UNK A   3      -8.675   3.850 133.267  0.00  0.00    +0.000 HD
ATOM     56  H   UNK A   3      -8.615   4.765 131.951  0.00  0.00    +0.000 HD
ENDBRANCH  18  52
BRANCH   1  57
ATOM     57  CB  ILE A   1      -5.884   0.081 128.296  0.00  0.00    +0.000 C 
ATOM     58  CG2 ILE A   1      -4.100  -0.157 128.988  0.00  0.00    +0.000 C 
BRANCH  57  60
ATOM     59  CD1 ILE A   1      -4.995  -1.244 125.841  0.00  0.00    +0.000 C 
ATOM     60  CG1 ILE A   1      -5.535   0.327 126.235  0.00  0.00    +0.000 C 
ENDBRANCH  57  60
ENDBRANCH   1  57
BRANCH   5  61
ATOM     61  CB  TYR A   9      -5.732   1.059 132.227  0.00  0.00    +0.000 C 
BRANCH  61  62
ATOM     62  CG  TYR A   9      -5.629  -0.144 133.812  0.00  0.00    +0.000 A 
ATOM     63  CD1 TYR A   9      -5.936  -1.762 133.721  0.00  0.00    +0.000 A 
ATOM     64  CE1 TYR A   9      -5.127  -2.875 133.870  0.00  0.00    +0.000 A 
ATOM     65  CZ  TYR A   9      -4.260  -2.465 134.774  0.00  0.00    +0.000 A 
ATOM     66  CE2 TYR A   9      -3.914  -1.078 135.013  0.00  0.00    +0.000 A 
ATOM     67  CD2 TYR A   9      -4.439   0.080 134.431  0.00  0.00    +0.000 A 
BRANCH  65  68
ATOM     68  OH  TYR A   9      -3.882  -3.378 135.685  0.00  0.00    +0.000 OA
ATOM     69  HH  TYR A   9      -3.333  -4.027 135.207  0.00  0.00    +0.000 HD
ENDBRANCH  65  68
ENDBRANCH  61  62
ENDBRANCH   5  61
BRANCH  22  70
ATOM     70  CB  GLN A   2      -4.064   0.402 129.927  0.00  0.00    +0.000 C 
BRANCH  70  71
ATOM     71  CG  GLN A   2      -3.556  -0.498 131.003  0.00  0.00    +0.000 C 
BRANCH  71  72
ATOM     72  CD  GLN A   2      -3.153  -1.818 131.174  0.00  0.00    +0.000 C 
ATOM     73  NE2 GLN A   2      -2.226  -1.683 132.089  0.00  0.00    +0.000 N 
ATOM     74  OE1 GLN A   2      -3.672  -2.792 130.675  0.00  0.00    +0.000 OA
ATOM     75 HE21 GLN A   2      -1.961  -0.788 132.478  0.00  0.00    +0.000 HD
ATOM     76 HE22 GLN A   2      -1.815  -2.544 132.257  0.00  0.00    +0.000 HD
ENDBRANCH  71  72
ENDBRANCH  70  71
ENDBRANCH  22  70
BRANCH  36  77
ATOM     77  CB  LEU A   6      -6.712   3.574 126.952  0.00  0.00    +0.000 C 
BRANCH  77  78
ATOM     78  CG  LEU A   6      -7.590   4.478 125.852  0.00  0.00    +0.000 C 
ATOM     79  CD1 LEU A   6      -6.130   5.167 125.262  0.00  0.00    +0.000 C 
ATOM     80  CD2 LEU A   6      -8.532   3.527 125.372  0.00  0.00    +0.000 C 
ENDBRANCH  77  78
ENDBRANCH  36  77
TORSDOF 11
ENDMDL
