MODEL 1
REMARK VINA RESULT:     -10.7      0.000      0.000
REMARK  Name = CHEMBL2037495
REMARK  7 active torsions:
REMARK  status: ('A' for Active; 'I' for Inactive)
REMARK    1  A    between atoms: C_1  and  C_2
REMARK    2  A    between atoms: C_5  and  C_6
REMARK    3  A    between atoms: C_6  and  C_7
REMARK    4  A    between atoms: C_6  and  N_15
REMARK    5  A    between atoms: CA_18  and  C_19
REMARK    6  A    between atoms: CA_31  and  C_32
REMARK    7  A    between atoms: C_32  and  C_33
REMARK                            x       y       z     vdW  Elec       q    Type
REMARK                         _______ _______ _______ _____ _____    ______ ____
ROOT
ATOM      1  N   UNL     1      -6.673  -0.050 126.118  0.00  0.00    +0.000 N 
ATOM      2  C   UNL     1      -6.630   1.169 125.396  0.00  0.00    +0.000 C 
ATOM      3  O   UNL     1      -5.801   2.026 125.660  0.00  0.00    +0.000 OA
ATOM      4  CA  UNL     1      -7.870   1.435 124.430  0.00  0.00    +0.000 C 
ATOM      5  N   UNL     1      -7.999   0.283 123.578  0.00  0.00    +0.000 N 
ATOM      6  C   UNL     1      -7.993  -0.985 124.073  0.00  0.00    +0.000 C 
ATOM      7  O   UNL     1      -8.336  -1.890 123.370  0.00  0.00    +0.000 OA
ATOM      8  CA  UNL     1      -7.602  -1.102 125.564  0.00  0.00    +0.000 C 
ATOM      9  H   UNL     1      -8.283   0.338 122.608  0.00  0.00    +0.000 HD
ENDROOT
BRANCH   4  10
ATOM     10  C   UNL     1      -7.763   2.670 123.532  0.00  0.00    +0.000 C 
ATOM     11  C   UNL     1      -6.487   2.800 122.696  0.00  0.00    +0.000 C 
ATOM     12  C   UNL     1      -6.944   3.470 121.462  0.00  0.00    +0.000 A 
ATOM     13  C   UNL     1      -6.152   3.911 120.418  0.00  0.00    +0.000 A 
ATOM     14  C   UNL     1      -6.802   4.427 119.307  0.00  0.00    +0.000 A 
ATOM     15  C   UNL     1      -8.206   4.423 119.238  0.00  0.00    +0.000 A 
ATOM     16  C   UNL     1      -8.981   3.872 120.257  0.00  0.00    +0.000 A 
ATOM     17  C   UNL     1      -8.333   3.403 121.371  0.00  0.00    +0.000 A 
ATOM     18  C   UNL     1      -8.932   2.686 122.529  0.00  0.00    +0.000 C 
ENDBRANCH   4  10
BRANCH   1  19
ATOM     19  C   UNL     1      -5.823  -0.137 127.467  0.00  0.00    +0.000 C 
BRANCH  19  20
ATOM     20  C   UNL     1      -5.567   1.051 128.395  0.00  0.00    +0.000 C 
ATOM     21  O   UNL     1      -4.387   1.368 128.618  0.00  0.00    +0.000 OA
ATOM     22  N   UNL     1      -6.558   1.798 128.941  0.00  0.00    +0.000 N 
ATOM     23  C   UNL     1      -7.914   1.415 129.298  0.00  0.00    +0.000 C 
ATOM     24  C   UNL     1      -8.818   2.547 128.853  0.00  0.00    +0.000 C 
ATOM     25  O   UNL     1      -8.487   3.813 129.421  0.00  0.00    +0.000 OA
ATOM     26  C   UNL     1      -7.177   4.173 128.934  0.00  0.00    +0.000 C 
ATOM     27  C   UNL     1      -6.179   3.123 129.412  0.00  0.00    +0.000 C 
ENDBRANCH  19  20
BRANCH  19  32
ATOM     28  C   UNL     1      -5.514  -4.994 130.704  0.00  0.00    +0.000 C 
ATOM     29  C   UNL     1      -5.864  -3.768 129.911  0.00  0.00    +0.000 A 
ATOM     30  C   UNL     1      -4.851  -3.244 129.237  0.00  0.00    +0.000 A 
ATOM     31  C   UNL     1      -4.991  -1.928 128.794  0.00  0.00    +0.000 A 
ATOM     32  C   UNL     1      -6.102  -1.322 128.423  0.00  0.00    +0.000 A 
ATOM     33  C   UNL     1      -7.141  -1.962 129.035  0.00  0.00    +0.000 A 
ATOM     34  N   UNL     1      -7.042  -3.118 129.842  0.00  0.00    +0.000 NA
ENDBRANCH  19  32
ENDBRANCH   1  19
BRANCH   8  35
ATOM     35  C   UNL     1      -7.133  -2.591 125.562  0.00  0.00    +0.000 C 
BRANCH  35  36
ATOM     36  C   UNL     1      -5.485  -2.838 124.954  0.00  0.00    +0.000 C 
ATOM     37  C   UNL     1      -4.761  -4.115 124.073  0.00  0.00    +0.000 C 
ATOM     38  C   UNL     1      -4.897  -2.754 123.502  0.00  0.00    +0.000 C 
ENDBRANCH  35  36
ENDBRANCH   8  35
TORSDOF 6
ENDMDL
MODEL 2
REMARK VINA RESULT:     -10.6      2.780      7.970
REMARK  Name = CHEMBL2037495
REMARK  7 active torsions:
REMARK  status: ('A' for Active; 'I' for Inactive)
REMARK    1  A    between atoms: C_1  and  C_2
REMARK    2  A    between atoms: C_5  and  C_6
REMARK    3  A    between atoms: C_6  and  C_7
REMARK    4  A    between atoms: C_6  and  N_15
REMARK    5  A    between atoms: CA_18  and  C_19
REMARK    6  A    between atoms: CA_31  and  C_32
REMARK    7  A    between atoms: C_32  and  C_33
REMARK                            x       y       z     vdW  Elec       q    Type
REMARK                         _______ _______ _______ _____ _____    ______ ____
ROOT
ATOM      1  N   UNL     1      -5.926   1.496 126.293  0.00  0.00    +0.000 N 
ATOM      2  C   UNL     1      -5.715   2.607 127.147  0.00  0.00    +0.000 C 
ATOM      3  O   UNL     1      -6.317   3.656 126.975  0.00  0.00    +0.000 OA
ATOM      4  CA  UNL     1      -4.481   2.474 128.148  0.00  0.00    +0.000 C 
ATOM      5  N   UNL     1      -4.648   1.239 128.865  0.00  0.00    +0.000 N 
ATOM      6  C   UNL     1      -4.926   0.067 128.230  0.00  0.00    +0.000 C 
ATOM      7  O   UNL     1      -4.823  -0.962 128.830  0.00  0.00    +0.000 OA
ATOM      8  CA  UNL     1      -5.282   0.205 126.732  0.00  0.00    +0.000 C 
ATOM      9  H   UNL     1      -4.393   1.122 129.838  0.00  0.00    +0.000 HD
ENDROOT
BRANCH   4  10
ATOM     10  C   UNL     1      -4.334   3.596 129.179  0.00  0.00    +0.000 C 
ATOM     11  C   UNL     1      -3.842   3.189 130.570  0.00  0.00    +0.000 C 
ATOM     12  C   UNL     1      -3.055   4.355 131.018  0.00  0.00    +0.000 A 
ATOM     13  C   UNL     1      -2.478   4.534 132.261  0.00  0.00    +0.000 A 
ATOM     14  C   UNL     1      -1.695   5.666 132.437  0.00  0.00    +0.000 A 
ATOM     15  C   UNL     1      -1.455   6.539 131.361  0.00  0.00    +0.000 A 
ATOM     16  C   UNL     1      -1.960   6.277 130.088  0.00  0.00    +0.000 A 
ATOM     17  C   UNL     1      -2.767   5.180 129.933  0.00  0.00    +0.000 A 
ATOM     18  C   UNL     1      -3.332   4.646 128.664  0.00  0.00    +0.000 C 
ENDBRANCH   4  10
BRANCH   1  19
ATOM     19  C   UNL     1      -6.727   1.754 124.935  0.00  0.00    +0.000 C 
BRANCH  19  20
ATOM     20  C   UNL     1      -8.250   1.853 124.845  0.00  0.00    +0.000 C 
ATOM     21  O   UNL     1      -8.789   2.893 125.255  0.00  0.00    +0.000 OA
ATOM     22  N   UNL     1      -9.028   0.887 124.297  0.00  0.00    +0.000 N 
ATOM     23  C   UNL     1      -8.808  -0.548 124.227  0.00  0.00    +0.000 C 
ATOM     24  C   UNL     1      -9.213  -0.983 122.832  0.00  0.00    +0.000 C 
ATOM     25  O   UNL     1     -10.561  -0.664 122.492  0.00  0.00    +0.000 OA
ATOM     26  C   UNL     1     -10.671   0.774 122.478  0.00  0.00    +0.000 C 
ATOM     27  C   UNL     1     -10.361   1.297 123.876  0.00  0.00    +0.000 C 
ENDBRANCH  19  20
BRANCH  19  32
ATOM     28  C   UNL     1      -5.093   4.973 120.338  0.00  0.00    +0.000 C 
ATOM     29  C   UNL     1      -5.367   4.326 121.665  0.00  0.00    +0.000 A 
ATOM     30  C   UNL     1      -5.968   3.148 121.586  0.00  0.00    +0.000 A 
ATOM     31  C   UNL     1      -6.584   2.668 122.743  0.00  0.00    +0.000 A 
ATOM     32  C   UNL     1      -6.211   2.868 123.992  0.00  0.00    +0.000 A 
ATOM     33  C   UNL     1      -5.486   4.024 124.021  0.00  0.00    +0.000 A 
ATOM     34  N   UNL     1      -5.128   4.807 122.901  0.00  0.00    +0.000 NA
ENDBRANCH  19  32
ENDBRANCH   1  19
BRANCH   8  35
ATOM     35  C   UNL     1      -6.079  -1.127 126.562  0.00  0.00    +0.000 C 
BRANCH  35  36
ATOM     36  C   UNL     1      -5.465  -2.187 125.278  0.00  0.00    +0.000 C 
ATOM     37  C   UNL     1      -6.228  -3.353 124.285  0.00  0.00    +0.000 C 
ATOM     38  C   UNL     1      -5.628  -2.121 123.719  0.00  0.00    +0.000 C 
ENDBRANCH  35  36
ENDBRANCH   8  35
TORSDOF 6
ENDMDL
MODEL 3
REMARK VINA RESULT:     -10.6      1.405      2.087
REMARK  Name = CHEMBL2037495
REMARK  7 active torsions:
REMARK  status: ('A' for Active; 'I' for Inactive)
REMARK    1  A    between atoms: C_1  and  C_2
REMARK    2  A    between atoms: C_5  and  C_6
REMARK    3  A    between atoms: C_6  and  C_7
REMARK    4  A    between atoms: C_6  and  N_15
REMARK    5  A    between atoms: CA_18  and  C_19
REMARK    6  A    between atoms: CA_31  and  C_32
REMARK    7  A    between atoms: C_32  and  C_33
REMARK                            x       y       z     vdW  Elec       q    Type
REMARK                         _______ _______ _______ _____ _____    ______ ____
ROOT
ATOM      1  N   UNL     1      -6.723   0.775 125.872  0.00  0.00    +0.000 N 
ATOM      2  C   UNL     1      -6.707   1.994 125.150  0.00  0.00    +0.000 C 
ATOM      3  O   UNL     1      -6.275   3.019 125.654  0.00  0.00    +0.000 OA
ATOM      4  CA  UNL     1      -7.514   1.983 123.774  0.00  0.00    +0.000 C 
ATOM      5  N   UNL     1      -7.026   0.869 123.006  0.00  0.00    +0.000 N 
ATOM      6  C   UNL     1      -6.899  -0.377 123.540  0.00  0.00    +0.000 C 
ATOM      7  O   UNL     1      -6.720  -1.310 122.815  0.00  0.00    +0.000 OA
ATOM      8  CA  UNL     1      -7.087  -0.451 125.073  0.00  0.00    +0.000 C 
ATOM      9  H   UNL     1      -6.926   0.889 121.998  0.00  0.00    +0.000 HD
ENDROOT
BRANCH   4  10
ATOM     10  C   UNL     1      -7.379   3.240 122.911  0.00  0.00    +0.000 C 
ATOM     11  C   UNL     1      -5.968   3.595 122.434  0.00  0.00    +0.000 C 
ATOM     12  C   UNL     1      -6.191   4.211 121.111  0.00  0.00    +0.000 A 
ATOM     13  C   UNL     1      -5.237   4.799 120.302  0.00  0.00    +0.000 A 
ATOM     14  C   UNL     1      -5.649   5.230 119.050  0.00  0.00    +0.000 A 
ATOM     15  C   UNL     1      -6.967   5.000 118.617  0.00  0.00    +0.000 A 
ATOM     16  C   UNL     1      -7.880   4.307 119.410  0.00  0.00    +0.000 A 
ATOM     17  C   UNL     1      -7.478   3.922 120.663  0.00  0.00    +0.000 A 
ATOM     18  C   UNL     1      -8.232   3.090 121.639  0.00  0.00    +0.000 C 
ENDBRANCH   4  10
BRANCH   1  19
ATOM     19  C   UNL     1      -6.453   0.849 127.445  0.00  0.00    +0.000 C 
BRANCH  19  20
ATOM     20  C   UNL     1      -6.990   1.954 128.355  0.00  0.00    +0.000 C 
ATOM     21  O   UNL     1      -8.213   2.168 128.346  0.00  0.00    +0.000 OA
ATOM     22  N   UNL     1      -6.208   2.670 129.199  0.00  0.00    +0.000 N 
ATOM     23  C   UNL     1      -4.804   3.026 129.082  0.00  0.00    +0.000 C 
ATOM     24  C   UNL     1      -4.188   2.829 130.452  0.00  0.00    +0.000 C 
ATOM     25  O   UNL     1      -4.814   3.590 131.485  0.00  0.00    +0.000 OA
ATOM     26  C   UNL     1      -6.167   3.106 131.614  0.00  0.00    +0.000 C 
ATOM     27  C   UNL     1      -6.893   3.343 130.294  0.00  0.00    +0.000 C 
ENDBRANCH  19  20
BRANCH  19  32
ATOM     28  C   UNL     1      -5.693  -4.244 130.211  0.00  0.00    +0.000 C 
ATOM     29  C   UNL     1      -6.155  -2.991 129.525  0.00  0.00    +0.000 A 
ATOM     30  C   UNL     1      -5.188  -2.293 128.949  0.00  0.00    +0.000 A 
ATOM     31  C   UNL     1      -5.464  -0.963 128.629  0.00  0.00    +0.000 A 
ATOM     32  C   UNL     1      -6.625  -0.449 128.270  0.00  0.00    +0.000 A 
ATOM     33  C   UNL     1      -7.602  -1.259 128.772  0.00  0.00    +0.000 A 
ATOM     34  N   UNL     1      -7.398  -2.472 129.468  0.00  0.00    +0.000 NA
ENDBRANCH  19  32
ENDBRANCH   1  19
BRANCH   8  35
ATOM     35  C   UNL     1      -6.304  -1.777 125.335  0.00  0.00    +0.000 C 
BRANCH  35  36
ATOM     36  C   UNL     1      -7.333  -3.214 125.495  0.00  0.00    +0.000 C 
ATOM     37  C   UNL     1      -8.826  -3.479 126.288  0.00  0.00    +0.000 C 
ATOM     38  C   UNL     1      -8.696  -3.588 124.815  0.00  0.00    +0.000 C 
ENDBRANCH  35  36
ENDBRANCH   8  35
TORSDOF 6
ENDMDL
MODEL 4
REMARK VINA RESULT:     -10.5      2.234      3.215
REMARK  Name = CHEMBL2037495
REMARK  7 active torsions:
REMARK  status: ('A' for Active; 'I' for Inactive)
REMARK    1  A    between atoms: C_1  and  C_2
REMARK    2  A    between atoms: C_5  and  C_6
REMARK    3  A    between atoms: C_6  and  C_7
REMARK    4  A    between atoms: C_6  and  N_15
REMARK    5  A    between atoms: CA_18  and  C_19
REMARK    6  A    between atoms: CA_31  and  C_32
REMARK    7  A    between atoms: C_32  and  C_33
REMARK                            x       y       z     vdW  Elec       q    Type
REMARK                         _______ _______ _______ _____ _____    ______ ____
ROOT
ATOM      1  N   UNL     1      -7.480   1.319 127.526  0.00  0.00    +0.000 N 
ATOM      2  C   UNL     1      -7.305   2.394 126.618  0.00  0.00    +0.000 C 
ATOM      3  O   UNL     1      -6.875   3.473 126.997  0.00  0.00    +0.000 OA
ATOM      4  CA  UNL     1      -7.941   2.177 125.172  0.00  0.00    +0.000 C 
ATOM      5  N   UNL     1      -7.434   0.930 124.669  0.00  0.00    +0.000 N 
ATOM      6  C   UNL     1      -7.448  -0.210 125.414  0.00  0.00    +0.000 C 
ATOM      7  O   UNL     1      -7.240  -1.260 124.883  0.00  0.00    +0.000 OA
ATOM      8  CA  UNL     1      -7.820  -0.011 126.901  0.00  0.00    +0.000 C 
ATOM      9  H   UNL     1      -7.213   0.772 123.693  0.00  0.00    +0.000 HD
ENDROOT
BRANCH   4  10
ATOM     10  C   UNL     1      -7.628   3.261 124.137  0.00  0.00    +0.000 C 
ATOM     11  C   UNL     1      -6.166   3.393 123.704  0.00  0.00    +0.000 C 
ATOM     12  C   UNL     1      -6.255   3.809 122.290  0.00  0.00    +0.000 A 
ATOM     13  C   UNL     1      -5.204   4.162 121.465  0.00  0.00    +0.000 A 
ATOM     14  C   UNL     1      -5.506   4.426 120.137  0.00  0.00    +0.000 A 
ATOM     15  C   UNL     1      -6.818   4.262 119.659  0.00  0.00    +0.000 A 
ATOM     16  C   UNL     1      -7.839   3.799 120.488  0.00  0.00    +0.000 A 
ATOM     17  C   UNL     1      -7.542   3.581 121.809  0.00  0.00    +0.000 A 
ATOM     18  C   UNL     1      -8.430   2.995 122.849  0.00  0.00    +0.000 C 
ENDBRANCH   4  10
BRANCH   1  19
ATOM     19  C   UNL     1      -7.396   1.653 129.086  0.00  0.00    +0.000 C 
BRANCH  19  20
ATOM     20  C   UNL     1      -8.384   2.558 129.823  0.00  0.00    +0.000 C 
ATOM     21  O   UNL     1      -9.471   2.797 129.273  0.00  0.00    +0.000 OA
ATOM     22  N   UNL     1      -8.150   3.065 131.058  0.00  0.00    +0.000 N 
ATOM     23  C   UNL     1      -6.889   3.404 131.695  0.00  0.00    +0.000 C 
ATOM     24  C   UNL     1      -6.978   2.915 133.126  0.00  0.00    +0.000 C 
ATOM     25  O   UNL     1      -8.073   3.459 133.860  0.00  0.00    +0.000 OA
ATOM     26  C   UNL     1      -9.285   2.990 133.233  0.00  0.00    +0.000 C 
ATOM     27  C   UNL     1      -9.321   3.512 131.800  0.00  0.00    +0.000 C 
ENDBRANCH  19  20
BRANCH  19  32
ATOM     28  C   UNL     1      -7.774  -2.418 133.263  0.00  0.00    +0.000 C 
ATOM     29  C   UNL     1      -7.408  -1.428 132.195  0.00  0.00    +0.000 A 
ATOM     30  C   UNL     1      -8.394  -0.619 131.838  0.00  0.00    +0.000 A 
ATOM     31  C   UNL     1      -8.259   0.056 130.624  0.00  0.00    +0.000 A 
ATOM     32  C   UNL     1      -7.143   0.479 130.063  0.00  0.00    +0.000 A 
ATOM     33  C   UNL     1      -6.125  -0.292 130.545  0.00  0.00    +0.000 A 
ATOM     34  N   UNL     1      -6.242  -1.296 131.533  0.00  0.00    +0.000 NA
ENDBRANCH  19  32
ENDBRANCH   1  19
BRANCH   8  35
ATOM     35  C   UNL     1      -7.157  -1.302 127.478  0.00  0.00    +0.000 C 
BRANCH  35  36
ATOM     36  C   UNL     1      -8.286  -2.406 128.287  0.00  0.00    +0.000 C 
ATOM     37  C   UNL     1      -8.763  -4.015 127.951  0.00  0.00    +0.000 C 
ATOM     38  C   UNL     1      -8.031  -3.662 129.192  0.00  0.00    +0.000 C 
ENDBRANCH  35  36
ENDBRANCH   8  35
TORSDOF 6
ENDMDL
MODEL 5
REMARK VINA RESULT:     -10.5      1.703      3.675
REMARK  Name = CHEMBL2037495
REMARK  7 active torsions:
REMARK  status: ('A' for Active; 'I' for Inactive)
REMARK    1  A    between atoms: C_1  and  C_2
REMARK    2  A    between atoms: C_5  and  C_6
REMARK    3  A    between atoms: C_6  and  C_7
REMARK    4  A    between atoms: C_6  and  N_15
REMARK    5  A    between atoms: CA_18  and  C_19
REMARK    6  A    between atoms: CA_31  and  C_32
REMARK    7  A    between atoms: C_32  and  C_33
REMARK                            x       y       z     vdW  Elec       q    Type
REMARK                         _______ _______ _______ _____ _____    ______ ____
ROOT
ATOM      1  N   UNL     1      -8.149   0.049 126.338  0.00  0.00    +0.000 N 
ATOM      2  C   UNL     1      -7.732   1.235 125.683  0.00  0.00    +0.000 C 
ATOM      3  O   UNL     1      -6.855   1.940 126.158  0.00  0.00    +0.000 OA
ATOM      4  CA  UNL     1      -8.649   1.701 124.465  0.00  0.00    +0.000 C 
ATOM      5  N   UNL     1      -8.769   0.580 123.572  0.00  0.00    +0.000 N 
ATOM      6  C   UNL     1      -9.094  -0.665 124.015  0.00  0.00    +0.000 C 
ATOM      7  O   UNL     1      -9.412  -1.504 123.225  0.00  0.00    +0.000 OA
ATOM      8  CA  UNL     1      -9.088  -0.833 125.552  0.00  0.00    +0.000 C 
ATOM      9  H   UNL     1      -8.805   0.673 122.564  0.00  0.00    +0.000 HD
ENDROOT
BRANCH   4  10
ATOM     10  C   UNL     1      -8.128   2.890 123.654  0.00  0.00    +0.000 C 
ATOM     11  C   UNL     1      -6.624   2.919 123.370  0.00  0.00    +0.000 C 
ATOM     12  C   UNL     1      -6.530   3.560 122.043  0.00  0.00    +0.000 A 
ATOM     13  C   UNL     1      -5.373   3.914 121.376  0.00  0.00    +0.000 A 
ATOM     14  C   UNL     1      -5.514   4.417 120.091  0.00  0.00    +0.000 A 
ATOM     15  C   UNL     1      -6.782   4.484 119.488  0.00  0.00    +0.000 A 
ATOM     16  C   UNL     1      -7.922   4.018 120.142  0.00  0.00    +0.000 A 
ATOM     17  C   UNL     1      -7.780   3.562 121.428  0.00  0.00    +0.000 A 
ATOM     18  C   UNL     1      -8.821   2.926 122.280  0.00  0.00    +0.000 C 
ENDBRANCH   4  10
BRANCH   1  19
ATOM     19  C   UNL     1      -7.664  -0.169 127.844  0.00  0.00    +0.000 C 
BRANCH  19  20
ATOM     20  C   UNL     1      -6.230  -0.524 128.239  0.00  0.00    +0.000 C 
ATOM     21  O   UNL     1      -5.332   0.280 127.940  0.00  0.00    +0.000 OA
ATOM     22  N   UNL     1      -5.904  -1.639 128.937  0.00  0.00    +0.000 N 
ATOM     23  C   UNL     1      -6.560  -2.935 128.969  0.00  0.00    +0.000 C 
ATOM     24  C   UNL     1      -6.581  -3.377 130.419  0.00  0.00    +0.000 C 
ATOM     25  O   UNL     1      -5.291  -3.453 131.022  0.00  0.00    +0.000 OA
ATOM     26  C   UNL     1      -4.752  -2.115 131.051  0.00  0.00    +0.000 C 
ATOM     27  C   UNL     1      -4.615  -1.618 129.616  0.00  0.00    +0.000 C 
ENDBRANCH  19  20
BRANCH  19  32
ATOM     28  C   UNL     1      -9.485   2.543 132.692  0.00  0.00    +0.000 C 
ATOM     29  C   UNL     1      -9.088   2.079 131.320  0.00  0.00    +0.000 A 
ATOM     30  C   UNL     1      -8.782   0.792 131.244  0.00  0.00    +0.000 A 
ATOM     31  C   UNL     1      -8.058   0.372 130.127  0.00  0.00    +0.000 A 
ATOM     32  C   UNL     1      -8.114   0.865 128.905  0.00  0.00    +0.000 A 
ATOM     33  C   UNL     1      -8.552   2.153 129.003  0.00  0.00    +0.000 A 
ATOM     34  N   UNL     1      -8.957   2.803 130.191  0.00  0.00    +0.000 NA
ENDBRANCH  19  32
ENDBRANCH   1  19
BRANCH   8  35
ATOM     35  C   UNL     1      -8.890  -2.381 125.613  0.00  0.00    +0.000 C 
BRANCH  35  36
ATOM     36  C   UNL     1      -7.204  -2.910 125.462  0.00  0.00    +0.000 C 
ATOM     37  C   UNL     1      -6.267  -3.401 124.117  0.00  0.00    +0.000 C 
ATOM     38  C   UNL     1      -5.940  -2.178 124.889  0.00  0.00    +0.000 C 
ENDBRANCH  35  36
ENDBRANCH   8  35
TORSDOF 6
ENDMDL
MODEL 6
REMARK VINA RESULT:     -10.3      3.912      7.095
REMARK  Name = CHEMBL2037495
REMARK  7 active torsions:
REMARK  status: ('A' for Active; 'I' for Inactive)
REMARK    1  A    between atoms: C_1  and  C_2
REMARK    2  A    between atoms: C_5  and  C_6
REMARK    3  A    between atoms: C_6  and  C_7
REMARK    4  A    between atoms: C_6  and  N_15
REMARK    5  A    between atoms: CA_18  and  C_19
REMARK    6  A    between atoms: CA_31  and  C_32
REMARK    7  A    between atoms: C_32  and  C_33
REMARK                            x       y       z     vdW  Elec       q    Type
REMARK                         _______ _______ _______ _____ _____    ______ ____
ROOT
ATOM      1  N   UNL     1      -8.092   3.000 129.811  0.00  0.00    +0.000 N 
ATOM      2  C   UNL     1      -8.961   4.116 129.718  0.00  0.00    +0.000 C 
ATOM      3  O   UNL     1      -8.941   4.849 128.742  0.00  0.00    +0.000 OA
ATOM      4  CA  UNL     1      -9.749   4.481 131.056  0.00  0.00    +0.000 C 
ATOM      5  N   UNL     1     -10.416   3.284 131.494  0.00  0.00    +0.000 N 
ATOM      6  C   UNL     1      -9.770   2.089 131.585  0.00  0.00    +0.000 C 
ATOM      7  O   UNL     1     -10.290   1.186 132.171  0.00  0.00    +0.000 OA
ATOM      8  CA  UNL     1      -8.356   2.063 130.963  0.00  0.00    +0.000 C 
ATOM      9  H   UNL     1     -11.330   3.285 131.931  0.00  0.00    +0.000 HD
ENDROOT
BRANCH   4  10
ATOM     10  C   UNL     1     -10.803   5.583 130.929  0.00  0.00    +0.000 C 
ATOM     11  C   UNL     1     -10.315   6.943 130.422  0.00  0.00    +0.000 C 
ATOM     12  C   UNL     1     -11.466   7.466 129.659  0.00  0.00    +0.000 A 
ATOM     13  C   UNL     1     -11.574   8.715 129.079  0.00  0.00    +0.000 A 
ATOM     14  C   UNL     1     -12.709   8.964 128.321  0.00  0.00    +0.000 A 
ATOM     15  C   UNL     1     -13.657   7.948 128.106  0.00  0.00    +0.000 A 
ATOM     16  C   UNL     1     -13.469   6.662 128.610  0.00  0.00    +0.000 A 
ATOM     17  C   UNL     1     -12.367   6.437 129.394  0.00  0.00    +0.000 A 
ATOM     18  C   UNL     1     -11.907   5.137 129.953  0.00  0.00    +0.000 C 
ENDBRANCH   4  10
BRANCH   1  19
ATOM     19  C   UNL     1      -6.891   2.915 128.761  0.00  0.00    +0.000 C 
BRANCH  19  20
ATOM     20  C   UNL     1      -5.459   3.362 129.059  0.00  0.00    +0.000 C 
ATOM     21  O   UNL     1      -5.062   3.288 130.233  0.00  0.00    +0.000 OA
ATOM     22  N   UNL     1      -4.596   3.785 128.103  0.00  0.00    +0.000 N 
ATOM     23  C   UNL     1      -4.869   4.450 126.840  0.00  0.00    +0.000 C 
ATOM     24  C   UNL     1      -3.965   3.809 125.806  0.00  0.00    +0.000 C 
ATOM     25  O   UNL     1      -2.576   3.883 126.122  0.00  0.00    +0.000 OA
ATOM     26  C   UNL     1      -2.368   3.112 127.324  0.00  0.00    +0.000 C 
ATOM     27  C   UNL     1      -3.182   3.742 128.449  0.00  0.00    +0.000 C 
ENDBRANCH  19  20
BRANCH  19  32
ATOM     28  C   UNL     1      -7.731  -1.956 125.641  0.00  0.00    +0.000 C 
ATOM     29  C   UNL     1      -7.267  -0.810 126.493  0.00  0.00    +0.000 A 
ATOM     30  C   UNL     1      -8.216   0.062 126.802  0.00  0.00    +0.000 A 
ATOM     31  C   UNL     1      -7.806   1.317 127.255  0.00  0.00    +0.000 A 
ATOM     32  C   UNL     1      -6.726   1.603 127.956  0.00  0.00    +0.000 A 
ATOM     33  C   UNL     1      -5.811   0.620 127.716  0.00  0.00    +0.000 A 
ATOM     34  N   UNL     1      -6.022  -0.536 126.930  0.00  0.00    +0.000 NA
ENDBRANCH  19  32
ENDBRANCH   1  19
BRANCH   8  35
ATOM     35  C   UNL     1      -8.240   0.525 130.720  0.00  0.00    +0.000 C 
BRANCH  35  36
ATOM     36  C   UNL     1      -6.837  -0.235 131.497  0.00  0.00    +0.000 C 
ATOM     37  C   UNL     1      -5.757  -1.458 130.981  0.00  0.00    +0.000 C 
ATOM     38  C   UNL     1      -5.299  -0.071 131.236  0.00  0.00    +0.000 C 
ENDBRANCH  35  36
ENDBRANCH   8  35
TORSDOF 6
ENDMDL
MODEL 7
REMARK VINA RESULT:     -10.3      4.706      8.234
REMARK  Name = CHEMBL2037495
REMARK  7 active torsions:
REMARK  status: ('A' for Active; 'I' for Inactive)
REMARK    1  A    between atoms: C_1  and  C_2
REMARK    2  A    between atoms: C_5  and  C_6
REMARK    3  A    between atoms: C_6  and  C_7
REMARK    4  A    between atoms: C_6  and  N_15
REMARK    5  A    between atoms: CA_18  and  C_19
REMARK    6  A    between atoms: CA_31  and  C_32
REMARK    7  A    between atoms: C_32  and  C_33
REMARK                            x       y       z     vdW  Elec       q    Type
REMARK                         _______ _______ _______ _____ _____    ______ ____
ROOT
ATOM      1  N   UNL     1      -7.890   2.729 130.989  0.00  0.00    +0.000 N 
ATOM      2  C   UNL     1      -8.959   3.405 130.349  0.00  0.00    +0.000 C 
ATOM      3  O   UNL     1      -9.364   3.046 129.254  0.00  0.00    +0.000 OA
ATOM      4  CA  UNL     1      -9.397   4.783 131.023  0.00  0.00    +0.000 C 
ATOM      5  N   UNL     1      -9.655   4.512 132.411  0.00  0.00    +0.000 N 
ATOM      6  C   UNL     1      -8.780   3.814 133.186  0.00  0.00    +0.000 C 
ATOM      7  O   UNL     1      -8.918   3.816 134.374  0.00  0.00    +0.000 OA
ATOM      8  CA  UNL     1      -7.622   3.138 132.416  0.00  0.00    +0.000 C 
ATOM      9  H   UNL     1     -10.389   4.967 132.939  0.00  0.00    +0.000 HD
ENDROOT
BRANCH   4  10
ATOM     10  C   UNL     1     -10.646   5.444 130.436  0.00  0.00    +0.000 C 
ATOM     11  C   UNL     1     -11.489   6.288 131.395  0.00  0.00    +0.000 C 
ATOM     12  C   UNL     1     -12.027   7.362 130.536  0.00  0.00    +0.000 A 
ATOM     13  C   UNL     1     -12.937   8.336 130.902  0.00  0.00    +0.000 A 
ATOM     14  C   UNL     1     -13.231   9.311 129.960  0.00  0.00    +0.000 A 
ATOM     15  C   UNL     1     -12.565   9.329 128.723  0.00  0.00    +0.000 A 
ATOM     16  C   UNL     1     -11.571   8.399 128.420  0.00  0.00    +0.000 A 
ATOM     17  C   UNL     1     -11.316   7.414 129.339  0.00  0.00    +0.000 A 
ATOM     18  C   UNL     1     -10.243   6.384 129.285  0.00  0.00    +0.000 C 
ENDBRANCH   4  10
BRANCH   1  19
ATOM     19  C   UNL     1      -7.041   1.699 130.112  0.00  0.00    +0.000 C 
BRANCH  19  20
ATOM     20  C   UNL     1      -7.620   0.433 129.480  0.00  0.00    +0.000 C 
ATOM     21  O   UNL     1      -7.987   0.492 128.295  0.00  0.00    +0.000 OA
ATOM     22  N   UNL     1      -7.703  -0.754 130.130  0.00  0.00    +0.000 N 
ATOM     23  C   UNL     1      -7.859  -1.020 131.551  0.00  0.00    +0.000 C 
ATOM     24  C   UNL     1      -6.924  -2.166 131.884  0.00  0.00    +0.000 C 
ATOM     25  O   UNL     1      -7.160  -3.349 131.123  0.00  0.00    +0.000 OA
ATOM     26  C   UNL     1      -6.881  -3.033 129.743  0.00  0.00    +0.000 C 
ATOM     27  C   UNL     1      -7.841  -1.937 129.294  0.00  0.00    +0.000 C 
ENDBRANCH  19  20
BRANCH  19  32
ATOM     28  C   UNL     1      -2.446   3.344 126.894  0.00  0.00    +0.000 C 
ATOM     29  C   UNL     1      -3.765   3.103 127.570  0.00  0.00    +0.000 A 
ATOM     30  C   UNL     1      -3.696   2.341 128.651  0.00  0.00    +0.000 A 
ATOM     31  C   UNL     1      -4.885   1.770 129.108  0.00  0.00    +0.000 A 
ATOM     32  C   UNL     1      -6.100   2.277 129.027  0.00  0.00    +0.000 A 
ATOM     33  C   UNL     1      -6.108   3.154 127.981  0.00  0.00    +0.000 A 
ATOM     34  N   UNL     1      -4.991   3.514 127.192  0.00  0.00    +0.000 NA
ENDBRANCH  19  32
ENDBRANCH   1  19
BRANCH   8  35
ATOM     35  C   UNL     1      -7.268   2.032 133.460  0.00  0.00    +0.000 C 
BRANCH  35  36
ATOM     36  C   UNL     1      -5.535   1.671 133.583  0.00  0.00    +0.000 C 
ATOM     37  C   UNL     1      -4.494   0.687 132.647  0.00  0.00    +0.000 C 
ATOM     38  C   UNL     1      -4.316   2.157 132.723  0.00  0.00    +0.000 C 
ENDBRANCH  35  36
ENDBRANCH   8  35
TORSDOF 6
ENDMDL
MODEL 8
REMARK VINA RESULT:     -10.2      4.424      7.815
REMARK  Name = CHEMBL2037495
REMARK  7 active torsions:
REMARK  status: ('A' for Active; 'I' for Inactive)
REMARK    1  A    between atoms: C_1  and  C_2
REMARK    2  A    between atoms: C_5  and  C_6
REMARK    3  A    between atoms: C_6  and  C_7
REMARK    4  A    between atoms: C_6  and  N_15
REMARK    5  A    between atoms: CA_18  and  C_19
REMARK    6  A    between atoms: CA_31  and  C_32
REMARK    7  A    between atoms: C_32  and  C_33
REMARK                            x       y       z     vdW  Elec       q    Type
REMARK                         _______ _______ _______ _____ _____    ______ ____
ROOT
ATOM      1  N   UNL     1      -7.937   2.808 130.745  0.00  0.00    +0.000 N 
ATOM      2  C   UNL     1      -9.017   3.520 130.166  0.00  0.00    +0.000 C 
ATOM      3  O   UNL     1      -9.408   3.262 129.039  0.00  0.00    +0.000 OA
ATOM      4  CA  UNL     1      -9.488   4.816 130.969  0.00  0.00    +0.000 C 
ATOM      5  N   UNL     1      -9.747   4.405 132.322  0.00  0.00    +0.000 N 
ATOM      6  C   UNL     1      -8.861   3.653 133.031  0.00  0.00    +0.000 C 
ATOM      7  O   UNL     1      -9.006   3.536 134.212  0.00  0.00    +0.000 OA
ATOM      8  CA  UNL     1      -7.686   3.080 132.207  0.00  0.00    +0.000 C 
ATOM      9  H   UNL     1     -10.494   4.791 132.887  0.00  0.00    +0.000 HD
ENDROOT
BRANCH   4  10
ATOM     10  C   UNL     1     -10.747   5.506 130.440  0.00  0.00    +0.000 C 
ATOM     11  C   UNL     1     -11.567   6.308 131.454  0.00  0.00    +0.000 C 
ATOM     12  C   UNL     1     -12.120   7.421 130.657  0.00  0.00    +0.000 A 
ATOM     13  C   UNL     1     -13.018   8.379 131.087  0.00  0.00    +0.000 A 
ATOM     14  C   UNL     1     -13.331   9.396 130.197  0.00  0.00    +0.000 A 
ATOM     15  C   UNL     1     -12.692   9.468 128.947  0.00  0.00    +0.000 A 
ATOM     16  C   UNL     1     -11.708   8.551 128.581  0.00  0.00    +0.000 A 
ATOM     17  C   UNL     1     -11.436   7.524 129.448  0.00  0.00    +0.000 A 
ATOM     18  C   UNL     1     -10.368   6.496 129.324  0.00  0.00    +0.000 C 
ENDBRANCH   4  10
BRANCH   1  19
ATOM     19  C   UNL     1      -7.061   1.886 129.777  0.00  0.00    +0.000 C 
BRANCH  19  20
ATOM     20  C   UNL     1      -5.549   2.026 129.599  0.00  0.00    +0.000 C 
ATOM     21  O   UNL     1      -4.817   1.245 130.227  0.00  0.00    +0.000 OA
ATOM     22  N   UNL     1      -4.978   2.921 128.756  0.00  0.00    +0.000 N 
ATOM     23  C   UNL     1      -5.460   4.222 128.324  0.00  0.00    +0.000 C 
ATOM     24  C   UNL     1      -5.182   4.319 126.837  0.00  0.00    +0.000 C 
ATOM     25  O   UNL     1      -3.808   4.152 126.491  0.00  0.00    +0.000 OA
ATOM     26  C   UNL     1      -3.436   2.805 126.850  0.00  0.00    +0.000 C 
ATOM     27  C   UNL     1      -3.605   2.642 128.357  0.00  0.00    +0.000 C 
ENDBRANCH  19  20
BRANCH  19  32
ATOM     28  C   UNL     1      -8.232  -3.695 128.494  0.00  0.00    +0.000 C 
ATOM     29  C   UNL     1      -7.975  -2.338 129.083  0.00  0.00    +0.000 A 
ATOM     30  C   UNL     1      -7.855  -1.367 128.190  0.00  0.00    +0.000 A 
ATOM     31  C   UNL     1      -7.255  -0.180 128.614  0.00  0.00    +0.000 A 
ATOM     32  C   UNL     1      -7.307   0.359 129.817  0.00  0.00    +0.000 A 
ATOM     33  C   UNL     1      -7.557  -0.648 130.704  0.00  0.00    +0.000 A 
ATOM     34  N   UNL     1      -7.805  -2.000 130.377  0.00  0.00    +0.000 NA
ENDBRANCH  19  32
ENDBRANCH   1  19
BRANCH   8  35
ATOM     35  C   UNL     1      -7.313   1.884 133.140  0.00  0.00    +0.000 C 
BRANCH  35  36
ATOM     36  C   UNL     1      -5.631   1.894 133.706  0.00  0.00    +0.000 C 
ATOM     37  C   UNL     1      -4.289   2.880 133.311  0.00  0.00    +0.000 C 
ATOM     38  C   UNL     1      -4.874   2.869 134.674  0.00  0.00    +0.000 C 
ENDBRANCH  35  36
ENDBRANCH   8  35
TORSDOF 6
ENDMDL
MODEL 9
REMARK VINA RESULT:     -10.2      3.839      7.008
REMARK  Name = CHEMBL2037495
REMARK  7 active torsions:
REMARK  status: ('A' for Active; 'I' for Inactive)
REMARK    1  A    between atoms: C_1  and  C_2
REMARK    2  A    between atoms: C_5  and  C_6
REMARK    3  A    between atoms: C_6  and  C_7
REMARK    4  A    between atoms: C_6  and  N_15
REMARK    5  A    between atoms: CA_18  and  C_19
REMARK    6  A    between atoms: CA_31  and  C_32
REMARK    7  A    between atoms: C_32  and  C_33
REMARK                            x       y       z     vdW  Elec       q    Type
REMARK                         _______ _______ _______ _____ _____    ______ ____
ROOT
ATOM      1  N   UNL     1      -6.908   3.663 128.263  0.00  0.00    +0.000 N 
ATOM      2  C   UNL     1      -7.853   2.695 127.839  0.00  0.00    +0.000 C 
ATOM      3  O   UNL     1      -8.994   2.697 128.273  0.00  0.00    +0.000 OA
ATOM      4  CA  UNL     1      -7.255   1.487 126.986  0.00  0.00    +0.000 C 
ATOM      5  N   UNL     1      -6.514   2.063 125.897  0.00  0.00    +0.000 N 
ATOM      6  C   UNL     1      -5.605   3.058 126.088  0.00  0.00    +0.000 C 
ATOM      7  O   UNL     1      -4.850   3.340 125.205  0.00  0.00    +0.000 OA
ATOM      8  CA  UNL     1      -5.605   3.678 127.504  0.00  0.00    +0.000 C 
ATOM      9  H   UNL     1      -6.478   1.654 124.971  0.00  0.00    +0.000 HD
ENDROOT
BRANCH   4  10
ATOM     10  C   UNL     1      -8.282   0.519 126.392  0.00  0.00    +0.000 C 
ATOM     11  C   UNL     1      -8.368   0.463 124.865  0.00  0.00    +0.000 C 
ATOM     12  C   UNL     1      -8.716  -0.944 124.584  0.00  0.00    +0.000 A 
ATOM     13  C   UNL     1      -9.011  -1.492 123.350  0.00  0.00    +0.000 A 
ATOM     14  C   UNL     1      -9.215  -2.863 123.301  0.00  0.00    +0.000 A 
ATOM     15  C   UNL     1      -9.051  -3.649 124.456  0.00  0.00    +0.000 A 
ATOM     16  C   UNL     1      -8.646  -3.085 125.665  0.00  0.00    +0.000 A 
ATOM     17  C   UNL     1      -8.487  -1.724 125.715  0.00  0.00    +0.000 A 
ATOM     18  C   UNL     1      -7.968  -0.917 126.852  0.00  0.00    +0.000 C 
ENDBRANCH   4  10
BRANCH   1  19
ATOM     19  C   UNL     1      -7.285   4.548 129.539  0.00  0.00    +0.000 C 
BRANCH  19  20
ATOM     20  C   UNL     1      -8.487   4.277 130.444  0.00  0.00    +0.000 C 
ATOM     21  O   UNL     1      -8.421   3.310 131.220  0.00  0.00    +0.000 OA
ATOM     22  N   UNL     1      -9.590   5.064 130.475  0.00  0.00    +0.000 N 
ATOM     23  C   UNL     1     -10.177   5.875 129.420  0.00  0.00    +0.000 C 
ATOM     24  C   UNL     1     -10.578   7.191 130.055  0.00  0.00    +0.000 C 
ATOM     25  O   UNL     1     -11.484   7.057 131.148  0.00  0.00    +0.000 OA
ATOM     26  C   UNL     1     -10.793   6.339 132.192  0.00  0.00    +0.000 C 
ATOM     27  C   UNL     1     -10.424   4.957 131.664  0.00  0.00    +0.000 C 
ENDBRANCH  19  20
BRANCH  19  32
ATOM     28  C   UNL     1      -3.202   7.341 132.652  0.00  0.00    +0.000 C 
ATOM     29  C   UNL     1      -4.118   6.396 131.929  0.00  0.00    +0.000 A 
ATOM     30  C   UNL     1      -4.989   6.987 131.124  0.00  0.00    +0.000 A 
ATOM     31  C   UNL     1      -6.093   6.236 130.718  0.00  0.00    +0.000 A 
ATOM     32  C   UNL     1      -6.146   4.934 130.513  0.00  0.00    +0.000 A 
ATOM     33  C   UNL     1      -5.156   4.363 131.258  0.00  0.00    +0.000 A 
ATOM     34  N   UNL     1      -4.197   5.055 132.033  0.00  0.00    +0.000 NA
ENDBRANCH  19  32
ENDBRANCH   1  19
BRANCH   8  35
ATOM     35  C   UNL     1      -4.958   5.055 127.152  0.00  0.00    +0.000 C 
BRANCH  35  36
ATOM     36  C   UNL     1      -3.243   5.190 127.587  0.00  0.00    +0.000 C 
ATOM     37  C   UNL     1      -2.361   6.386 128.436  0.00  0.00    +0.000 C 
ATOM     38  C   UNL     1      -2.510   5.008 128.962  0.00  0.00    +0.000 C 
ENDBRANCH  35  36
ENDBRANCH   8  35
TORSDOF 6
ENDMDL
