MODEL 1
REMARK VINA RESULT:      -8.9      0.000      0.000
REMARK  Name = CHEMBL1643589
REMARK  12 active torsions:
REMARK  status: ('A' for Active; 'I' for Inactive)
REMARK    1  A    between atoms: C_1  and  O_2
REMARK    2  A    between atoms: O_2  and  C_3
REMARK    3  A    between atoms: C_6  and  S_7
REMARK    4  A    between atoms: S_7  and  N_10
REMARK    5  A    between atoms: N_10  and  C_11
REMARK    6  A    between atoms: N_10  and  C_32
REMARK    7  A    between atoms: C_11  and  C_12
REMARK    8  A    between atoms: C_15  and  C_16
REMARK    9  A    between atoms: C_19  and  C_20
REMARK   10  A    between atoms: C_20  and  N_21
REMARK   11  A    between atoms: N_21  and  C_22
REMARK   12  A    between atoms: C_22  and  C_23
REMARK                            x       y       z     vdW  Elec       q    Type
REMARK                         _______ _______ _______ _____ _____    ______ ____
ROOT
ATOM      1  C   UNL     1      -6.885   0.865 127.374  0.00  0.00    +0.000 A 
ATOM      2  C   UNL     1      -5.540   0.626 127.359  0.00  0.00    +0.000 A 
ATOM      3  S   UNL     1      -4.777   1.646 128.787  0.00  0.00    +0.000 S 
ATOM      4  C   UNL     1      -6.501   2.626 129.043  0.00  0.00    +0.000 A 
ATOM      5  N   UNL     1      -7.142   1.616 128.451  0.00  0.00    +0.000 NA
ENDROOT
BRANCH   4   6
ATOM      6  C   UNL     1      -7.156   3.520 130.540  0.00  0.00    +0.000 A 
ATOM      7  C   UNL     1      -8.257   3.005 131.200  0.00  0.00    +0.000 A 
ATOM      8  C   UNL     1      -9.238   3.889 131.988  0.00  0.00    +0.000 A 
ATOM      9  C   UNL     1      -9.232   5.354 132.104  0.00  0.00    +0.000 A 
ATOM     10  C   UNL     1      -8.128   5.948 131.552  0.00  0.00    +0.000 A 
ATOM     11  C   UNL     1      -7.083   5.078 130.998  0.00  0.00    +0.000 A 
BRANCH   9  12
ATOM     12  C   UNL     1     -10.449   6.230 132.459  0.00  0.00    +0.000 C 
BRANCH  12  13
ATOM     13  N   UNL     1     -11.729   5.795 131.852  0.00  0.00    +0.000 NA
ATOM     14  H   UNL     1     -12.467   6.501 131.914  0.00  0.00    +0.000 HD
BRANCH  13  15
ATOM     15  C   UNL     1     -11.506   5.432 130.462  0.00  0.00    +0.000 C 
BRANCH  15  16
ATOM     16  C   UNL     1     -11.682   6.658 129.568  0.00  0.00    +0.000 C 
ATOM     17  C   UNL     1     -10.453   6.793 128.665  0.00  0.00    +0.000 C 
ATOM     18  C   UNL     1     -10.624   7.908 127.648  0.00  0.00    +0.000 C 
ATOM     19  C   UNL     1     -11.905   7.725 126.841  0.00  0.00    +0.000 C 
ATOM     20  C   UNL     1     -13.124   7.634 127.752  0.00  0.00    +0.000 C 
ATOM     21  C   UNL     1     -12.969   6.504 128.753  0.00  0.00    +0.000 C 
ENDBRANCH  15  16
ENDBRANCH  13  15
ENDBRANCH  12  13
ENDBRANCH   9  12
ENDBRANCH   4   6
BRANCH   1  22
ATOM     22  C   UNL     1      -8.089   0.328 126.610  0.00  0.00    +0.000 C 
BRANCH  22  23
ATOM     23  N   UNL     1      -8.090   0.390 125.047  0.00  0.00    +0.000 NA
BRANCH  23  24
ATOM     24  C   UNL     1      -8.908  -0.827 124.517  0.00  0.00    +0.000 C 
ATOM     25  C   UNL     1      -8.293  -1.502 123.288  0.00  0.00    +0.000 C 
ATOM     26  C   UNL     1      -9.004  -2.853 123.202  0.00  0.00    +0.000 C 
ATOM     27  C   UNL     1      -9.351  -3.232 124.635  0.00  0.00    +0.000 C 
ATOM     28  C   UNL     1      -8.990  -2.019 125.481  0.00  0.00    +0.000 C 
ENDBRANCH  23  24
BRANCH  23  29
ATOM     29  S   UNL     1      -8.883   1.868 124.338  0.00  0.00    +0.000 S 
ATOM     30  O   UNL     1      -8.731   2.889 125.280  0.00  0.00    +0.000 OA
ATOM     31  O   UNL     1     -10.247   1.406 123.904  0.00  0.00    +0.000 OA
BRANCH  29  35
ATOM     32  C   UNL     1      -6.397   4.123 120.912  0.00  0.00    +0.000 A 
ATOM     33  C   UNL     1      -7.729   3.824 120.761  0.00  0.00    +0.000 A 
ATOM     34  C   UNL     1      -8.600   3.180 121.814  0.00  0.00    +0.000 A 
ATOM     35  C   UNL     1      -8.134   2.449 122.874  0.00  0.00    +0.000 A 
ATOM     36  C   UNL     1      -6.853   2.342 122.722  0.00  0.00    +0.000 A 
ATOM     37  C   UNL     1      -6.039   3.457 122.012  0.00  0.00    +0.000 A 
BRANCH  32  39
ATOM     38  C   UNL     1      -5.922   5.462 118.889  0.00  0.00    +0.000 C 
ATOM     39  O   UNL     1      -5.465   4.685 120.044  0.00  0.00    +0.000 OA
ENDBRANCH  32  39
ENDBRANCH  29  35
ENDBRANCH  23  29
ENDBRANCH  22  23
ENDBRANCH   1  22
TORSDOF 11
ENDMDL
MODEL 2
REMARK VINA RESULT:      -8.9      3.228      6.548
REMARK  Name = CHEMBL1643589
REMARK  12 active torsions:
REMARK  status: ('A' for Active; 'I' for Inactive)
REMARK    1  A    between atoms: C_1  and  O_2
REMARK    2  A    between atoms: O_2  and  C_3
REMARK    3  A    between atoms: C_6  and  S_7
REMARK    4  A    between atoms: S_7  and  N_10
REMARK    5  A    between atoms: N_10  and  C_11
REMARK    6  A    between atoms: N_10  and  C_32
REMARK    7  A    between atoms: C_11  and  C_12
REMARK    8  A    between atoms: C_15  and  C_16
REMARK    9  A    between atoms: C_19  and  C_20
REMARK   10  A    between atoms: C_20  and  N_21
REMARK   11  A    between atoms: N_21  and  C_22
REMARK   12  A    between atoms: C_22  and  C_23
REMARK                            x       y       z     vdW  Elec       q    Type
REMARK                         _______ _______ _______ _____ _____    ______ ____
ROOT
ATOM      1  C   UNL     1      -9.317  -0.339 123.339  0.00  0.00    +0.000 A 
ATOM      2  C   UNL     1      -9.793  -1.277 122.467  0.00  0.00    +0.000 A 
ATOM      3  S   UNL     1      -9.385  -2.990 123.216  0.00  0.00    +0.000 S 
ATOM      4  C   UNL     1      -8.209  -2.139 124.590  0.00  0.00    +0.000 A 
ATOM      5  N   UNL     1      -8.868  -0.992 124.417  0.00  0.00    +0.000 NA
ENDROOT
BRANCH   4   6
ATOM      6  C   UNL     1      -7.669  -2.770 126.258  0.00  0.00    +0.000 A 
ATOM      7  C   UNL     1      -8.570  -3.482 127.030  0.00  0.00    +0.000 A 
ATOM      8  C   UNL     1      -8.505  -3.508 128.565  0.00  0.00    +0.000 A 
ATOM      9  C   UNL     1      -7.588  -2.763 129.438  0.00  0.00    +0.000 A 
ATOM     10  C   UNL     1      -6.601  -2.094 128.762  0.00  0.00    +0.000 A 
ATOM     11  C   UNL     1      -6.536  -2.257 127.304  0.00  0.00    +0.000 A 
BRANCH   9  12
ATOM     12  C   UNL     1      -7.841  -2.416 130.917  0.00  0.00    +0.000 C 
BRANCH  12  13
ATOM     13  N   UNL     1      -7.404  -1.060 131.324  0.00  0.00    +0.000 NA
ATOM     14  H   UNL     1      -7.038  -0.502 130.548  0.00  0.00    +0.000 HD
BRANCH  13  15
ATOM     15  C   UNL     1      -8.512  -0.364 131.956  0.00  0.00    +0.000 C 
BRANCH  15  16
ATOM     16  C   UNL     1      -8.496   1.111 131.559  0.00  0.00    +0.000 C 
ATOM     17  C   UNL     1      -8.429   1.212 130.032  0.00  0.00    +0.000 C 
ATOM     18  C   UNL     1      -8.556   2.650 129.560  0.00  0.00    +0.000 C 
ATOM     19  C   UNL     1      -9.816   3.304 130.117  0.00  0.00    +0.000 C 
ATOM     20  C   UNL     1      -9.847   3.231 131.640  0.00  0.00    +0.000 C 
ATOM     21  C   UNL     1      -9.748   1.793 132.116  0.00  0.00    +0.000 C 
ENDBRANCH  15  16
ENDBRANCH  13  15
ENDBRANCH  12  13
ENDBRANCH   9  12
ENDBRANCH   4   6
BRANCH   1  22
ATOM     22  C   UNL     1      -9.376   1.180 123.433  0.00  0.00    +0.000 C 
BRANCH  22  23
ATOM     23  N   UNL     1      -8.093   1.968 123.860  0.00  0.00    +0.000 NA
BRANCH  23  24
ATOM     24  C   UNL     1      -7.852   3.101 122.815  0.00  0.00    +0.000 C 
ATOM     25  C   UNL     1      -6.505   3.006 122.096  0.00  0.00    +0.000 C 
ATOM     26  C   UNL     1      -6.657   3.926 120.884  0.00  0.00    +0.000 C 
ATOM     27  C   UNL     1      -8.133   3.886 120.514  0.00  0.00    +0.000 C 
ATOM     28  C   UNL     1      -8.813   3.089 121.618  0.00  0.00    +0.000 C 
ENDBRANCH  23  24
BRANCH  23  29
ATOM     29  S   UNL     1      -8.207   2.801 125.477  0.00  0.00    +0.000 S 
ATOM     30  O   UNL     1      -8.958   1.959 126.302  0.00  0.00    +0.000 OA
ATOM     31  O   UNL     1      -8.668   4.197 125.162  0.00  0.00    +0.000 OA
BRANCH  29  35
ATOM     32  C   UNL     1      -3.623   3.359 126.769  0.00  0.00    +0.000 A 
ATOM     33  C   UNL     1      -4.450   2.468 127.408  0.00  0.00    +0.000 A 
ATOM     34  C   UNL     1      -5.883   2.182 127.021  0.00  0.00    +0.000 A 
ATOM     35  C   UNL     1      -6.674   3.018 126.279  0.00  0.00    +0.000 A 
ATOM     36  C   UNL     1      -5.997   4.104 126.085  0.00  0.00    +0.000 A 
ATOM     37  C   UNL     1      -4.447   4.070 125.996  0.00  0.00    +0.000 A 
BRANCH  32  39
ATOM     38  C   UNL     1      -1.206   2.848 126.661  0.00  0.00    +0.000 C 
ATOM     39  O   UNL     1      -2.308   3.748 127.013  0.00  0.00    +0.000 OA
ENDBRANCH  32  39
ENDBRANCH  29  35
ENDBRANCH  23  29
ENDBRANCH  22  23
ENDBRANCH   1  22
TORSDOF 11
ENDMDL
MODEL 3
REMARK VINA RESULT:      -8.8      3.116      4.715
REMARK  Name = CHEMBL1643589
REMARK  12 active torsions:
REMARK  status: ('A' for Active; 'I' for Inactive)
REMARK    1  A    between atoms: C_1  and  O_2
REMARK    2  A    between atoms: O_2  and  C_3
REMARK    3  A    between atoms: C_6  and  S_7
REMARK    4  A    between atoms: S_7  and  N_10
REMARK    5  A    between atoms: N_10  and  C_11
REMARK    6  A    between atoms: N_10  and  C_32
REMARK    7  A    between atoms: C_11  and  C_12
REMARK    8  A    between atoms: C_15  and  C_16
REMARK    9  A    between atoms: C_19  and  C_20
REMARK   10  A    between atoms: C_20  and  N_21
REMARK   11  A    between atoms: N_21  and  C_22
REMARK   12  A    between atoms: C_22  and  C_23
REMARK                            x       y       z     vdW  Elec       q    Type
REMARK                         _______ _______ _______ _____ _____    ______ ____
ROOT
ATOM      1  C   UNL     1      -7.541   0.306 127.481  0.00  0.00    +0.000 A 
ATOM      2  C   UNL     1      -7.266  -0.317 128.666  0.00  0.00    +0.000 A 
ATOM      3  S   UNL     1      -5.652   0.460 129.340  0.00  0.00    +0.000 S 
ATOM      4  C   UNL     1      -5.340   1.389 127.599  0.00  0.00    +0.000 A 
ATOM      5  N   UNL     1      -6.643   1.286 127.331  0.00  0.00    +0.000 NA
ENDROOT
BRANCH   4   6
ATOM      6  C   UNL     1      -4.332   2.910 127.219  0.00  0.00    +0.000 A 
ATOM      7  C   UNL     1      -2.992   2.929 127.561  0.00  0.00    +0.000 A 
ATOM      8  C   UNL     1      -2.239   4.229 127.885  0.00  0.00    +0.000 A 
ATOM      9  C   UNL     1      -2.790   5.588 127.969  0.00  0.00    +0.000 A 
ATOM     10  C   UNL     1      -4.095   5.683 127.563  0.00  0.00    +0.000 A 
ATOM     11  C   UNL     1      -4.741   4.472 127.040  0.00  0.00    +0.000 A 
BRANCH   9  12
ATOM     12  C   UNL     1      -2.168   6.761 128.751  0.00  0.00    +0.000 C 
BRANCH  12  13
ATOM     13  N   UNL     1      -2.173   6.601 130.224  0.00  0.00    +0.000 NA
ATOM     14  H   UNL     1      -1.283   6.852 130.663  0.00  0.00    +0.000 HD
BRANCH  13  15
ATOM     15  C   UNL     1      -3.248   7.397 130.793  0.00  0.00    +0.000 C 
BRANCH  15  16
ATOM     16  C   UNL     1      -4.433   6.499 131.143  0.00  0.00    +0.000 C 
ATOM     17  C   UNL     1      -4.386   6.178 132.640  0.00  0.00    +0.000 C 
ATOM     18  C   UNL     1      -5.617   5.407 133.086  0.00  0.00    +0.000 C 
ATOM     19  C   UNL     1      -6.896   6.142 132.703  0.00  0.00    +0.000 C 
ATOM     20  C   UNL     1      -6.947   6.418 131.205  0.00  0.00    +0.000 C 
ATOM     21  C   UNL     1      -5.732   7.211 130.758  0.00  0.00    +0.000 C 
ENDBRANCH  15  16
ENDBRANCH  13  15
ENDBRANCH  12  13
ENDBRANCH   9  12
ENDBRANCH   4   6
BRANCH   1  22
ATOM     22  C   UNL     1      -8.686   0.265 126.477  0.00  0.00    +0.000 C 
BRANCH  22  23
ATOM     23  N   UNL     1      -8.372   0.434 124.954  0.00  0.00    +0.000 NA
BRANCH  23  24
ATOM     24  C   UNL     1      -8.966  -0.795 124.200  0.00  0.00    +0.000 C 
ATOM     25  C   UNL     1      -8.062  -1.342 123.093  0.00  0.00    +0.000 C 
ATOM     26  C   UNL     1      -8.631  -2.728 122.788  0.00  0.00    +0.000 C 
ATOM     27  C   UNL     1      -9.234  -3.226 124.094  0.00  0.00    +0.000 C 
ATOM     28  C   UNL     1      -9.150  -2.053 125.060  0.00  0.00    +0.000 C 
ENDBRANCH  23  24
BRANCH  23  29
ATOM     29  S   UNL     1      -9.117   1.902 124.175  0.00  0.00    +0.000 S 
ATOM     30  O   UNL     1      -9.031   2.934 125.114  0.00  0.00    +0.000 OA
ATOM     31  O   UNL     1     -10.447   1.432 123.654  0.00  0.00    +0.000 OA
BRANCH  29  35
ATOM     32  C   UNL     1      -6.372   4.095 120.910  0.00  0.00    +0.000 A 
ATOM     33  C   UNL     1      -7.704   3.844 120.684  0.00  0.00    +0.000 A 
ATOM     34  C   UNL     1      -8.652   3.222 121.683  0.00  0.00    +0.000 A 
ATOM     35  C   UNL     1      -8.269   2.468 122.759  0.00  0.00    +0.000 A 
ATOM     36  C   UNL     1      -6.986   2.317 122.676  0.00  0.00    +0.000 A 
ATOM     37  C   UNL     1      -6.098   3.409 122.022  0.00  0.00    +0.000 A 
BRANCH  32  39
ATOM     38  C   UNL     1      -5.739   5.512 118.985  0.00  0.00    +0.000 C 
ATOM     39  O   UNL     1      -5.375   4.631 120.099  0.00  0.00    +0.000 OA
ENDBRANCH  32  39
ENDBRANCH  29  35
ENDBRANCH  23  29
ENDBRANCH  22  23
ENDBRANCH   1  22
TORSDOF 11
ENDMDL
MODEL 4
REMARK VINA RESULT:      -8.8      1.968      3.544
REMARK  Name = CHEMBL1643589
REMARK  12 active torsions:
REMARK  status: ('A' for Active; 'I' for Inactive)
REMARK    1  A    between atoms: C_1  and  O_2
REMARK    2  A    between atoms: O_2  and  C_3
REMARK    3  A    between atoms: C_6  and  S_7
REMARK    4  A    between atoms: S_7  and  N_10
REMARK    5  A    between atoms: N_10  and  C_11
REMARK    6  A    between atoms: N_10  and  C_32
REMARK    7  A    between atoms: C_11  and  C_12
REMARK    8  A    between atoms: C_15  and  C_16
REMARK    9  A    between atoms: C_19  and  C_20
REMARK   10  A    between atoms: C_20  and  N_21
REMARK   11  A    between atoms: N_21  and  C_22
REMARK   12  A    between atoms: C_22  and  C_23
REMARK                            x       y       z     vdW  Elec       q    Type
REMARK                         _______ _______ _______ _____ _____    ______ ____
ROOT
ATOM      1  C   UNL     1      -6.392   1.232 127.019  0.00  0.00    +0.000 A 
ATOM      2  C   UNL     1      -5.028   1.225 127.103  0.00  0.00    +0.000 A 
ATOM      3  S   UNL     1      -4.522   2.798 128.068  0.00  0.00    +0.000 S 
ATOM      4  C   UNL     1      -6.385   3.511 127.935  0.00  0.00    +0.000 A 
ATOM      5  N   UNL     1      -6.828   2.266 127.746  0.00  0.00    +0.000 NA
ENDROOT
BRANCH   4   6
ATOM      6  C   UNL     1      -7.264   4.763 128.999  0.00  0.00    +0.000 A 
ATOM      7  C   UNL     1      -6.570   5.373 130.029  0.00  0.00    +0.000 A 
ATOM      8  C   UNL     1      -7.263   5.895 131.297  0.00  0.00    +0.000 A 
ATOM      9  C   UNL     1      -8.682   5.773 131.661  0.00  0.00    +0.000 A 
ATOM     10  C   UNL     1      -9.466   5.257 130.663  0.00  0.00    +0.000 A 
ATOM     11  C   UNL     1      -8.833   4.969 129.370  0.00  0.00    +0.000 A 
BRANCH   9  12
ATOM     12  C   UNL     1      -9.250   5.846 133.091  0.00  0.00    +0.000 C 
BRANCH  12  13
ATOM     13  N   UNL     1      -9.644   4.542 133.673  0.00  0.00    +0.000 NA
ATOM     14  H   UNL     1     -10.192   3.961 133.033  0.00  0.00    +0.000 HD
BRANCH  13  15
ATOM     15  C   UNL     1      -8.455   3.823 134.098  0.00  0.00    +0.000 C 
BRANCH  15  16
ATOM     16  C   UNL     1      -8.343   2.503 133.339  0.00  0.00    +0.000 C 
ATOM     17  C   UNL     1      -9.657   2.247 132.594  0.00  0.00    +0.000 C 
ATOM     18  C   UNL     1      -9.566   1.022 131.701  0.00  0.00    +0.000 C 
ATOM     19  C   UNL     1      -8.381   1.124 130.745  0.00  0.00    +0.000 C 
ATOM     20  C   UNL     1      -7.077   1.336 131.505  0.00  0.00    +0.000 C 
ATOM     21  C   UNL     1      -7.153   2.575 132.379  0.00  0.00    +0.000 C 
ENDBRANCH  15  16
ENDBRANCH  13  15
ENDBRANCH  12  13
ENDBRANCH   9  12
ENDBRANCH   4   6
BRANCH   1  22
ATOM     22  C   UNL     1      -7.450   0.270 126.493  0.00  0.00    +0.000 C 
BRANCH  22  23
ATOM     23  N   UNL     1      -7.687   0.166 124.950  0.00  0.00    +0.000 NA
BRANCH  23  24
ATOM     24  C   UNL     1      -8.547  -1.107 124.679  0.00  0.00    +0.000 C 
ATOM     25  C   UNL     1      -7.761  -2.268 124.066  0.00  0.00    +0.000 C 
ATOM     26  C   UNL     1      -8.666  -3.485 124.265  0.00  0.00    +0.000 C 
ATOM     27  C   UNL     1      -9.456  -3.211 125.538  0.00  0.00    +0.000 C 
ATOM     28  C   UNL     1      -9.114  -1.782 125.935  0.00  0.00    +0.000 C 
ENDBRANCH  23  24
BRANCH  23  29
ATOM     29  S   UNL     1      -8.613   1.555 124.221  0.00  0.00    +0.000 S 
ATOM     30  O   UNL     1      -9.325   2.147 125.268  0.00  0.00    +0.000 OA
ATOM     31  O   UNL     1      -9.322   0.967 123.032  0.00  0.00    +0.000 OA
BRANCH  29  35
ATOM     32  C   UNL     1      -5.545   4.304 121.766  0.00  0.00    +0.000 A 
ATOM     33  C   UNL     1      -5.576   4.304 123.139  0.00  0.00    +0.000 A 
ATOM     34  C   UNL     1      -6.460   3.420 123.988  0.00  0.00    +0.000 A 
ATOM     35  C   UNL     1      -7.607   2.813 123.552  0.00  0.00    +0.000 A 
ATOM     36  C   UNL     1      -7.818   3.229 122.345  0.00  0.00    +0.000 A 
ATOM     37  C   UNL     1      -6.635   3.615 121.418  0.00  0.00    +0.000 A 
BRANCH  32  39
ATOM     38  C   UNL     1      -5.435   5.464 119.585  0.00  0.00    +0.000 C 
ATOM     39  O   UNL     1      -4.817   5.061 120.851  0.00  0.00    +0.000 OA
ENDBRANCH  32  39
ENDBRANCH  29  35
ENDBRANCH  23  29
ENDBRANCH  22  23
ENDBRANCH   1  22
TORSDOF 11
ENDMDL
MODEL 5
REMARK VINA RESULT:      -8.8      3.729      9.191
REMARK  Name = CHEMBL1643589
REMARK  12 active torsions:
REMARK  status: ('A' for Active; 'I' for Inactive)
REMARK    1  A    between atoms: C_1  and  O_2
REMARK    2  A    between atoms: O_2  and  C_3
REMARK    3  A    between atoms: C_6  and  S_7
REMARK    4  A    between atoms: S_7  and  N_10
REMARK    5  A    between atoms: N_10  and  C_11
REMARK    6  A    between atoms: N_10  and  C_32
REMARK    7  A    between atoms: C_11  and  C_12
REMARK    8  A    between atoms: C_15  and  C_16
REMARK    9  A    between atoms: C_19  and  C_20
REMARK   10  A    between atoms: C_20  and  N_21
REMARK   11  A    between atoms: N_21  and  C_22
REMARK   12  A    between atoms: C_22  and  C_23
REMARK                            x       y       z     vdW  Elec       q    Type
REMARK                         _______ _______ _______ _____ _____    ______ ____
ROOT
ATOM      1  C   UNL     1      -4.584   4.310 130.067  0.00  0.00    +0.000 A 
ATOM      2  C   UNL     1      -3.419   4.945 129.745  0.00  0.00    +0.000 A 
ATOM      3  S   UNL     1      -2.901   4.313 128.014  0.00  0.00    +0.000 S 
ATOM      4  C   UNL     1      -4.289   2.877 128.094  0.00  0.00    +0.000 A 
ATOM      5  N   UNL     1      -4.956   3.597 128.997  0.00  0.00    +0.000 NA
ENDROOT
BRANCH   4   6
ATOM      6  C   UNL     1      -5.117   1.938 126.715  0.00  0.00    +0.000 A 
ATOM      7  C   UNL     1      -5.563   2.632 125.604  0.00  0.00    +0.000 A 
ATOM      8  C   UNL     1      -6.746   2.151 124.748  0.00  0.00    +0.000 A 
ATOM      9  C   UNL     1      -7.614   0.990 124.987  0.00  0.00    +0.000 A 
ATOM     10  C   UNL     1      -7.198   0.191 126.019  0.00  0.00    +0.000 A 
ATOM     11  C   UNL     1      -5.938   0.535 126.690  0.00  0.00    +0.000 A 
BRANCH   9  12
ATOM     12  C   UNL     1      -9.042   0.810 124.436  0.00  0.00    +0.000 C 
BRANCH  12  13
ATOM     13  N   UNL     1      -9.439  -0.595 124.182  0.00  0.00    +0.000 NA
ATOM     14  H   UNL     1     -10.443  -0.759 124.296  0.00  0.00    +0.000 HD
BRANCH  13  15
ATOM     15  C   UNL     1      -9.023  -0.980 122.844  0.00  0.00    +0.000 C 
BRANCH  15  16
ATOM     16  C   UNL     1      -8.022  -2.132 122.920  0.00  0.00    +0.000 C 
ATOM     17  C   UNL     1      -6.608  -1.571 122.742  0.00  0.00    +0.000 C 
ATOM     18  C   UNL     1      -5.551  -2.642 122.951  0.00  0.00    +0.000 C 
ATOM     19  C   UNL     1      -5.724  -3.331 124.300  0.00  0.00    +0.000 C 
ATOM     20  C   UNL     1      -7.123  -3.919 124.445  0.00  0.00    +0.000 C 
ATOM     21  C   UNL     1      -8.183  -2.847 124.263  0.00  0.00    +0.000 C 
ENDBRANCH  15  16
ENDBRANCH  13  15
ENDBRANCH  12  13
ENDBRANCH   9  12
ENDBRANCH   4   6
BRANCH   1  22
ATOM     22  C   UNL     1      -5.584   4.397 131.213  0.00  0.00    +0.000 C 
BRANCH  22  23
ATOM     23  N   UNL     1      -7.103   4.587 130.888  0.00  0.00    +0.000 NA
BRANCH  23  24
ATOM     24  C   UNL     1      -7.905   3.512 131.683  0.00  0.00    +0.000 C 
ATOM     25  C   UNL     1      -9.025   2.850 130.878  0.00  0.00    +0.000 C 
ATOM     26  C   UNL     1      -9.385   1.601 131.683  0.00  0.00    +0.000 C 
ATOM     27  C   UNL     1      -8.101   1.174 132.382  0.00  0.00    +0.000 C 
ATOM     28  C   UNL     1      -7.092   2.279 132.101  0.00  0.00    +0.000 C 
ENDBRANCH  23  24
BRANCH  23  29
ATOM     29  S   UNL     1      -7.799   6.195 131.386  0.00  0.00    +0.000 S 
ATOM     30  O   UNL     1      -7.014   7.173 130.769  0.00  0.00    +0.000 OA
ATOM     31  O   UNL     1      -7.915   6.120 132.884  0.00  0.00    +0.000 OA
BRANCH  29  35
ATOM     32  C   UNL     1     -12.011   7.895 129.847  0.00  0.00    +0.000 A 
ATOM     33  C   UNL     1     -11.929   6.998 130.883  0.00  0.00    +0.000 A 
ATOM     34  C   UNL     1     -10.643   6.467 131.473  0.00  0.00    +0.000 A 
ATOM     35  C   UNL     1      -9.431   6.469 130.836  0.00  0.00    +0.000 A 
ATOM     36  C   UNL     1      -9.638   6.902 129.634  0.00  0.00    +0.000 A 
ATOM     37  C   UNL     1     -10.776   7.917 129.339  0.00  0.00    +0.000 A 
BRANCH  32  39
ATOM     38  C   UNL     1     -13.619   7.817 127.970  0.00  0.00    +0.000 C 
ATOM     39  O   UNL     1     -13.100   8.455 129.183  0.00  0.00    +0.000 OA
ENDBRANCH  32  39
ENDBRANCH  29  35
ENDBRANCH  23  29
ENDBRANCH  22  23
ENDBRANCH   1  22
TORSDOF 11
ENDMDL
MODEL 6
REMARK VINA RESULT:      -8.8      3.781      8.943
REMARK  Name = CHEMBL1643589
REMARK  12 active torsions:
REMARK  status: ('A' for Active; 'I' for Inactive)
REMARK    1  A    between atoms: C_1  and  O_2
REMARK    2  A    between atoms: O_2  and  C_3
REMARK    3  A    between atoms: C_6  and  S_7
REMARK    4  A    between atoms: S_7  and  N_10
REMARK    5  A    between atoms: N_10  and  C_11
REMARK    6  A    between atoms: N_10  and  C_32
REMARK    7  A    between atoms: C_11  and  C_12
REMARK    8  A    between atoms: C_15  and  C_16
REMARK    9  A    between atoms: C_19  and  C_20
REMARK   10  A    between atoms: C_20  and  N_21
REMARK   11  A    between atoms: N_21  and  C_22
REMARK   12  A    between atoms: C_22  and  C_23
REMARK                            x       y       z     vdW  Elec       q    Type
REMARK                         _______ _______ _______ _____ _____    ______ ____
ROOT
ATOM      1  C   UNL     1      -5.184   0.442 129.776  0.00  0.00    +0.000 A 
ATOM      2  C   UNL     1      -4.714   1.656 130.193  0.00  0.00    +0.000 A 
ATOM      3  S   UNL     1      -5.255   2.941 128.882  0.00  0.00    +0.000 S 
ATOM      4  C   UNL     1      -5.819   1.478 127.642  0.00  0.00    +0.000 A 
ATOM      5  N   UNL     1      -5.932   0.659 128.689  0.00  0.00    +0.000 NA
ENDROOT
BRANCH   4   6
ATOM      6  C   UNL     1      -7.032   1.511 126.229  0.00  0.00    +0.000 A 
ATOM      7  C   UNL     1      -8.308   1.016 126.428  0.00  0.00    +0.000 A 
ATOM      8  C   UNL     1      -9.152   0.419 125.290  0.00  0.00    +0.000 A 
ATOM      9  C   UNL     1      -8.751   0.203 123.894  0.00  0.00    +0.000 A 
ATOM     10  C   UNL     1      -7.530   0.741 123.578  0.00  0.00    +0.000 A 
ATOM     11  C   UNL     1      -6.828   1.507 124.616  0.00  0.00    +0.000 A 
BRANCH   9  12
ATOM     12  C   UNL     1      -9.389  -0.810 122.924  0.00  0.00    +0.000 C 
BRANCH  12  13
ATOM     13  N   UNL     1      -9.629  -2.155 123.496  0.00  0.00    +0.000 NA
ATOM     14  H   UNL     1     -10.368  -2.675 123.013  0.00  0.00    +0.000 HD
BRANCH  13  15
ATOM     15  C   UNL     1      -8.392  -2.917 123.474  0.00  0.00    +0.000 C 
BRANCH  15  16
ATOM     16  C   UNL     1      -7.960  -3.250 124.901  0.00  0.00    +0.000 C 
ATOM     17  C   UNL     1      -6.830  -2.301 125.311  0.00  0.00    +0.000 C 
ATOM     18  C   UNL     1      -6.449  -2.480 126.770  0.00  0.00    +0.000 C 
ATOM     19  C   UNL     1      -7.667  -2.341 127.679  0.00  0.00    +0.000 C 
ATOM     20  C   UNL     1      -8.765  -3.321 127.284  0.00  0.00    +0.000 C 
ATOM     21  C   UNL     1      -9.168  -3.127 125.833  0.00  0.00    +0.000 C 
ENDBRANCH  15  16
ENDBRANCH  13  15
ENDBRANCH  12  13
ENDBRANCH   9  12
ENDBRANCH   4   6
BRANCH   1  22
ATOM     22  C   UNL     1      -5.212  -0.966 130.358  0.00  0.00    +0.000 C 
BRANCH  22  23
ATOM     23  N   UNL     1      -6.541  -1.507 130.980  0.00  0.00    +0.000 NA
BRANCH  23  24
ATOM     24  C   UNL     1      -6.272  -2.948 131.515  0.00  0.00    +0.000 C 
ATOM     25  C   UNL     1      -6.168  -4.009 130.417  0.00  0.00    +0.000 C 
ATOM     26  C   UNL     1      -5.519  -5.208 131.109  0.00  0.00    +0.000 C 
ATOM     27  C   UNL     1      -4.628  -4.627 132.198  0.00  0.00    +0.000 C 
ATOM     28  C   UNL     1      -4.920  -3.133 132.216  0.00  0.00    +0.000 C 
ENDBRANCH  23  24
BRANCH  23  29
ATOM     29  S   UNL     1      -7.164  -0.558 132.405  0.00  0.00    +0.000 S 
ATOM     30  O   UNL     1      -6.046   0.022 133.012  0.00  0.00    +0.000 OA
ATOM     31  O   UNL     1      -8.048  -1.517 133.154  0.00  0.00    +0.000 OA
BRANCH  29  35
ATOM     32  C   UNL     1      -9.341   3.318 130.605  0.00  0.00    +0.000 A 
ATOM     33  C   UNL     1      -9.277   3.088 131.957  0.00  0.00    +0.000 A 
ATOM     34  C   UNL     1      -8.553   1.932 132.608  0.00  0.00    +0.000 A 
ATOM     35  C   UNL     1      -8.219   0.764 131.977  0.00  0.00    +0.000 A 
ATOM     36  C   UNL     1      -8.731   0.817 130.790  0.00  0.00    +0.000 A 
ATOM     37  C   UNL     1      -8.911   2.177 130.061  0.00  0.00    +0.000 A 
BRANCH  32  39
ATOM     38  C   UNL     1     -11.187   4.946 130.378  0.00  0.00    +0.000 C 
ATOM     39  O   UNL     1      -9.976   4.307 129.858  0.00  0.00    +0.000 OA
ENDBRANCH  32  39
ENDBRANCH  29  35
ENDBRANCH  23  29
ENDBRANCH  22  23
ENDBRANCH   1  22
TORSDOF 11
ENDMDL
MODEL 7
REMARK VINA RESULT:      -8.5      3.683      4.701
REMARK  Name = CHEMBL1643589
REMARK  12 active torsions:
REMARK  status: ('A' for Active; 'I' for Inactive)
REMARK    1  A    between atoms: C_1  and  O_2
REMARK    2  A    between atoms: O_2  and  C_3
REMARK    3  A    between atoms: C_6  and  S_7
REMARK    4  A    between atoms: S_7  and  N_10
REMARK    5  A    between atoms: N_10  and  C_11
REMARK    6  A    between atoms: N_10  and  C_32
REMARK    7  A    between atoms: C_11  and  C_12
REMARK    8  A    between atoms: C_15  and  C_16
REMARK    9  A    between atoms: C_19  and  C_20
REMARK   10  A    between atoms: C_20  and  N_21
REMARK   11  A    between atoms: N_21  and  C_22
REMARK   12  A    between atoms: C_22  and  C_23
REMARK                            x       y       z     vdW  Elec       q    Type
REMARK                         _______ _______ _______ _____ _____    ______ ____
ROOT
ATOM      1  C   UNL     1      -7.249  -0.514 127.585  0.00  0.00    +0.000 A 
ATOM      2  C   UNL     1      -6.670  -1.716 127.881  0.00  0.00    +0.000 A 
ATOM      3  S   UNL     1      -5.457  -1.406 129.329  0.00  0.00    +0.000 S 
ATOM      4  C   UNL     1      -5.661   0.570 129.112  0.00  0.00    +0.000 A 
ATOM      5  N   UNL     1      -6.829   0.365 128.502  0.00  0.00    +0.000 NA
ENDROOT
BRANCH   4   6
ATOM      6  C   UNL     1      -5.371   1.943 130.338  0.00  0.00    +0.000 A 
ATOM      7  C   UNL     1      -6.031   3.146 130.166  0.00  0.00    +0.000 A 
ATOM      8  C   UNL     1      -5.459   4.482 130.665  0.00  0.00    +0.000 A 
ATOM      9  C   UNL     1      -4.154   4.720 131.297  0.00  0.00    +0.000 A 
ATOM     10  C   UNL     1      -3.462   3.574 131.587  0.00  0.00    +0.000 A 
ATOM     11  C   UNL     1      -4.115   2.288 131.311  0.00  0.00    +0.000 A 
BRANCH   9  12
ATOM     12  C   UNL     1      -3.409   6.068 131.335  0.00  0.00    +0.000 C 
BRANCH  12  13
ATOM     13  N   UNL     1      -3.333   6.776 130.035  0.00  0.00    +0.000 NA
ATOM     14  H   UNL     1      -3.289   7.794 130.129  0.00  0.00    +0.000 HD
BRANCH  13  15
ATOM     15  C   UNL     1      -2.181   6.297 129.290  0.00  0.00    +0.000 C 
BRANCH  15  16
ATOM     16  C   UNL     1      -2.641   5.577 128.023  0.00  0.00    +0.000 C 
ATOM     17  C   UNL     1      -2.411   4.073 128.197  0.00  0.00    +0.000 C 
ATOM     18  C   UNL     1      -2.980   3.281 127.032  0.00  0.00    +0.000 C 
ATOM     19  C   UNL     1      -4.453   3.609 126.810  0.00  0.00    +0.000 C 
ATOM     20  C   UNL     1      -4.659   5.105 126.597  0.00  0.00    +0.000 C 
ATOM     21  C   UNL     1      -4.117   5.899 127.772  0.00  0.00    +0.000 C 
ENDBRANCH  15  16
ENDBRANCH  13  15
ENDBRANCH  12  13
ENDBRANCH   9  12
ENDBRANCH   4   6
BRANCH   1  22
ATOM     22  C   UNL     1      -8.349  -0.046 126.641  0.00  0.00    +0.000 C 
BRANCH  22  23
ATOM     23  N   UNL     1      -7.960   0.496 125.226  0.00  0.00    +0.000 NA
BRANCH  23  24
ATOM     24  C   UNL     1      -8.534  -0.485 124.158  0.00  0.00    +0.000 C 
ATOM     25  C   UNL     1      -7.495  -0.992 123.156  0.00  0.00    +0.000 C 
ATOM     26  C   UNL     1      -8.160  -2.201 122.497  0.00  0.00    +0.000 C 
ATOM     27  C   UNL     1      -9.085  -2.792 123.552  0.00  0.00    +0.000 C 
ATOM     28  C   UNL     1      -9.057  -1.815 124.719  0.00  0.00    +0.000 C 
ENDBRANCH  23  24
BRANCH  23  29
ATOM     29  S   UNL     1      -8.646   2.133 124.816  0.00  0.00    +0.000 S 
ATOM     30  O   UNL     1      -8.710   2.846 126.016  0.00  0.00    +0.000 OA
ATOM     31  O   UNL     1      -9.886   1.844 124.014  0.00  0.00    +0.000 OA
BRANCH  29  35
ATOM     32  C   UNL     1      -5.667   3.864 121.479  0.00  0.00    +0.000 A 
ATOM     33  C   UNL     1      -5.597   4.267 122.790  0.00  0.00    +0.000 A 
ATOM     34  C   UNL     1      -6.449   3.723 123.913  0.00  0.00    +0.000 A 
ATOM     35  C   UNL     1      -7.646   3.080 123.745  0.00  0.00    +0.000 A 
ATOM     36  C   UNL     1      -7.930   3.136 122.484  0.00  0.00    +0.000 A 
ATOM     37  C   UNL     1      -6.804   3.165 121.416  0.00  0.00    +0.000 A 
BRANCH  32  39
ATOM     38  C   UNL     1      -5.535   5.344 119.504  0.00  0.00    +0.000 C 
ATOM     39  O   UNL     1      -4.981   4.276 120.340  0.00  0.00    +0.000 OA
ENDBRANCH  32  39
ENDBRANCH  29  35
ENDBRANCH  23  29
ENDBRANCH  22  23
ENDBRANCH   1  22
TORSDOF 11
ENDMDL
MODEL 8
REMARK VINA RESULT:      -8.5      3.606      8.595
REMARK  Name = CHEMBL1643589
REMARK  12 active torsions:
REMARK  status: ('A' for Active; 'I' for Inactive)
REMARK    1  A    between atoms: C_1  and  O_2
REMARK    2  A    between atoms: O_2  and  C_3
REMARK    3  A    between atoms: C_6  and  S_7
REMARK    4  A    between atoms: S_7  and  N_10
REMARK    5  A    between atoms: N_10  and  C_11
REMARK    6  A    between atoms: N_10  and  C_32
REMARK    7  A    between atoms: C_11  and  C_12
REMARK    8  A    between atoms: C_15  and  C_16
REMARK    9  A    between atoms: C_19  and  C_20
REMARK   10  A    between atoms: C_20  and  N_21
REMARK   11  A    between atoms: N_21  and  C_22
REMARK   12  A    between atoms: C_22  and  C_23
REMARK                            x       y       z     vdW  Elec       q    Type
REMARK                         _______ _______ _______ _____ _____    ______ ____
ROOT
ATOM      1  C   UNL     1      -4.919   4.754 129.757  0.00  0.00    +0.000 A 
ATOM      2  C   UNL     1      -3.627   5.170 129.607  0.00  0.00    +0.000 A 
ATOM      3  S   UNL     1      -3.289   5.271 127.727  0.00  0.00    +0.000 S 
ATOM      4  C   UNL     1      -5.005   4.323 127.341  0.00  0.00    +0.000 A 
ATOM      5  N   UNL     1      -5.462   4.701 128.536  0.00  0.00    +0.000 NA
ENDROOT
BRANCH   4   6
ATOM      6  C   UNL     1      -6.048   4.320 125.797  0.00  0.00    +0.000 A 
ATOM      7  C   UNL     1      -7.424   4.390 125.917  0.00  0.00    +0.000 A 
ATOM      8  C   UNL     1      -8.378   3.792 124.870  0.00  0.00    +0.000 A 
ATOM      9  C   UNL     1      -8.025   3.015 123.674  0.00  0.00    +0.000 A 
ATOM     10  C   UNL     1      -6.679   2.965 123.424  0.00  0.00    +0.000 A 
ATOM     11  C   UNL     1      -5.787   3.729 124.305  0.00  0.00    +0.000 A 
BRANCH   9  12
ATOM     12  C   UNL     1      -8.955   2.034 122.936  0.00  0.00    +0.000 C 
BRANCH  12  13
ATOM     13  N   UNL     1      -8.702   0.602 123.219  0.00  0.00    +0.000 NA
ATOM     14  H   UNL     1      -7.711   0.348 123.173  0.00  0.00    +0.000 HD
BRANCH  13  15
ATOM     15  C   UNL     1      -9.240   0.264 124.526  0.00  0.00    +0.000 C 
BRANCH  15  16
ATOM     16  C   UNL     1      -8.117  -0.214 125.445  0.00  0.00    +0.000 C 
ATOM     17  C   UNL     1      -6.832  -0.355 124.624  0.00  0.00    +0.000 C 
ATOM     18  C   UNL     1      -5.639  -0.688 125.504  0.00  0.00    +0.000 C 
ATOM     19  C   UNL     1      -5.486   0.327 126.632  0.00  0.00    +0.000 C 
ATOM     20  C   UNL     1      -6.759   0.425 127.464  0.00  0.00    +0.000 C 
ATOM     21  C   UNL     1      -7.950   0.784 126.593  0.00  0.00    +0.000 C 
ENDBRANCH  15  16
ENDBRANCH  13  15
ENDBRANCH  12  13
ENDBRANCH   9  12
ENDBRANCH   4   6
BRANCH   1  22
ATOM     22  C   UNL     1      -5.864   4.556 130.936  0.00  0.00    +0.000 C 
BRANCH  22  23
ATOM     23  N   UNL     1      -7.405   4.697 130.710  0.00  0.00    +0.000 NA
BRANCH  23  24
ATOM     24  C   UNL     1      -8.118   3.577 131.528  0.00  0.00    +0.000 C 
ATOM     25  C   UNL     1      -9.128   2.762 130.718  0.00  0.00    +0.000 C 
ATOM     26  C   UNL     1      -9.382   1.517 131.570  0.00  0.00    +0.000 C 
ATOM     27  C   UNL     1      -8.088   1.265 132.332  0.00  0.00    +0.000 C 
ATOM     28  C   UNL     1      -7.194   2.460 132.033  0.00  0.00    +0.000 C 
ENDBRANCH  23  24
BRANCH  23  29
ATOM     29  S   UNL     1      -8.125   6.268 131.288  0.00  0.00    +0.000 S 
ATOM     30  O   UNL     1      -7.315   7.285 130.776  0.00  0.00    +0.000 OA
ATOM     31  O   UNL     1      -8.308   6.089 132.770  0.00  0.00    +0.000 OA
BRANCH  29  35
ATOM     32  C   UNL     1     -12.209   8.056 129.520  0.00  0.00    +0.000 A 
ATOM     33  C   UNL     1     -12.193   7.259 130.638  0.00  0.00    +0.000 A 
ATOM     34  C   UNL     1     -10.948   6.713 131.298  0.00  0.00    +0.000 A 
ATOM     35  C   UNL     1      -9.731   6.583 130.685  0.00  0.00    +0.000 A 
ATOM     36  C   UNL     1      -9.898   6.910 129.444  0.00  0.00    +0.000 A 
ATOM     37  C   UNL     1     -10.969   7.956 129.034  0.00  0.00    +0.000 A 
BRANCH  32  39
ATOM     38  C   UNL     1     -13.887   7.836 127.719  0.00  0.00    +0.000 C 
ATOM     39  O   UNL     1     -13.254   8.612 128.788  0.00  0.00    +0.000 OA
ENDBRANCH  32  39
ENDBRANCH  29  35
ENDBRANCH  23  29
ENDBRANCH  22  23
ENDBRANCH   1  22
TORSDOF 11
ENDMDL
MODEL 9
REMARK VINA RESULT:      -8.4      3.185      5.554
REMARK  Name = CHEMBL1643589
REMARK  12 active torsions:
REMARK  status: ('A' for Active; 'I' for Inactive)
REMARK    1  A    between atoms: C_1  and  O_2
REMARK    2  A    between atoms: O_2  and  C_3
REMARK    3  A    between atoms: C_6  and  S_7
REMARK    4  A    between atoms: S_7  and  N_10
REMARK    5  A    between atoms: N_10  and  C_11
REMARK    6  A    between atoms: N_10  and  C_32
REMARK    7  A    between atoms: C_11  and  C_12
REMARK    8  A    between atoms: C_15  and  C_16
REMARK    9  A    between atoms: C_19  and  C_20
REMARK   10  A    between atoms: C_20  and  N_21
REMARK   11  A    between atoms: N_21  and  C_22
REMARK   12  A    between atoms: C_22  and  C_23
REMARK                            x       y       z     vdW  Elec       q    Type
REMARK                         _______ _______ _______ _____ _____    ______ ____
ROOT
ATOM      1  C   UNL     1      -6.727   1.431 125.745  0.00  0.00    +0.000 A 
ATOM      2  C   UNL     1      -6.607   2.460 124.854  0.00  0.00    +0.000 A 
ATOM      3  S   UNL     1      -7.177   4.047 125.758  0.00  0.00    +0.000 S 
ATOM      4  C   UNL     1      -7.893   2.958 127.274  0.00  0.00    +0.000 A 
ATOM      5  N   UNL     1      -7.077   1.963 126.920  0.00  0.00    +0.000 NA
ENDROOT
BRANCH   4   6
ATOM      6  C   UNL     1      -8.215   3.442 129.044  0.00  0.00    +0.000 A 
ATOM      7  C   UNL     1      -9.286   2.874 129.710  0.00  0.00    +0.000 A 
ATOM      8  C   UNL     1     -10.019   3.588 130.857  0.00  0.00    +0.000 A 
ATOM      9  C   UNL     1      -9.785   4.946 131.365  0.00  0.00    +0.000 A 
ATOM     10  C   UNL     1      -8.685   5.558 130.824  0.00  0.00    +0.000 A 
ATOM     11  C   UNL     1      -7.857   4.782 129.891  0.00  0.00    +0.000 A 
BRANCH   9  12
ATOM     12  C   UNL     1     -10.806   5.802 132.139  0.00  0.00    +0.000 C 
BRANCH  12  13
ATOM     13  N   UNL     1     -11.069   7.139 131.556  0.00  0.00    +0.000 NA
ATOM     14  H   UNL     1     -10.388   7.411 130.842  0.00  0.00    +0.000 HD
BRANCH  13  15
ATOM     15  C   UNL     1     -12.410   7.167 130.997  0.00  0.00    +0.000 C 
BRANCH  15  16
ATOM     16  C   UNL     1     -12.368   7.701 129.567  0.00  0.00    +0.000 C 
ATOM     17  C   UNL     1     -10.912   7.980 129.184  0.00  0.00    +0.000 C 
ATOM     18  C   UNL     1     -10.782   8.377 127.724  0.00  0.00    +0.000 C 
ATOM     19  C   UNL     1     -11.420   7.335 126.811  0.00  0.00    +0.000 C 
ATOM     20  C   UNL     1     -12.880   7.100 127.178  0.00  0.00    +0.000 C 
ATOM     21  C   UNL     1     -13.013   6.676 128.630  0.00  0.00    +0.000 C 
ENDBRANCH  15  16
ENDBRANCH  13  15
ENDBRANCH  12  13
ENDBRANCH   9  12
ENDBRANCH   4   6
BRANCH   1  22
ATOM     22  C   UNL     1      -6.370  -0.051 125.743  0.00  0.00    +0.000 C 
BRANCH  22  23
ATOM     23  N   UNL     1      -7.395  -1.083 126.320  0.00  0.00    +0.000 NA
BRANCH  23  24
ATOM     24  C   UNL     1      -7.728  -2.112 125.197  0.00  0.00    +0.000 C 
ATOM     25  C   UNL     1      -9.207  -2.495 125.122  0.00  0.00    +0.000 C 
ATOM     26  C   UNL     1      -9.360  -3.159 123.753  0.00  0.00    +0.000 C 
ATOM     27  C   UNL     1      -8.324  -2.497 122.854  0.00  0.00    +0.000 C 
ATOM     28  C   UNL     1      -7.496  -1.604 123.767  0.00  0.00    +0.000 C 
ENDBRANCH  23  24
BRANCH  23  29
ATOM     29  S   UNL     1      -6.784  -2.064 127.728  0.00  0.00    +0.000 S 
ATOM     30  O   UNL     1      -5.450  -2.372 127.445  0.00  0.00    +0.000 OA
ATOM     31  O   UNL     1      -7.810  -3.147 127.920  0.00  0.00    +0.000 OA
BRANCH  29  35
ATOM     32  C   UNL     1      -7.672   0.523 131.667  0.00  0.00    +0.000 A 
ATOM     33  C   UNL     1      -6.527   0.700 130.929  0.00  0.00    +0.000 A 
ATOM     34  C   UNL     1      -6.203  -0.023 129.642  0.00  0.00    +0.000 A 
ATOM     35  C   UNL     1      -6.769  -1.205 129.246  0.00  0.00    +0.000 A 
ATOM     36  C   UNL     1      -7.522  -1.607 130.218  0.00  0.00    +0.000 A 
ATOM     37  C   UNL     1      -8.215  -0.587 131.161  0.00  0.00    +0.000 A 
BRANCH  32  39
ATOM     38  C   UNL     1      -7.477   2.315 133.359  0.00  0.00    +0.000 C 
ATOM     39  O   UNL     1      -8.102   1.085 132.866  0.00  0.00    +0.000 OA
ENDBRANCH  32  39
ENDBRANCH  29  35
ENDBRANCH  23  29
ENDBRANCH  22  23
ENDBRANCH   1  22
TORSDOF 11
ENDMDL
