MODEL 1
REMARK VINA RESULT:      -8.1      0.000      0.000
REMARK  Name = CHEMBL473443
REMARK  6 active torsions:
REMARK  status: ('A' for Active; 'I' for Inactive)
REMARK    1  A    between atoms: C_2  and  C_3
REMARK    2  A    between atoms: C_6  and  C_7
REMARK    3  A    between atoms: N_16  and  C_17
REMARK    4  A    between atoms: N_16  and  C_21
REMARK    5  A    between atoms: C_17  and  C_18
REMARK    6  A    between atoms: C_21  and  C_22
REMARK                            x       y       z     vdW  Elec       q    Type
REMARK                         _______ _______ _______ _____ _____    ______ ____
ROOT
ATOM      1  O   UNL     1      -8.296   1.113 128.151  0.00  0.00    +0.000 OA
ATOM      2  C   UNL     1      -7.727   0.529 127.248  0.00  0.00    +0.000 C 
ATOM      3  N   UNL     1      -7.145  -0.755 127.146  0.00  0.00    +0.000 N 
ENDROOT
BRANCH   2   4
ATOM      4  C   UNL     1      -7.685   1.437 126.132  0.00  0.00    +0.000 A 
ATOM      5  C   UNL     1      -6.442   1.618 125.551  0.00  0.00    +0.000 A 
ATOM      6  C   UNL     1      -6.373   2.273 124.350  0.00  0.00    +0.000 A 
ATOM      7  C   UNL     1      -7.553   2.574 123.652  0.00  0.00    +0.000 A 
ATOM      8  C   UNL     1      -8.811   2.310 124.220  0.00  0.00    +0.000 A 
ATOM      9  C   UNL     1      -8.884   1.740 125.475  0.00  0.00    +0.000 A 
BRANCH   7  10
ATOM     10  C   UNL     1      -7.458   3.159 122.329  0.00  0.00    +0.000 A 
ATOM     11  C   UNL     1      -8.603   3.424 121.562  0.00  0.00    +0.000 A 
ATOM     12  C   UNL     1      -8.472   3.920 120.268  0.00  0.00    +0.000 A 
ATOM     13  C   UNL     1      -7.204   4.227 119.777  0.00  0.00    +0.000 A 
ATOM     14 CL   UNL     1      -7.042   4.975 118.238  0.00  0.00    +0.000 Cl
ATOM     15  C   UNL     1      -6.064   3.974 120.535  0.00  0.00    +0.000 A 
ATOM     16  C   UNL     1      -6.192   3.431 121.806  0.00  0.00    +0.000 A 
ENDBRANCH   7  10
ENDBRANCH   2   4
BRANCH   3  17
ATOM     17  C   UNL     1      -6.872  -1.646 128.307  0.00  0.00    +0.000 C 
BRANCH  17  18
ATOM     18  C   UNL     1      -7.995  -2.330 129.026  0.00  0.00    +0.000 C 
ATOM     19  C   UNL     1      -8.608  -3.593 128.519  0.00  0.00    +0.000 C 
ATOM     20  C   UNL     1      -7.661  -3.602 129.732  0.00  0.00    +0.000 C 
ENDBRANCH  17  18
ENDBRANCH   3  17
BRANCH   3  21
ATOM     21  C   UNL     1      -7.123  -1.399 125.806  0.00  0.00    +0.000 C 
BRANCH  21  22
ATOM     22  C   UNL     1      -8.454  -1.883 125.198  0.00  0.00    +0.000 C 
ATOM     23  C   UNL     1      -8.469  -3.372 124.875  0.00  0.00    +0.000 C 
ATOM     24  C   UNL     1      -9.379  -3.438 123.668  0.00  0.00    +0.000 C 
ATOM     25  C   UNL     1      -9.085  -2.150 122.945  0.00  0.00    +0.000 C 
ATOM     26  O   UNL     1      -8.692  -1.222 123.943  0.00  0.00    +0.000 OA
ENDBRANCH  21  22
ENDBRANCH   3  21
TORSDOF 6
ENDMDL
MODEL 2
REMARK VINA RESULT:      -7.8      6.789     10.056
REMARK  Name = CHEMBL473443
REMARK  6 active torsions:
REMARK  status: ('A' for Active; 'I' for Inactive)
REMARK    1  A    between atoms: C_2  and  C_3
REMARK    2  A    between atoms: C_6  and  C_7
REMARK    3  A    between atoms: N_16  and  C_17
REMARK    4  A    between atoms: N_16  and  C_21
REMARK    5  A    between atoms: C_17  and  C_18
REMARK    6  A    between atoms: C_21  and  C_22
REMARK                            x       y       z     vdW  Elec       q    Type
REMARK                         _______ _______ _______ _____ _____    ______ ____
ROOT
ATOM      1  O   UNL     1     -11.604   3.762 130.031  0.00  0.00    +0.000 OA
ATOM      2  C   UNL     1     -10.666   4.158 130.697  0.00  0.00    +0.000 C 
ATOM      3  N   UNL     1     -10.365   5.404 131.293  0.00  0.00    +0.000 N 
ENDROOT
BRANCH   2   4
ATOM      4  C   UNL     1      -9.747   3.056 130.811  0.00  0.00    +0.000 A 
ATOM      5  C   UNL     1     -10.074   2.096 131.752  0.00  0.00    +0.000 A 
ATOM      6  C   UNL     1      -9.381   0.914 131.745  0.00  0.00    +0.000 A 
ATOM      7  C   UNL     1      -8.503   0.627 130.689  0.00  0.00    +0.000 A 
ATOM      8  C   UNL     1      -8.241   1.584 129.693  0.00  0.00    +0.000 A 
ATOM      9  C   UNL     1      -8.863   2.815 129.752  0.00  0.00    +0.000 A 
BRANCH   7  10
ATOM     10  C   UNL     1      -7.869  -0.675 130.635  0.00  0.00    +0.000 A 
ATOM     11  C   UNL     1      -7.541  -1.279 129.411  0.00  0.00    +0.000 A 
ATOM     12  C   UNL     1      -6.999  -2.561 129.394  0.00  0.00    +0.000 A 
ATOM     13  C   UNL     1      -6.708  -3.199 130.599  0.00  0.00    +0.000 A 
ATOM     14 CL   UNL     1      -5.905  -4.718 130.589  0.00  0.00    +0.000 Cl
ATOM     15  C   UNL     1      -7.023  -2.602 131.817  0.00  0.00    +0.000 A 
ATOM     16  C   UNL     1      -7.612  -1.346 131.832  0.00  0.00    +0.000 A 
ENDBRANCH   7  10
ENDBRANCH   2   4
BRANCH   3  17
ATOM     17  C   UNL     1     -11.086   6.672 130.994  0.00  0.00    +0.000 C 
BRANCH  17  18
ATOM     18  C   UNL     1     -11.386   7.065 129.579  0.00  0.00    +0.000 C 
ATOM     19  C   UNL     1     -11.840   8.440 129.219  0.00  0.00    +0.000 C 
ATOM     20  C   UNL     1     -10.406   7.974 128.915  0.00  0.00    +0.000 C 
ENDBRANCH  17  18
ENDBRANCH   3  17
BRANCH   3  21
ATOM     21  C   UNL     1      -9.534   5.397 132.526  0.00  0.00    +0.000 C 
BRANCH  21  22
ATOM     22  C   UNL     1      -8.087   5.920 132.443  0.00  0.00    +0.000 C 
ATOM     23  C   UNL     1      -7.785   6.676 131.155  0.00  0.00    +0.000 C 
ATOM     24  C   UNL     1      -6.321   6.369 130.928  0.00  0.00    +0.000 C 
ATOM     25  C   UNL     1      -6.181   4.962 131.445  0.00  0.00    +0.000 C 
ATOM     26  O   UNL     1      -7.163   4.819 132.459  0.00  0.00    +0.000 OA
ENDBRANCH  21  22
ENDBRANCH   3  21
TORSDOF 6
ENDMDL
MODEL 3
REMARK VINA RESULT:      -7.7      3.688      8.037
REMARK  Name = CHEMBL473443
REMARK  6 active torsions:
REMARK  status: ('A' for Active; 'I' for Inactive)
REMARK    1  A    between atoms: C_2  and  C_3
REMARK    2  A    between atoms: C_6  and  C_7
REMARK    3  A    between atoms: N_16  and  C_17
REMARK    4  A    between atoms: N_16  and  C_21
REMARK    5  A    between atoms: C_17  and  C_18
REMARK    6  A    between atoms: C_21  and  C_22
REMARK                            x       y       z     vdW  Elec       q    Type
REMARK                         _______ _______ _______ _____ _____    ______ ____
ROOT
ATOM      1  O   UNL     1      -9.971   1.124 122.253  0.00  0.00    +0.000 OA
ATOM      2  C   UNL     1      -9.029   1.459 122.946  0.00  0.00    +0.000 C 
ATOM      3  N   UNL     1      -8.141   2.557 122.899  0.00  0.00    +0.000 N 
ENDROOT
BRANCH   2   4
ATOM      4  C   UNL     1      -8.884   0.449 123.961  0.00  0.00    +0.000 A 
ATOM      5  C   UNL     1      -7.865  -0.465 123.757  0.00  0.00    +0.000 A 
ATOM      6  C   UNL     1      -7.520  -1.297 124.790  0.00  0.00    +0.000 A 
ATOM      7  C   UNL     1      -8.061  -1.085 126.066  0.00  0.00    +0.000 A 
ATOM      8  C   UNL     1      -9.039  -0.097 126.276  0.00  0.00    +0.000 A 
ATOM      9  C   UNL     1      -9.462   0.678 125.215  0.00  0.00    +0.000 A 
BRANCH   7  10
ATOM     10  C   UNL     1      -7.597  -1.898 127.172  0.00  0.00    +0.000 A 
ATOM     11  C   UNL     1      -8.437  -2.832 127.799  0.00  0.00    +0.000 A 
ATOM     12  C   UNL     1      -7.980  -3.544 128.904  0.00  0.00    +0.000 A 
ATOM     13  C   UNL     1      -6.661  -3.382 129.327  0.00  0.00    +0.000 A 
ATOM     14 CL   UNL     1      -6.045  -4.362 130.597  0.00  0.00    +0.000 Cl
ATOM     15  C   UNL     1      -5.819  -2.463 128.706  0.00  0.00    +0.000 A 
ATOM     16  C   UNL     1      -6.292  -1.715 127.636  0.00  0.00    +0.000 A 
ENDBRANCH   7  10
ENDBRANCH   2   4
BRANCH   3  17
ATOM     17  C   UNL     1      -8.014   3.484 121.741  0.00  0.00    +0.000 C 
BRANCH  17  18
ATOM     18  C   UNL     1      -6.859   3.370 120.793  0.00  0.00    +0.000 C 
ATOM     19  C   UNL     1      -6.523   4.451 119.820  0.00  0.00    +0.000 C 
ATOM     20  C   UNL     1      -5.670   4.226 121.081  0.00  0.00    +0.000 C 
ENDBRANCH  17  18
ENDBRANCH   3  17
BRANCH   3  21
ATOM     21  C   UNL     1      -7.557   3.028 124.182  0.00  0.00    +0.000 C 
BRANCH  21  22
ATOM     22  C   UNL     1      -6.076   2.719 124.477  0.00  0.00    +0.000 C 
ATOM     23  C   UNL     1      -5.860   1.962 125.781  0.00  0.00    +0.000 C 
ATOM     24  C   UNL     1      -4.510   2.470 126.238  0.00  0.00    +0.000 C 
ATOM     25  C   UNL     1      -4.507   3.903 125.775  0.00  0.00    +0.000 C 
ATOM     26  O   UNL     1      -5.337   3.944 124.625  0.00  0.00    +0.000 OA
ENDBRANCH  21  22
ENDBRANCH   3  21
TORSDOF 6
ENDMDL
MODEL 4
REMARK VINA RESULT:      -7.6      4.051      8.589
REMARK  Name = CHEMBL473443
REMARK  6 active torsions:
REMARK  status: ('A' for Active; 'I' for Inactive)
REMARK    1  A    between atoms: C_2  and  C_3
REMARK    2  A    between atoms: C_6  and  C_7
REMARK    3  A    between atoms: N_16  and  C_17
REMARK    4  A    between atoms: N_16  and  C_21
REMARK    5  A    between atoms: C_17  and  C_18
REMARK    6  A    between atoms: C_21  and  C_22
REMARK                            x       y       z     vdW  Elec       q    Type
REMARK                         _______ _______ _______ _____ _____    ______ ____
ROOT
ATOM      1  O   UNL     1      -8.342   0.934 123.225  0.00  0.00    +0.000 OA
ATOM      2  C   UNL     1      -7.467   1.261 124.004  0.00  0.00    +0.000 C 
ATOM      3  N   UNL     1      -6.678   2.425 124.134  0.00  0.00    +0.000 N 
ENDROOT
BRANCH   2   4
ATOM      4  C   UNL     1      -7.283   0.153 124.904  0.00  0.00    +0.000 A 
ATOM      5  C   UNL     1      -6.000  -0.361 124.970  0.00  0.00    +0.000 A 
ATOM      6  C   UNL     1      -5.703  -1.247 125.971  0.00  0.00    +0.000 A 
ATOM      7  C   UNL     1      -6.627  -1.468 127.003  0.00  0.00    +0.000 A 
ATOM      8  C   UNL     1      -7.901  -0.875 126.965  0.00  0.00    +0.000 A 
ATOM      9  C   UNL     1      -8.240  -0.058 125.905  0.00  0.00    +0.000 A 
BRANCH   7  10
ATOM     10  C   UNL     1      -6.251  -2.317 128.116  0.00  0.00    +0.000 A 
ATOM     11  C   UNL     1      -4.904  -2.561 128.429  0.00  0.00    +0.000 A 
ATOM     12  C   UNL     1      -4.579  -3.438 129.460  0.00  0.00    +0.000 A 
ATOM     13  C   UNL     1      -5.598  -4.002 130.226  0.00  0.00    +0.000 A 
ATOM     14 CL   UNL     1      -5.203  -4.970 131.591  0.00  0.00    +0.000 Cl
ATOM     15  C   UNL     1      -6.936  -3.759 129.927  0.00  0.00    +0.000 A 
ATOM     16  C   UNL     1      -7.260  -2.925 128.866  0.00  0.00    +0.000 A 
ENDBRANCH   7  10
ENDBRANCH   2   4
BRANCH   3  17
ATOM     17  C   UNL     1      -6.577   3.490 123.098  0.00  0.00    +0.000 C 
BRANCH  17  18
ATOM     18  C   UNL     1      -6.027   3.184 121.739  0.00  0.00    +0.000 C 
ATOM     19  C   UNL     1      -6.462   3.931 120.522  0.00  0.00    +0.000 C 
ATOM     20  C   UNL     1      -5.084   4.185 121.158  0.00  0.00    +0.000 C 
ENDBRANCH  17  18
ENDBRANCH   3  17
BRANCH   3  21
ATOM     21  C   UNL     1      -6.199   2.787 125.494  0.00  0.00    +0.000 C 
BRANCH  21  22
ATOM     22  C   UNL     1      -4.764   3.328 125.652  0.00  0.00    +0.000 C 
ATOM     23  C   UNL     1      -3.874   2.445 126.519  0.00  0.00    +0.000 C 
ATOM     24  C   UNL     1      -2.945   3.450 127.167  0.00  0.00    +0.000 C 
ATOM     25  C   UNL     1      -3.823   4.660 127.351  0.00  0.00    +0.000 C 
ATOM     26  O   UNL     1      -4.789   4.604 126.313  0.00  0.00    +0.000 OA
ENDBRANCH  21  22
ENDBRANCH   3  21
TORSDOF 6
ENDMDL
MODEL 5
REMARK VINA RESULT:      -7.5      4.088      8.334
REMARK  Name = CHEMBL473443
REMARK  6 active torsions:
REMARK  status: ('A' for Active; 'I' for Inactive)
REMARK    1  A    between atoms: C_2  and  C_3
REMARK    2  A    between atoms: C_6  and  C_7
REMARK    3  A    between atoms: N_16  and  C_17
REMARK    4  A    between atoms: N_16  and  C_21
REMARK    5  A    between atoms: C_17  and  C_18
REMARK    6  A    between atoms: C_21  and  C_22
REMARK                            x       y       z     vdW  Elec       q    Type
REMARK                         _______ _______ _______ _____ _____    ______ ____
ROOT
ATOM      1  O   UNL     1      -7.006   1.507 126.251  0.00  0.00    +0.000 OA
ATOM      2  C   UNL     1      -7.015   0.481 125.599  0.00  0.00    +0.000 C 
ATOM      3  N   UNL     1      -7.186   0.214 124.222  0.00  0.00    +0.000 N 
ENDROOT
BRANCH   2   4
ATOM      4  C   UNL     1      -6.826  -0.600 126.531  0.00  0.00    +0.000 A 
ATOM      5  C   UNL     1      -5.557  -0.713 127.071  0.00  0.00    +0.000 A 
ATOM      6  C   UNL     1      -5.372  -1.559 128.132  0.00  0.00    +0.000 A 
ATOM      7  C   UNL     1      -6.484  -2.138 128.763  0.00  0.00    +0.000 A 
ATOM      8  C   UNL     1      -7.779  -1.949 128.251  0.00  0.00    +0.000 A 
ATOM      9  C   UNL     1      -7.958  -1.177 127.121  0.00  0.00    +0.000 A 
BRANCH   7  10
ATOM     10  C   UNL     1      -6.281  -2.935 129.957  0.00  0.00    +0.000 A 
ATOM     11  C   UNL     1      -5.385  -4.015 129.972  0.00  0.00    +0.000 A 
ATOM     12  C   UNL     1      -5.268  -4.803 131.114  0.00  0.00    +0.000 A 
ATOM     13  C   UNL     1      -5.983  -4.458 132.261  0.00  0.00    +0.000 A 
ATOM     14 CL   UNL     1      -5.735  -5.337 133.717  0.00  0.00    +0.000 Cl
ATOM     15  C   UNL     1      -6.868  -3.383 132.255  0.00  0.00    +0.000 A 
ATOM     16  C   UNL     1      -7.023  -2.630 131.100  0.00  0.00    +0.000 A 
ENDBRANCH   7  10
ENDBRANCH   2   4
BRANCH   3  17
ATOM     17  C   UNL     1      -7.676   1.211 123.231  0.00  0.00    +0.000 C 
BRANCH  17  18
ATOM     18  C   UNL     1      -6.744   2.223 122.640  0.00  0.00    +0.000 C 
ATOM     19  C   UNL     1      -7.240   3.416 121.892  0.00  0.00    +0.000 C 
ATOM     20  C   UNL     1      -6.680   3.551 123.319  0.00  0.00    +0.000 C 
ENDBRANCH  17  18
ENDBRANCH   3  17
BRANCH   3  21
ATOM     21  C   UNL     1      -6.523  -0.993 123.665  0.00  0.00    +0.000 C 
BRANCH  21  22
ATOM     22  C   UNL     1      -7.389  -2.221 123.323  0.00  0.00    +0.000 C 
ATOM     23  C   UNL     1      -8.883  -1.982 123.509  0.00  0.00    +0.000 C 
ATOM     24  C   UNL     1      -9.388  -3.349 123.916  0.00  0.00    +0.000 C 
ATOM     25  C   UNL     1      -8.247  -3.910 124.722  0.00  0.00    +0.000 C 
ATOM     26  O   UNL     1      -7.070  -3.311 124.205  0.00  0.00    +0.000 OA
ENDBRANCH  21  22
ENDBRANCH   3  21
TORSDOF 6
ENDMDL
MODEL 6
REMARK VINA RESULT:      -7.4     11.901     14.176
REMARK  Name = CHEMBL473443
REMARK  6 active torsions:
REMARK  status: ('A' for Active; 'I' for Inactive)
REMARK    1  A    between atoms: C_2  and  C_3
REMARK    2  A    between atoms: C_6  and  C_7
REMARK    3  A    between atoms: N_16  and  C_17
REMARK    4  A    between atoms: N_16  and  C_21
REMARK    5  A    between atoms: C_17  and  C_18
REMARK    6  A    between atoms: C_21  and  C_22
REMARK                            x       y       z     vdW  Elec       q    Type
REMARK                         _______ _______ _______ _____ _____    ______ ____
ROOT
ATOM      1  O   UNL     1      -1.141   7.925 135.492  0.00  0.00    +0.000 OA
ATOM      2  C   UNL     1      -0.826   8.773 134.678  0.00  0.00    +0.000 C 
ATOM      3  N   UNL     1      -0.292  10.076 134.801  0.00  0.00    +0.000 N 
ENDROOT
BRANCH   2   4
ATOM      4  C   UNL     1      -1.122   8.227 133.379  0.00  0.00    +0.000 A 
ATOM      5  C   UNL     1      -0.340   7.156 132.985  0.00  0.00    +0.000 A 
ATOM      6  C   UNL     1      -0.721   6.444 131.879  0.00  0.00    +0.000 A 
ATOM      7  C   UNL     1      -1.971   6.686 131.290  0.00  0.00    +0.000 A 
ATOM      8  C   UNL     1      -2.793   7.728 131.753  0.00  0.00    +0.000 A 
ATOM      9  C   UNL     1      -2.367   8.513 132.806  0.00  0.00    +0.000 A 
BRANCH   7  10
ATOM     10  C   UNL     1      -2.408   5.844 130.195  0.00  0.00    +0.000 A 
ATOM     11  C   UNL     1      -2.217   6.223 128.857  0.00  0.00    +0.000 A 
ATOM     12  C   UNL     1      -2.714   5.425 127.831  0.00  0.00    +0.000 A 
ATOM     13  C   UNL     1      -3.326   4.211 128.142  0.00  0.00    +0.000 A 
ATOM     14 CL   UNL     1      -3.811   3.151 126.880  0.00  0.00    +0.000 Cl
ATOM     15  C   UNL     1      -3.512   3.824 129.467  0.00  0.00    +0.000 A 
ATOM     16  C   UNL     1      -3.063   4.646 130.491  0.00  0.00    +0.000 A 
ENDBRANCH   7  10
ENDBRANCH   2   4
BRANCH   3  17
ATOM     17  C   UNL     1      -0.228  10.838 136.078  0.00  0.00    +0.000 C 
BRANCH  17  18
ATOM     18  C   UNL     1      -1.442  11.532 136.615  0.00  0.00    +0.000 C 
ATOM     19  C   UNL     1      -1.941  12.816 136.039  0.00  0.00    +0.000 C 
ATOM     20  C   UNL     1      -2.669  11.488 135.766  0.00  0.00    +0.000 C 
ENDBRANCH  17  18
ENDBRANCH   3  17
BRANCH   3  21
ATOM     21  C   UNL     1       0.561  10.580 133.693  0.00  0.00    +0.000 C 
BRANCH  21  22
ATOM     22  C   UNL     1       0.281  11.985 133.126  0.00  0.00    +0.000 C 
ATOM     23  C   UNL     1      -1.049  12.090 132.390  0.00  0.00    +0.000 C 
ATOM     24  C   UNL     1      -0.756  13.126 131.326  0.00  0.00    +0.000 C 
ATOM     25  C   UNL     1       0.685  12.863 130.978  0.00  0.00    +0.000 C 
ATOM     26  O   UNL     1       1.280  12.331 132.151  0.00  0.00    +0.000 OA
ENDBRANCH  21  22
ENDBRANCH   3  21
TORSDOF 6
ENDMDL
MODEL 7
REMARK VINA RESULT:      -7.2      4.816      9.085
REMARK  Name = CHEMBL473443
REMARK  6 active torsions:
REMARK  status: ('A' for Active; 'I' for Inactive)
REMARK    1  A    between atoms: C_2  and  C_3
REMARK    2  A    between atoms: C_6  and  C_7
REMARK    3  A    between atoms: N_16  and  C_17
REMARK    4  A    between atoms: N_16  and  C_21
REMARK    5  A    between atoms: C_17  and  C_18
REMARK    6  A    between atoms: C_21  and  C_22
REMARK                            x       y       z     vdW  Elec       q    Type
REMARK                         _______ _______ _______ _____ _____    ______ ____
ROOT
ATOM      1  O   UNL     1      -6.785  -0.100 127.086  0.00  0.00    +0.000 OA
ATOM      2  C   UNL     1      -7.352  -1.129 126.772  0.00  0.00    +0.000 C 
ATOM      3  N   UNL     1      -8.145  -1.493 125.661  0.00  0.00    +0.000 N 
ENDROOT
BRANCH   2   4
ATOM      4  C   UNL     1      -7.105  -2.074 127.830  0.00  0.00    +0.000 A 
ATOM      5  C   UNL     1      -5.784  -2.209 128.220  0.00  0.00    +0.000 A 
ATOM      6  C   UNL     1      -5.511  -2.902 129.369  0.00  0.00    +0.000 A 
ATOM      7  C   UNL     1      -6.561  -3.291 130.215  0.00  0.00    +0.000 A 
ATOM      8  C   UNL     1      -7.899  -3.075 129.844  0.00  0.00    +0.000 A 
ATOM      9  C   UNL     1      -8.181  -2.464 128.638  0.00  0.00    +0.000 A 
BRANCH   7  10
ATOM     10  C   UNL     1      -6.247  -3.918 131.483  0.00  0.00    +0.000 A 
ATOM     11  C   UNL     1      -6.903  -3.544 132.667  0.00  0.00    +0.000 A 
ATOM     12  C   UNL     1      -6.527  -4.116 133.879  0.00  0.00    +0.000 A 
ATOM     13  C   UNL     1      -5.557  -5.118 133.892  0.00  0.00    +0.000 A 
ATOM     14 CL   UNL     1      -5.191  -5.931 135.361  0.00  0.00    +0.000 Cl
ATOM     15  C   UNL     1      -4.908  -5.500 132.721  0.00  0.00    +0.000 A 
ATOM     16  C   UNL     1      -5.247  -4.892 131.520  0.00  0.00    +0.000 A 
ENDBRANCH   7  10
ENDBRANCH   2   4
BRANCH   3  17
ATOM     17  C   UNL     1      -8.701  -0.525 124.676  0.00  0.00    +0.000 C 
BRANCH  17  18
ATOM     18  C   UNL     1      -9.512   0.648 125.132  0.00  0.00    +0.000 C 
ATOM     19  C   UNL     1      -9.020   2.051 124.998  0.00  0.00    +0.000 C 
ATOM     20  C   UNL     1     -10.113   1.502 124.064  0.00  0.00    +0.000 C 
ENDBRANCH  17  18
ENDBRANCH   3  17
BRANCH   3  21
ATOM     21  C   UNL     1      -8.141  -2.921 125.247  0.00  0.00    +0.000 C 
BRANCH  21  22
ATOM     22  C   UNL     1      -7.159  -3.367 124.145  0.00  0.00    +0.000 C 
ATOM     23  C   UNL     1      -5.695  -3.257 124.554  0.00  0.00    +0.000 C 
ATOM     24  C   UNL     1      -5.010  -2.942 123.241  0.00  0.00    +0.000 C 
ATOM     25  C   UNL     1      -6.026  -2.098 122.518  0.00  0.00    +0.000 C 
ATOM     26  O   UNL     1      -7.294  -2.519 122.992  0.00  0.00    +0.000 OA
ENDBRANCH  21  22
ENDBRANCH   3  21
TORSDOF 6
ENDMDL
MODEL 8
REMARK VINA RESULT:      -7.1      8.459     11.363
REMARK  Name = CHEMBL473443
REMARK  6 active torsions:
REMARK  status: ('A' for Active; 'I' for Inactive)
REMARK    1  A    between atoms: C_2  and  C_3
REMARK    2  A    between atoms: C_6  and  C_7
REMARK    3  A    between atoms: N_16  and  C_17
REMARK    4  A    between atoms: N_16  and  C_21
REMARK    5  A    between atoms: C_17  and  C_18
REMARK    6  A    between atoms: C_21  and  C_22
REMARK                            x       y       z     vdW  Elec       q    Type
REMARK                         _______ _______ _______ _____ _____    ______ ____
ROOT
ATOM      1  O   UNL     1      -8.938   7.656 129.934  0.00  0.00    +0.000 OA
ATOM      2  C   UNL     1      -9.433   6.716 130.528  0.00  0.00    +0.000 C 
ATOM      3  N   UNL     1     -10.580   5.925 130.295  0.00  0.00    +0.000 N 
ENDROOT
BRANCH   2   4
ATOM      4  C   UNL     1      -8.606   6.478 131.682  0.00  0.00    +0.000 A 
ATOM      5  C   UNL     1      -9.276   6.100 132.833  0.00  0.00    +0.000 A 
ATOM      6  C   UNL     1      -8.542   5.629 133.889  0.00  0.00    +0.000 A 
ATOM      7  C   UNL     1      -7.174   5.363 133.724  0.00  0.00    +0.000 A 
ATOM      8  C   UNL     1      -6.522   5.678 132.519  0.00  0.00    +0.000 A 
ATOM      9  C   UNL     1      -7.240   6.246 131.485  0.00  0.00    +0.000 A 
BRANCH   7  10
ATOM     10  C   UNL     1      -6.439   4.754 134.814  0.00  0.00    +0.000 A 
ATOM     11  C   UNL     1      -6.344   5.373 136.070  0.00  0.00    +0.000 A 
ATOM     12  C   UNL     1      -5.570   4.795 137.073  0.00  0.00    +0.000 A 
ATOM     13  C   UNL     1      -4.962   3.562 136.843  0.00  0.00    +0.000 A 
ATOM     14 CL   UNL     1      -4.126   2.772 138.120  0.00  0.00    +0.000 Cl
ATOM     15  C   UNL     1      -5.057   2.938 135.602  0.00  0.00    +0.000 A 
ATOM     16  C   UNL     1      -5.786   3.540 134.586  0.00  0.00    +0.000 A 
ENDBRANCH   7  10
ENDBRANCH   2   4
BRANCH   3  17
ATOM     17  C   UNL     1     -11.650   6.267 129.318  0.00  0.00    +0.000 C 
BRANCH  17  18
ATOM     18  C   UNL     1     -12.845   7.064 129.742  0.00  0.00    +0.000 C 
ATOM     19  C   UNL     1     -12.972   7.632 131.116  0.00  0.00    +0.000 C 
ATOM     20  C   UNL     1     -12.644   8.533 129.912  0.00  0.00    +0.000 C 
ENDBRANCH  17  18
ENDBRANCH   3  17
BRANCH   3  21
ATOM     21  C   UNL     1     -10.559   4.519 130.779  0.00  0.00    +0.000 C 
BRANCH  21  22
ATOM     22  C   UNL     1      -9.715   3.486 130.009  0.00  0.00    +0.000 C 
ATOM     23  C   UNL     1      -8.595   2.873 130.842  0.00  0.00    +0.000 C 
ATOM     24  C   UNL     1      -7.523   2.606 129.808  0.00  0.00    +0.000 C 
ATOM     25  C   UNL     1      -7.686   3.749 128.842  0.00  0.00    +0.000 C 
ATOM     26  O   UNL     1      -9.056   4.117 128.898  0.00  0.00    +0.000 OA
ENDBRANCH  21  22
ENDBRANCH   3  21
TORSDOF 6
ENDMDL
MODEL 9
REMARK VINA RESULT:      -7.0      5.367      7.454
REMARK  Name = CHEMBL473443
REMARK  6 active torsions:
REMARK  status: ('A' for Active; 'I' for Inactive)
REMARK    1  A    between atoms: C_2  and  C_3
REMARK    2  A    between atoms: C_6  and  C_7
REMARK    3  A    between atoms: N_16  and  C_17
REMARK    4  A    between atoms: N_16  and  C_21
REMARK    5  A    between atoms: C_17  and  C_18
REMARK    6  A    between atoms: C_21  and  C_22
REMARK                            x       y       z     vdW  Elec       q    Type
REMARK                         _______ _______ _______ _____ _____    ______ ____
ROOT
ATOM      1  O   UNL     1      -6.670   5.129 129.737  0.00  0.00    +0.000 OA
ATOM      2  C   UNL     1      -7.812   4.759 129.932  0.00  0.00    +0.000 C 
ATOM      3  N   UNL     1      -8.756   5.037 130.947  0.00  0.00    +0.000 N 
ENDROOT
BRANCH   2   4
ATOM      4  C   UNL     1      -8.139   3.850 128.864  0.00  0.00    +0.000 A 
ATOM      5  C   UNL     1      -7.744   4.245 127.598  0.00  0.00    +0.000 A 
ATOM      6  C   UNL     1      -7.807   3.329 126.581  0.00  0.00    +0.000 A 
ATOM      7  C   UNL     1      -8.082   1.984 126.870  0.00  0.00    +0.000 A 
ATOM      8  C   UNL     1      -8.403   1.582 128.178  0.00  0.00    +0.000 A 
ATOM      9  C   UNL     1      -8.438   2.521 129.190  0.00  0.00    +0.000 A 
BRANCH   7  10
ATOM     10  C   UNL     1      -8.028   1.008 125.800  0.00  0.00    +0.000 A 
ATOM     11  C   UNL     1      -7.105   1.125 124.748  0.00  0.00    +0.000 A 
ATOM     12  C   UNL     1      -7.129   0.210 123.700  0.00  0.00    +0.000 A 
ATOM     13  C   UNL     1      -8.017  -0.864 123.748  0.00  0.00    +0.000 A 
ATOM     14 CL   UNL     1      -7.954  -2.078 122.533  0.00  0.00    +0.000 Cl
ATOM     15  C   UNL     1      -8.929  -0.991 124.792  0.00  0.00    +0.000 A 
ATOM     16  C   UNL     1      -8.940  -0.049 125.811  0.00  0.00    +0.000 A 
ENDBRANCH   7  10
ENDBRANCH   2   4
BRANCH   3  17
ATOM     17  C   UNL     1      -8.429   5.713 132.232  0.00  0.00    +0.000 C 
BRANCH  17  18
ATOM     18  C   UNL     1      -8.193   4.914 133.477  0.00  0.00    +0.000 C 
ATOM     19  C   UNL     1      -9.165   3.888 133.956  0.00  0.00    +0.000 C 
ATOM     20  C   UNL     1      -7.839   3.476 133.293  0.00  0.00    +0.000 C 
ENDBRANCH  17  18
ENDBRANCH   3  17
BRANCH   3  21
ATOM     21  C   UNL     1     -10.197   4.976 130.586  0.00  0.00    +0.000 C 
BRANCH  21  22
ATOM     22  C   UNL     1     -10.924   6.286 130.227  0.00  0.00    +0.000 C 
ATOM     23  C   UNL     1     -11.992   6.686 131.238  0.00  0.00    +0.000 C 
ATOM     24  C   UNL     1     -13.016   7.389 130.374  0.00  0.00    +0.000 C 
ATOM     25  C   UNL     1     -12.949   6.631 129.075  0.00  0.00    +0.000 C 
ATOM     26  O   UNL     1     -11.623   6.136 128.979  0.00  0.00    +0.000 OA
ENDBRANCH  21  22
ENDBRANCH   3  21
TORSDOF 6
ENDMDL
