MODEL 1
REMARK VINA RESULT:     -10.2      0.000      0.000
REMARK  Name = CHEMBL24456
REMARK  10 active torsions:
REMARK  status: ('A' for Active; 'I' for Inactive)
REMARK    1  A    between atoms: C_2  and  C_3
REMARK    2  A    between atoms: C_3  and  C_4
REMARK    3  A    between atoms: C_7  and  O_8
REMARK    4  A    between atoms: O_8  and  C_9
REMARK    5  A    between atoms: N_12  and  C_13
REMARK    6  A    between atoms: C_13  and  C_14
REMARK    7  A    between atoms: C_20  and  O_21
REMARK    8  A    between atoms: O_21  and  C_22
REMARK    9  A    between atoms: C_22  and  C_23
REMARK   10  A    between atoms: C_30  and  N_31
REMARK                            x       y       z     vdW  Elec       q    Type
REMARK                         _______ _______ _______ _____ _____    ______ ____
ROOT
ATOM      1  C   UNL     1      -6.606  -1.150 130.401  0.00  0.00    +0.000 A 
ATOM      2  C   UNL     1      -7.685  -2.065 130.565  0.00  0.00    +0.000 A 
ATOM      3  C   UNL     1      -8.208  -2.870 129.506  0.00  0.00    +0.000 A 
ATOM      4  C   UNL     1      -7.657  -2.776 128.237  0.00  0.00    +0.000 A 
ATOM      5  C   UNL     1      -6.497  -2.010 128.148  0.00  0.00    +0.000 A 
ATOM      6  C   UNL     1      -6.055  -1.064 129.127  0.00  0.00    +0.000 A 
ENDROOT
BRANCH   1   7
ATOM      7  C   UNL     1      -6.033  -0.456 131.638  0.00  0.00    +0.000 C 
BRANCH   7   9
ATOM      8  O   UNL     1      -7.336  -0.324 133.657  0.00  0.00    +0.000 OA
ATOM      9  C   UNL     1      -7.079   0.183 132.564  0.00  0.00    +0.000 C 
ATOM     10  N   UNL     1      -7.525   1.495 132.199  0.00  0.00    +0.000 N 
ATOM     11  C   UNL     1      -8.045   1.800 130.865  0.00  0.00    +0.000 C 
ATOM     12  C   UNL     1      -7.841   3.286 130.475  0.00  0.00    +0.000 C 
ATOM     13  C   UNL     1      -8.741   4.436 131.505  0.00  0.00    +0.000 C 
ATOM     14  C   UNL     1      -7.892   3.917 132.910  0.00  0.00    +0.000 C 
ATOM     15  C   UNL     1      -8.066   2.392 133.239  0.00  0.00    +0.000 C 
BRANCH  13  16
ATOM     16  N   UNL     1     -10.198   5.480 131.025  0.00  0.00    +0.000 N 
ATOM     17  C   UNL     1      -9.195   6.499 130.885  0.00  0.00    +0.000 C 
ATOM     18  O   UNL     1      -8.432   6.941 131.692  0.00  0.00    +0.000 OA
ATOM     19  O   UNL     1      -8.959   6.722 129.571  0.00  0.00    +0.000 OA
ATOM     20  C   UNL     1      -9.746   7.833 129.455  0.00  0.00    +0.000 C 
ATOM     21  C   UNL     1     -10.922   7.149 128.904  0.00  0.00    +0.000 A 
ATOM     22  C   UNL     1     -11.464   8.013 127.780  0.00  0.00    +0.000 A 
ATOM     23  C   UNL     1     -12.773   8.242 127.490  0.00  0.00    +0.000 A 
ATOM     24  C   UNL     1     -13.545   7.568 128.407  0.00  0.00    +0.000 A 
ATOM     25  C   UNL     1     -12.914   6.578 129.581  0.00  0.00    +0.000 A 
ATOM     26  C   UNL     1     -11.413   6.151 129.805  0.00  0.00    +0.000 A 
ENDBRANCH  13  16
ENDBRANCH   7   9
ENDBRANCH   1   7
BRANCH   4  27
ATOM     27  O   UNL     1      -8.175  -3.401 127.109  0.00  0.00    +0.000 OA
BRANCH  27  28
ATOM     28  C   UNL     1      -9.088  -2.678 126.190  0.00  0.00    +0.000 C 
ATOM     29  C   UNL     1      -9.506  -3.290 124.820  0.00  0.00    +0.000 C 
ATOM     30  C   UNL     1      -8.429  -3.253 123.751  0.00  0.00    +0.000 C 
ATOM     31  N   UNL     1      -7.901  -1.883 123.597  0.00  0.00    +0.000 NA
ATOM     32  C   UNL     1      -7.656  -1.174 124.859  0.00  0.00    +0.000 C 
ATOM     33  C   UNL     1      -8.676  -1.247 125.957  0.00  0.00    +0.000 C 
BRANCH  31  34
ATOM     34  C   UNL     1      -6.705  -1.932 122.730  0.00  0.00    +0.000 C 
BRANCH  34  35
ATOM     35  C   UNL     1      -5.404  -2.241 123.442  0.00  0.00    +0.000 C 
ATOM     36  C   UNL     1      -5.267  -3.387 124.424  0.00  0.00    +0.000 C 
ATOM     37  C   UNL     1      -4.502  -3.443 123.134  0.00  0.00    +0.000 C 
ENDBRANCH  34  35
ENDBRANCH  31  34
ENDBRANCH  27  28
ENDBRANCH   4  27
BRANCH   6  38
ATOM     38  O   UNL     1      -5.204  -0.087 128.614  0.00  0.00    +0.000 OA
BRANCH  38  39
ATOM     39  C   UNL     1      -5.690   0.898 127.684  0.00  0.00    +0.000 C 
BRANCH  39  40
ATOM     40  C   UNL     1      -5.062   1.101 126.304  0.00  0.00    +0.000 C 
ATOM     41  F   UNL     1      -5.933   1.653 125.442  0.00  0.00    +0.000 F 
ATOM     42  F   UNL     1      -3.918   1.797 126.253  0.00  0.00    +0.000 F 
ATOM     43  F   UNL     1      -4.736  -0.133 125.822  0.00  0.00    +0.000 F 
ENDBRANCH  39  40
ENDBRANCH  38  39
ENDBRANCH   6  38
TORSDOF 10
ENDMDL
MODEL 2
REMARK VINA RESULT:      -9.8      1.393      1.951
REMARK  Name = CHEMBL24456
REMARK  10 active torsions:
REMARK  status: ('A' for Active; 'I' for Inactive)
REMARK    1  A    between atoms: C_2  and  C_3
REMARK    2  A    between atoms: C_3  and  C_4
REMARK    3  A    between atoms: C_7  and  O_8
REMARK    4  A    between atoms: O_8  and  C_9
REMARK    5  A    between atoms: N_12  and  C_13
REMARK    6  A    between atoms: C_13  and  C_14
REMARK    7  A    between atoms: C_20  and  O_21
REMARK    8  A    between atoms: O_21  and  C_22
REMARK    9  A    between atoms: C_22  and  C_23
REMARK   10  A    between atoms: C_30  and  N_31
REMARK                            x       y       z     vdW  Elec       q    Type
REMARK                         _______ _______ _______ _____ _____    ______ ____
ROOT
ATOM      1  C   UNL     1      -6.735  -1.332 129.818  0.00  0.00    +0.000 A 
ATOM      2  C   UNL     1      -7.889  -2.160 129.721  0.00  0.00    +0.000 A 
ATOM      3  C   UNL     1      -8.286  -2.828 128.521  0.00  0.00    +0.000 A 
ATOM      4  C   UNL     1      -7.525  -2.681 127.371  0.00  0.00    +0.000 A 
ATOM      5  C   UNL     1      -6.314  -2.014 127.541  0.00  0.00    +0.000 A 
ATOM      6  C   UNL     1      -5.974  -1.192 128.662  0.00  0.00    +0.000 A 
ENDROOT
BRANCH   1   7
ATOM      7  C   UNL     1      -6.328  -0.793 131.190  0.00  0.00    +0.000 C 
BRANCH   7   9
ATOM      8  O   UNL     1      -7.897  -0.954 133.008  0.00  0.00    +0.000 OA
ATOM      9  C   UNL     1      -7.490  -0.285 132.057  0.00  0.00    +0.000 C 
ATOM     10  N   UNL     1      -7.878   1.079 131.853  0.00  0.00    +0.000 N 
ATOM     11  C   UNL     1      -8.208   1.608 130.528  0.00  0.00    +0.000 C 
ATOM     12  C   UNL     1      -7.948   3.131 130.416  0.00  0.00    +0.000 C 
ATOM     13  C   UNL     1      -8.979   4.122 131.487  0.00  0.00    +0.000 C 
ATOM     14  C   UNL     1      -8.334   3.364 132.891  0.00  0.00    +0.000 C 
ATOM     15  C   UNL     1      -8.555   1.811 132.941  0.00  0.00    +0.000 C 
BRANCH  13  16
ATOM     16  N   UNL     1     -10.352   5.266 130.988  0.00  0.00    +0.000 N 
ATOM     17  C   UNL     1      -9.303   6.247 131.004  0.00  0.00    +0.000 C 
ATOM     18  O   UNL     1      -8.586   6.589 131.898  0.00  0.00    +0.000 OA
ATOM     19  O   UNL     1      -8.959   6.560 129.733  0.00  0.00    +0.000 OA
ATOM     20  C   UNL     1      -9.690   7.712 129.651  0.00  0.00    +0.000 C 
ATOM     21  C   UNL     1     -10.848   7.127 128.963  0.00  0.00    +0.000 A 
ATOM     22  C   UNL     1     -11.268   8.100 127.877  0.00  0.00    +0.000 A 
ATOM     23  C   UNL     1     -12.541   8.410 127.512  0.00  0.00    +0.000 A 
ATOM     24  C   UNL     1     -13.406   7.702 128.313  0.00  0.00    +0.000 A 
ATOM     25  C   UNL     1     -12.906   6.597 129.445  0.00  0.00    +0.000 A 
ATOM     26  C   UNL     1     -11.445   6.085 129.742  0.00  0.00    +0.000 A 
ENDBRANCH  13  16
ENDBRANCH   7   9
ENDBRANCH   1   7
BRANCH   4  27
ATOM     27  O   UNL     1      -7.892  -3.165 126.121  0.00  0.00    +0.000 OA
BRANCH  27  28
ATOM     28  C   UNL     1      -8.985  -2.526 125.348  0.00  0.00    +0.000 C 
ATOM     29  C   UNL     1      -9.002  -2.563 123.791  0.00  0.00    +0.000 C 
ATOM     30  C   UNL     1      -8.008  -1.633 123.121  0.00  0.00    +0.000 C 
ATOM     31  N   UNL     1      -8.162  -0.257 123.634  0.00  0.00    +0.000 NA
ATOM     32  C   UNL     1      -8.337  -0.160 125.088  0.00  0.00    +0.000 C 
ATOM     33  C   UNL     1      -9.266  -1.111 125.785  0.00  0.00    +0.000 C 
BRANCH  31  34
ATOM     34  C   UNL     1      -7.034   0.561 123.141  0.00  0.00    +0.000 C 
BRANCH  34  35
ATOM     35  C   UNL     1      -7.351   2.023 122.905  0.00  0.00    +0.000 C 
ATOM     36  C   UNL     1      -6.617   3.140 123.619  0.00  0.00    +0.000 C 
ATOM     37  C   UNL     1      -6.454   3.001 122.134  0.00  0.00    +0.000 C 
ENDBRANCH  34  35
ENDBRANCH  31  34
ENDBRANCH  27  28
ENDBRANCH   4  27
BRANCH   6  38
ATOM     38  O   UNL     1      -4.980  -0.255 128.386  0.00  0.00    +0.000 OA
BRANCH  38  39
ATOM     39  C   UNL     1      -5.292   1.147 128.307  0.00  0.00    +0.000 C 
BRANCH  39  40
ATOM     40  C   UNL     1      -5.672   1.828 126.991  0.00  0.00    +0.000 C 
ATOM     41  F   UNL     1      -5.344   1.070 125.930  0.00  0.00    +0.000 F 
ATOM     42  F   UNL     1      -6.946   2.220 126.853  0.00  0.00    +0.000 F 
ATOM     43  F   UNL     1      -4.947   2.982 126.908  0.00  0.00    +0.000 F 
ENDBRANCH  39  40
ENDBRANCH  38  39
ENDBRANCH   6  38
TORSDOF 10
ENDMDL
MODEL 3
REMARK VINA RESULT:      -9.7      2.487      3.456
REMARK  Name = CHEMBL24456
REMARK  10 active torsions:
REMARK  status: ('A' for Active; 'I' for Inactive)
REMARK    1  A    between atoms: C_2  and  C_3
REMARK    2  A    between atoms: C_3  and  C_4
REMARK    3  A    between atoms: C_7  and  O_8
REMARK    4  A    between atoms: O_8  and  C_9
REMARK    5  A    between atoms: N_12  and  C_13
REMARK    6  A    between atoms: C_13  and  C_14
REMARK    7  A    between atoms: C_20  and  O_21
REMARK    8  A    between atoms: O_21  and  C_22
REMARK    9  A    between atoms: C_22  and  C_23
REMARK   10  A    between atoms: C_30  and  N_31
REMARK                            x       y       z     vdW  Elec       q    Type
REMARK                         _______ _______ _______ _____ _____    ______ ____
ROOT
ATOM      1  C   UNL     1      -6.117  -1.058 130.139  0.00  0.00    +0.000 A 
ATOM      2  C   UNL     1      -5.659  -0.501 128.911  0.00  0.00    +0.000 A 
ATOM      3  C   UNL     1      -5.940  -1.068 127.630  0.00  0.00    +0.000 A 
ATOM      4  C   UNL     1      -6.699  -2.226 127.545  0.00  0.00    +0.000 A 
ATOM      5  C   UNL     1      -7.278  -2.645 128.740  0.00  0.00    +0.000 A 
ATOM      6  C   UNL     1      -6.881  -2.216 130.046  0.00  0.00    +0.000 A 
ENDROOT
BRANCH   1   7
ATOM      7  C   UNL     1      -5.881  -0.280 131.434  0.00  0.00    +0.000 C 
BRANCH   7   9
ATOM      8  O   UNL     1      -7.583  -0.610 133.104  0.00  0.00    +0.000 OA
ATOM      9  C   UNL     1      -7.157   0.108 132.198  0.00  0.00    +0.000 C 
ATOM     10  N   UNL     1      -7.648   1.435 131.971  0.00  0.00    +0.000 N 
ATOM     11  C   UNL     1      -7.906   1.953 130.626  0.00  0.00    +0.000 C 
ATOM     12  C   UNL     1      -7.778   3.495 130.549  0.00  0.00    +0.000 C 
ATOM     13  C   UNL     1      -8.984   4.372 131.532  0.00  0.00    +0.000 C 
ATOM     14  C   UNL     1      -8.399   3.653 132.982  0.00  0.00    +0.000 C 
ATOM     15  C   UNL     1      -8.481   2.086 133.000  0.00  0.00    +0.000 C 
BRANCH  13  16
ATOM     16  N   UNL     1     -10.407   5.396 130.923  0.00  0.00    +0.000 N 
ATOM     17  C   UNL     1      -9.416   6.436 130.895  0.00  0.00    +0.000 C 
ATOM     18  O   UNL     1      -8.745   6.880 131.779  0.00  0.00    +0.000 OA
ATOM     19  O   UNL     1      -9.056   6.681 129.613  0.00  0.00    +0.000 OA
ATOM     20  C   UNL     1      -9.849   7.779 129.434  0.00  0.00    +0.000 C 
ATOM     21  C   UNL     1     -10.952   7.081 128.761  0.00  0.00    +0.000 A 
ATOM     22  C   UNL     1     -11.397   7.951 127.600  0.00  0.00    +0.000 A 
ATOM     23  C   UNL     1     -12.675   8.159 127.184  0.00  0.00    +0.000 A 
ATOM     24  C   UNL     1     -13.520   7.458 128.012  0.00  0.00    +0.000 A 
ATOM     25  C   UNL     1     -12.988   6.463 129.230  0.00  0.00    +0.000 A 
ATOM     26  C   UNL     1     -11.509   6.061 129.597  0.00  0.00    +0.000 A 
ENDBRANCH  13  16
ENDBRANCH   7   9
ENDBRANCH   1   7
BRANCH   4  27
ATOM     27  O   UNL     1      -6.914  -2.938 126.371  0.00  0.00    +0.000 OA
BRANCH  27  28
ATOM     28  C   UNL     1      -8.289  -3.191 125.876  0.00  0.00    +0.000 C 
ATOM     29  C   UNL     1      -8.549  -3.641 124.407  0.00  0.00    +0.000 C 
ATOM     30  C   UNL     1      -8.395  -2.546 123.369  0.00  0.00    +0.000 C 
ATOM     31  N   UNL     1      -9.214  -1.372 123.730  0.00  0.00    +0.000 NA
ATOM     32  C   UNL     1      -9.161  -1.001 125.149  0.00  0.00    +0.000 C 
ATOM     33  C   UNL     1      -9.246  -2.071 126.197  0.00  0.00    +0.000 C 
BRANCH  31  34
ATOM     34  C   UNL     1      -8.857  -0.252 122.835  0.00  0.00    +0.000 C 
BRANCH  34  35
ATOM     35  C   UNL     1      -9.577   1.052 123.114  0.00  0.00    +0.000 C 
ATOM     36  C   UNL     1      -9.043   2.081 124.090  0.00  0.00    +0.000 C 
ATOM     37  C   UNL     1      -9.108   2.431 122.631  0.00  0.00    +0.000 C 
ENDBRANCH  34  35
ENDBRANCH  31  34
ENDBRANCH  27  28
ENDBRANCH   4  27
BRANCH   6  38
ATOM     38  O   UNL     1      -7.221  -3.114 131.056  0.00  0.00    +0.000 OA
BRANCH  38  39
ATOM     39  C   UNL     1      -6.203  -3.749 131.850  0.00  0.00    +0.000 C 
BRANCH  39  40
ATOM     40  C   UNL     1      -5.309  -4.861 131.298  0.00  0.00    +0.000 C 
ATOM     41  F   UNL     1      -4.770  -5.597 132.285  0.00  0.00    +0.000 F 
ATOM     42  F   UNL     1      -5.856  -5.693 130.401  0.00  0.00    +0.000 F 
ATOM     43  F   UNL     1      -4.283  -4.260 130.628  0.00  0.00    +0.000 F 
ENDBRANCH  39  40
ENDBRANCH  38  39
ENDBRANCH   6  38
TORSDOF 10
ENDMDL
MODEL 4
REMARK VINA RESULT:      -9.6      2.576      3.636
REMARK  Name = CHEMBL24456
REMARK  10 active torsions:
REMARK  status: ('A' for Active; 'I' for Inactive)
REMARK    1  A    between atoms: C_2  and  C_3
REMARK    2  A    between atoms: C_3  and  C_4
REMARK    3  A    between atoms: C_7  and  O_8
REMARK    4  A    between atoms: O_8  and  C_9
REMARK    5  A    between atoms: N_12  and  C_13
REMARK    6  A    between atoms: C_13  and  C_14
REMARK    7  A    between atoms: C_20  and  O_21
REMARK    8  A    between atoms: O_21  and  C_22
REMARK    9  A    between atoms: C_22  and  C_23
REMARK   10  A    between atoms: C_30  and  N_31
REMARK                            x       y       z     vdW  Elec       q    Type
REMARK                         _______ _______ _______ _____ _____    ______ ____
ROOT
ATOM      1  C   UNL     1      -6.074  -1.278 129.417  0.00  0.00    +0.000 A 
ATOM      2  C   UNL     1      -5.641  -0.929 128.105  0.00  0.00    +0.000 A 
ATOM      3  C   UNL     1      -6.133  -1.553 126.917  0.00  0.00    +0.000 A 
ATOM      4  C   UNL     1      -7.083  -2.558 127.013  0.00  0.00    +0.000 A 
ATOM      5  C   UNL     1      -7.614  -2.753 128.286  0.00  0.00    +0.000 A 
ATOM      6  C   UNL     1      -7.031  -2.284 129.506  0.00  0.00    +0.000 A 
ENDROOT
BRANCH   1   7
ATOM      7  C   UNL     1      -5.591  -0.439 130.600  0.00  0.00    +0.000 C 
BRANCH   7   9
ATOM      8  O   UNL     1      -7.110  -0.150 132.444  0.00  0.00    +0.000 OA
ATOM      9  C   UNL     1      -6.700   0.293 131.371  0.00  0.00    +0.000 C 
ATOM     10  N   UNL     1      -7.026   1.609 130.906  0.00  0.00    +0.000 N 
ATOM     11  C   UNL     1      -7.369   1.881 129.509  0.00  0.00    +0.000 C 
ATOM     12  C   UNL     1      -7.037   3.336 129.089  0.00  0.00    +0.000 C 
ATOM     13  C   UNL     1      -7.985   4.575 129.961  0.00  0.00    +0.000 C 
ATOM     14  C   UNL     1      -7.336   4.076 131.475  0.00  0.00    +0.000 C 
ATOM     15  C   UNL     1      -7.632   2.578 131.839  0.00  0.00    +0.000 C 
BRANCH  13  16
ATOM     16  N   UNL     1      -9.314   5.670 129.271  0.00  0.00    +0.000 N 
ATOM     17  C   UNL     1     -10.174   4.806 130.032  0.00  0.00    +0.000 C 
ATOM     18  O   UNL     1     -10.330   3.623 129.961  0.00  0.00    +0.000 OA
ATOM     19  O   UNL     1     -10.602   5.457 131.140  0.00  0.00    +0.000 OA
ATOM     20  C   UNL     1     -11.823   5.820 130.646  0.00  0.00    +0.000 C 
ATOM     21  C   UNL     1     -11.447   7.184 130.254  0.00  0.00    +0.000 A 
ATOM     22  C   UNL     1     -12.582   8.103 130.667  0.00  0.00    +0.000 A 
ATOM     23  C   UNL     1     -13.063   9.166 129.967  0.00  0.00    +0.000 A 
ATOM     24  C   UNL     1     -12.355   9.268 128.793  0.00  0.00    +0.000 A 
ATOM     25  C   UNL     1     -11.075   8.283 128.410  0.00  0.00    +0.000 A 
ATOM     26  C   UNL     1     -10.385   7.176 129.295  0.00  0.00    +0.000 A 
ENDBRANCH  13  16
ENDBRANCH   7   9
ENDBRANCH   1   7
BRANCH   4  27
ATOM     27  O   UNL     1      -7.524  -3.325 125.941  0.00  0.00    +0.000 OA
BRANCH  27  28
ATOM     28  C   UNL     1      -8.680  -2.891 125.120  0.00  0.00    +0.000 C 
ATOM     29  C   UNL     1      -8.555  -2.718 123.577  0.00  0.00    +0.000 C 
ATOM     30  C   UNL     1      -7.797  -1.480 123.134  0.00  0.00    +0.000 C 
ATOM     31  N   UNL     1      -8.361  -0.274 123.772  0.00  0.00    +0.000 NA
ATOM     32  C   UNL     1      -8.678  -0.426 125.197  0.00  0.00    +0.000 C 
ATOM     33  C   UNL     1      -9.370  -1.670 125.672  0.00  0.00    +0.000 C 
BRANCH  31  34
ATOM     34  C   UNL     1      -7.460   0.866 123.508  0.00  0.00    +0.000 C 
BRANCH  34  35
ATOM     35  C   UNL     1      -6.924   1.566 124.740  0.00  0.00    +0.000 C 
ATOM     36  C   UNL     1      -6.126   2.852 124.663  0.00  0.00    +0.000 C 
ATOM     37  C   UNL     1      -7.478   2.876 125.314  0.00  0.00    +0.000 C 
ENDBRANCH  34  35
ENDBRANCH  31  34
ENDBRANCH  27  28
ENDBRANCH   4  27
BRANCH   6  38
ATOM     38  O   UNL     1      -7.426  -3.008 130.628  0.00  0.00    +0.000 OA
BRANCH  38  39
ATOM     39  C   UNL     1      -6.450  -3.601 131.503  0.00  0.00    +0.000 C 
BRANCH  39  40
ATOM     40  C   UNL     1      -5.480  -4.686 131.032  0.00  0.00    +0.000 C 
ATOM     41  F   UNL     1      -4.429  -4.159 130.379  0.00  0.00    +0.000 F 
ATOM     42  F   UNL     1      -5.017  -5.535 131.961  0.00  0.00    +0.000 F 
ATOM     43  F   UNL     1      -6.155  -5.477 130.148  0.00  0.00    +0.000 F 
ENDBRANCH  39  40
ENDBRANCH  38  39
ENDBRANCH   6  38
TORSDOF 10
ENDMDL
MODEL 5
REMARK VINA RESULT:      -9.6      4.541      9.148
REMARK  Name = CHEMBL24456
REMARK  10 active torsions:
REMARK  status: ('A' for Active; 'I' for Inactive)
REMARK    1  A    between atoms: C_2  and  C_3
REMARK    2  A    between atoms: C_3  and  C_4
REMARK    3  A    between atoms: C_7  and  O_8
REMARK    4  A    between atoms: O_8  and  C_9
REMARK    5  A    between atoms: N_12  and  C_13
REMARK    6  A    between atoms: C_13  and  C_14
REMARK    7  A    between atoms: C_20  and  O_21
REMARK    8  A    between atoms: O_21  and  C_22
REMARK    9  A    between atoms: C_22  and  C_23
REMARK   10  A    between atoms: C_30  and  N_31
REMARK                            x       y       z     vdW  Elec       q    Type
REMARK                         _______ _______ _______ _____ _____    ______ ____
ROOT
ATOM      1  C   UNL     1      -3.780   2.549 134.034  0.00  0.00    +0.000 A 
ATOM      2  C   UNL     1      -2.735   2.759 133.089  0.00  0.00    +0.000 A 
ATOM      3  C   UNL     1      -2.374   4.045 132.580  0.00  0.00    +0.000 A 
ATOM      4  C   UNL     1      -3.060   5.170 133.011  0.00  0.00    +0.000 A 
ATOM      5  C   UNL     1      -3.951   4.956 134.060  0.00  0.00    +0.000 A 
ATOM      6  C   UNL     1      -4.461   3.682 134.465  0.00  0.00    +0.000 A 
ENDROOT
BRANCH   1   7
ATOM      7  C   UNL     1      -3.975   1.150 134.619  0.00  0.00    +0.000 C 
BRANCH   7   9
ATOM      8  O   UNL     1      -6.131   0.118 134.897  0.00  0.00    +0.000 OA
ATOM      9  C   UNL     1      -5.223   0.406 134.118  0.00  0.00    +0.000 C 
ATOM     10  N   UNL     1      -5.368   0.309 132.695  0.00  0.00    +0.000 N 
ATOM     11  C   UNL     1      -4.309  -0.222 131.836  0.00  0.00    +0.000 C 
ATOM     12  C   UNL     1      -4.371   0.349 130.396  0.00  0.00    +0.000 C 
ATOM     13  C   UNL     1      -5.848  -0.104 129.501  0.00  0.00    +0.000 C 
ATOM     14  C   UNL     1      -6.850   0.689 130.654  0.00  0.00    +0.000 C 
ATOM     15  C   UNL     1      -6.714   0.132 132.115  0.00  0.00    +0.000 C 
BRANCH  13  16
ATOM     16  N   UNL     1      -5.981  -1.253 128.049  0.00  0.00    +0.000 N 
ATOM     17  C   UNL     1      -6.727  -2.055 128.978  0.00  0.00    +0.000 C 
ATOM     18  O   UNL     1      -6.398  -2.518 130.031  0.00  0.00    +0.000 OA
ATOM     19  O   UNL     1      -8.046  -1.979 128.681  0.00  0.00    +0.000 OA
ATOM     20  C   UNL     1      -8.120  -3.157 127.993  0.00  0.00    +0.000 C 
ATOM     21  C   UNL     1      -8.006  -2.574 126.650  0.00  0.00    +0.000 A 
ATOM     22  C   UNL     1      -9.016  -3.280 125.763  0.00  0.00    +0.000 A 
ATOM     23  C   UNL     1      -8.838  -3.653 124.467  0.00  0.00    +0.000 A 
ATOM     24  C   UNL     1      -7.566  -3.299 124.084  0.00  0.00    +0.000 A 
ATOM     25  C   UNL     1      -6.516  -2.467 125.064  0.00  0.00    +0.000 A 
ATOM     26  C   UNL     1      -6.776  -1.859 126.495  0.00  0.00    +0.000 A 
ENDBRANCH  13  16
ENDBRANCH   7   9
ENDBRANCH   1   7
BRANCH   4  27
ATOM     27  O   UNL     1      -2.890   6.443 132.480  0.00  0.00    +0.000 OA
BRANCH  27  28
ATOM     28  C   UNL     1      -4.013   7.146 131.813  0.00  0.00    +0.000 C 
ATOM     29  C   UNL     1      -5.257   6.367 131.291  0.00  0.00    +0.000 C 
ATOM     30  C   UNL     1      -5.022   5.572 130.020  0.00  0.00    +0.000 C 
ATOM     31  N   UNL     1      -4.440   6.433 128.972  0.00  0.00    +0.000 NA
ATOM     32  C   UNL     1      -3.379   7.334 129.437  0.00  0.00    +0.000 C 
ATOM     33  C   UNL     1      -3.558   8.083 130.725  0.00  0.00    +0.000 C 
BRANCH  31  34
ATOM     34  C   UNL     1      -4.010   5.581 127.844  0.00  0.00    +0.000 C 
BRANCH  34  35
ATOM     35  C   UNL     1      -2.943   4.559 128.178  0.00  0.00    +0.000 C 
ATOM     36  C   UNL     1      -3.210   3.067 128.152  0.00  0.00    +0.000 C 
ATOM     37  C   UNL     1      -2.251   3.648 127.154  0.00  0.00    +0.000 C 
ENDBRANCH  34  35
ENDBRANCH  31  34
ENDBRANCH  27  28
ENDBRANCH   4  27
BRANCH   6  38
ATOM     38  O   UNL     1      -5.673   3.758 135.149  0.00  0.00    +0.000 OA
BRANCH  38  39
ATOM     39  C   UNL     1      -6.919   3.524 134.468  0.00  0.00    +0.000 C 
BRANCH  39  40
ATOM     40  C   UNL     1      -8.104   4.484 134.577  0.00  0.00    +0.000 C 
ATOM     41  F   UNL     1      -9.267   3.866 134.305  0.00  0.00    +0.000 F 
ATOM     42  F   UNL     1      -8.241   5.154 135.730  0.00  0.00    +0.000 F 
ATOM     43  F   UNL     1      -7.927   5.455 133.634  0.00  0.00    +0.000 F 
ENDBRANCH  39  40
ENDBRANCH  38  39
ENDBRANCH   6  38
TORSDOF 10
ENDMDL
MODEL 6
REMARK VINA RESULT:      -9.4      4.387      8.413
REMARK  Name = CHEMBL24456
REMARK  10 active torsions:
REMARK  status: ('A' for Active; 'I' for Inactive)
REMARK    1  A    between atoms: C_2  and  C_3
REMARK    2  A    between atoms: C_3  and  C_4
REMARK    3  A    between atoms: C_7  and  O_8
REMARK    4  A    between atoms: O_8  and  C_9
REMARK    5  A    between atoms: N_12  and  C_13
REMARK    6  A    between atoms: C_13  and  C_14
REMARK    7  A    between atoms: C_20  and  O_21
REMARK    8  A    between atoms: O_21  and  C_22
REMARK    9  A    between atoms: C_22  and  C_23
REMARK   10  A    between atoms: C_30  and  N_31
REMARK                            x       y       z     vdW  Elec       q    Type
REMARK                         _______ _______ _______ _____ _____    ______ ____
ROOT
ATOM      1  C   UNL     1      -4.383   2.118 133.113  0.00  0.00    +0.000 A 
ATOM      2  C   UNL     1      -3.402   2.532 132.166  0.00  0.00    +0.000 A 
ATOM      3  C   UNL     1      -3.088   3.900 131.898  0.00  0.00    +0.000 A 
ATOM      4  C   UNL     1      -3.759   4.904 132.581  0.00  0.00    +0.000 A 
ATOM      5  C   UNL     1      -4.579   4.469 133.620  0.00  0.00    +0.000 A 
ATOM      6  C   UNL     1      -5.049   3.129 133.797  0.00  0.00    +0.000 A 
ENDROOT
BRANCH   1   7
ATOM      7  C   UNL     1      -4.525   0.627 133.423  0.00  0.00    +0.000 C 
BRANCH   7   9
ATOM      8  O   UNL     1      -6.608  -0.327 134.159  0.00  0.00    +0.000 OA
ATOM      9  C   UNL     1      -5.931   0.050 133.201  0.00  0.00    +0.000 C 
ATOM     10  N   UNL     1      -6.480   0.218 131.888  0.00  0.00    +0.000 N 
ATOM     11  C   UNL     1      -5.764  -0.203 130.682  0.00  0.00    +0.000 C 
ATOM     12  C   UNL     1      -6.171   0.619 129.434  0.00  0.00    +0.000 C 
ATOM     13  C   UNL     1      -7.879   0.411 128.953  0.00  0.00    +0.000 C 
ATOM     14  C   UNL     1      -8.430   1.034 130.460  0.00  0.00    +0.000 C 
ATOM     15  C   UNL     1      -7.945   0.216 131.709  0.00  0.00    +0.000 C 
BRANCH  13  16
ATOM     16  N   UNL     1      -8.529  -0.450 127.443  0.00  0.00    +0.000 N 
ATOM     17  C   UNL     1      -8.442   0.865 126.873  0.00  0.00    +0.000 C 
ATOM     18  O   UNL     1      -8.970   1.884 127.208  0.00  0.00    +0.000 OA
ATOM     19  O   UNL     1      -7.378   0.925 126.037  0.00  0.00    +0.000 OA
ATOM     20  C   UNL     1      -8.078   0.743 124.878  0.00  0.00    +0.000 C 
ATOM     21  C   UNL     1      -7.822  -0.698 124.752  0.00  0.00    +0.000 A 
ATOM     22  C   UNL     1      -7.503  -0.974 123.293  0.00  0.00    +0.000 A 
ATOM     23  C   UNL     1      -7.900  -2.052 122.565  0.00  0.00    +0.000 A 
ATOM     24  C   UNL     1      -8.668  -2.860 123.370  0.00  0.00    +0.000 A 
ATOM     25  C   UNL     1      -8.937  -2.556 124.979  0.00  0.00    +0.000 A 
ATOM     26  C   UNL     1      -8.325  -1.417 125.882  0.00  0.00    +0.000 A 
ENDBRANCH  13  16
ENDBRANCH   7   9
ENDBRANCH   1   7
BRANCH   4  27
ATOM     27  O   UNL     1      -3.636   6.259 132.301  0.00  0.00    +0.000 OA
BRANCH  27  28
ATOM     28  C   UNL     1      -4.632   6.952 131.448  0.00  0.00    +0.000 C 
ATOM     29  C   UNL     1      -5.781   6.167 130.747  0.00  0.00    +0.000 C 
ATOM     30  C   UNL     1      -5.351   5.345 129.547  0.00  0.00    +0.000 C 
ATOM     31  N   UNL     1      -4.601   6.181 128.589  0.00  0.00    +0.000 NA
ATOM     32  C   UNL     1      -3.622   7.087 129.202  0.00  0.00    +0.000 C 
ATOM     33  C   UNL     1      -4.000   7.865 130.428  0.00  0.00    +0.000 C 
BRANCH  31  34
ATOM     34  C   UNL     1      -4.001   5.303 127.563  0.00  0.00    +0.000 C 
BRANCH  34  35
ATOM     35  C   UNL     1      -2.996   4.296 128.083  0.00  0.00    +0.000 C 
ATOM     36  C   UNL     1      -3.228   2.800 128.002  0.00  0.00    +0.000 C 
ATOM     37  C   UNL     1      -2.112   3.405 127.201  0.00  0.00    +0.000 C 
ENDBRANCH  34  35
ENDBRANCH  31  34
ENDBRANCH  27  28
ENDBRANCH   4  27
BRANCH   6  38
ATOM     38  O   UNL     1      -6.215   3.042 134.553  0.00  0.00    +0.000 OA
BRANCH  38  39
ATOM     39  C   UNL     1      -7.507   3.159 133.931  0.00  0.00    +0.000 C 
BRANCH  39  40
ATOM     40  C   UNL     1      -8.388   4.398 134.102  0.00  0.00    +0.000 C 
ATOM     41  F   UNL     1      -7.897   5.451 133.426  0.00  0.00    +0.000 F 
ATOM     42  F   UNL     1      -9.687   4.268 133.795  0.00  0.00    +0.000 F 
ATOM     43  F   UNL     1      -8.379   4.722 135.428  0.00  0.00    +0.000 F 
ENDBRANCH  39  40
ENDBRANCH  38  39
ENDBRANCH   6  38
TORSDOF 10
ENDMDL
MODEL 7
REMARK VINA RESULT:      -9.4      4.835      6.772
REMARK  Name = CHEMBL24456
REMARK  10 active torsions:
REMARK  status: ('A' for Active; 'I' for Inactive)
REMARK    1  A    between atoms: C_2  and  C_3
REMARK    2  A    between atoms: C_3  and  C_4
REMARK    3  A    between atoms: C_7  and  O_8
REMARK    4  A    between atoms: O_8  and  C_9
REMARK    5  A    between atoms: N_12  and  C_13
REMARK    6  A    between atoms: C_13  and  C_14
REMARK    7  A    between atoms: C_20  and  O_21
REMARK    8  A    between atoms: O_21  and  C_22
REMARK    9  A    between atoms: C_22  and  C_23
REMARK   10  A    between atoms: C_30  and  N_31
REMARK                            x       y       z     vdW  Elec       q    Type
REMARK                         _______ _______ _______ _____ _____    ______ ____
ROOT
ATOM      1  C   UNL     1      -7.265   2.247 125.546  0.00  0.00    +0.000 A 
ATOM      2  C   UNL     1      -7.848   1.148 126.238  0.00  0.00    +0.000 A 
ATOM      3  C   UNL     1      -8.632   0.136 125.600  0.00  0.00    +0.000 A 
ATOM      4  C   UNL     1      -8.856   0.202 124.233  0.00  0.00    +0.000 A 
ATOM      5  C   UNL     1      -8.131   1.183 123.560  0.00  0.00    +0.000 A 
ATOM      6  C   UNL     1      -7.490   2.305 124.174  0.00  0.00    +0.000 A 
ENDROOT
BRANCH   1   7
ATOM      7  C   UNL     1      -6.323   3.181 126.307  0.00  0.00    +0.000 C 
BRANCH   7   9
ATOM      8  O   UNL     1      -8.211   4.265 127.333  0.00  0.00    +0.000 OA
ATOM      9  C   UNL     1      -6.999   4.050 127.379  0.00  0.00    +0.000 C 
ATOM     10  N   UNL     1      -6.204   4.362 128.529  0.00  0.00    +0.000 N 
ATOM     11  C   UNL     1      -4.873   4.961 128.420  0.00  0.00    +0.000 C 
ATOM     12  C   UNL     1      -3.964   4.612 129.626  0.00  0.00    +0.000 C 
ATOM     13  C   UNL     1      -4.547   5.263 131.184  0.00  0.00    +0.000 C 
ATOM     14  C   UNL     1      -6.007   4.358 131.072  0.00  0.00    +0.000 C 
ATOM     15  C   UNL     1      -6.871   4.688 129.805  0.00  0.00    +0.000 C 
BRANCH  13  16
ATOM     16  N   UNL     1      -3.783   6.617 132.197  0.00  0.00    +0.000 N 
ATOM     17  C   UNL     1      -3.085   5.522 132.811  0.00  0.00    +0.000 C 
ATOM     18  O   UNL     1      -3.512   4.565 133.387  0.00  0.00    +0.000 OA
ATOM     19  O   UNL     1      -1.802   5.506 132.378  0.00  0.00    +0.000 OA
ATOM     20  C   UNL     1      -1.261   6.131 133.466  0.00  0.00    +0.000 C 
ATOM     21  C   UNL     1      -1.213   7.476 132.879  0.00  0.00    +0.000 A 
ATOM     22  C   UNL     1       0.124   8.088 133.257  0.00  0.00    +0.000 A 
ATOM     23  C   UNL     1       0.355   9.381 133.610  0.00  0.00    +0.000 A 
ATOM     24  C   UNL     1      -0.843  10.057 133.589  0.00  0.00    +0.000 A 
ATOM     25  C   UNL     1      -2.273   9.367 133.105  0.00  0.00    +0.000 A 
ATOM     26  C   UNL     1      -2.520   7.929 132.509  0.00  0.00    +0.000 A 
ENDBRANCH  13  16
ENDBRANCH   7   9
ENDBRANCH   1   7
BRANCH   4  27
ATOM     27  O   UNL     1      -9.713  -0.641 123.537  0.00  0.00    +0.000 OA
BRANCH  27  28
ATOM     28  C   UNL     1      -9.282  -2.004 123.141  0.00  0.00    +0.000 C 
ATOM     29  C   UNL     1      -9.182  -3.156 124.185  0.00  0.00    +0.000 C 
ATOM     30  C   UNL     1      -7.987  -3.067 125.117  0.00  0.00    +0.000 C 
ATOM     31  N   UNL     1      -6.738  -2.925 124.342  0.00  0.00    +0.000 NA
ATOM     32  C   UNL     1      -6.817  -1.985 123.218  0.00  0.00    +0.000 C 
ATOM     33  C   UNL     1      -8.018  -2.007 122.319  0.00  0.00    +0.000 C 
BRANCH  31  34
ATOM     34  C   UNL     1      -5.637  -2.606 125.275  0.00  0.00    +0.000 C 
BRANCH  34  35
ATOM     35  C   UNL     1      -6.069  -2.186 126.665  0.00  0.00    +0.000 C 
ATOM     36  C   UNL     1      -5.247  -2.494 127.900  0.00  0.00    +0.000 C 
ATOM     37  C   UNL     1      -5.418  -1.062 127.482  0.00  0.00    +0.000 C 
ENDBRANCH  34  35
ENDBRANCH  31  34
ENDBRANCH  27  28
ENDBRANCH   4  27
BRANCH   6  38
ATOM     38  O   UNL     1      -7.289   3.377 123.307  0.00  0.00    +0.000 OA
BRANCH  38  39
ATOM     39  C   UNL     1      -7.389   3.200 121.882  0.00  0.00    +0.000 C 
BRANCH  39  40
ATOM     40  C   UNL     1      -6.239   3.541 120.933  0.00  0.00    +0.000 C 
ATOM     41  F   UNL     1      -5.374   2.518 120.817  0.00  0.00    +0.000 F 
ATOM     42  F   UNL     1      -6.568   3.958 119.703  0.00  0.00    +0.000 F 
ATOM     43  F   UNL     1      -5.559   4.591 121.481  0.00  0.00    +0.000 F 
ENDBRANCH  39  40
ENDBRANCH  38  39
ENDBRANCH   6  38
TORSDOF 10
ENDMDL
MODEL 8
REMARK VINA RESULT:      -9.4      3.856      8.289
REMARK  Name = CHEMBL24456
REMARK  10 active torsions:
REMARK  status: ('A' for Active; 'I' for Inactive)
REMARK    1  A    between atoms: C_2  and  C_3
REMARK    2  A    between atoms: C_3  and  C_4
REMARK    3  A    between atoms: C_7  and  O_8
REMARK    4  A    between atoms: O_8  and  C_9
REMARK    5  A    between atoms: N_12  and  C_13
REMARK    6  A    between atoms: C_13  and  C_14
REMARK    7  A    between atoms: C_20  and  O_21
REMARK    8  A    between atoms: O_21  and  C_22
REMARK    9  A    between atoms: C_22  and  C_23
REMARK   10  A    between atoms: C_30  and  N_31
REMARK                            x       y       z     vdW  Elec       q    Type
REMARK                         _______ _______ _______ _____ _____    ______ ____
ROOT
ATOM      1  C   UNL     1      -6.832  -2.079 129.411  0.00  0.00    +0.000 A 
ATOM      2  C   UNL     1      -8.006  -1.336 129.725  0.00  0.00    +0.000 A 
ATOM      3  C   UNL     1      -8.106  -0.447 130.839  0.00  0.00    +0.000 A 
ATOM      4  C   UNL     1      -7.017  -0.276 131.680  0.00  0.00    +0.000 A 
ATOM      5  C   UNL     1      -5.835  -0.875 131.249  0.00  0.00    +0.000 A 
ATOM      6  C   UNL     1      -5.742  -1.900 130.255  0.00  0.00    +0.000 A 
ENDROOT
BRANCH   1   7
ATOM      7  C   UNL     1      -6.794  -2.881 128.109  0.00  0.00    +0.000 C 
BRANCH   7   9
ATOM      8  O   UNL     1      -8.851  -3.333 126.945  0.00  0.00    +0.000 OA
ATOM      9  C   UNL     1      -7.915  -2.551 127.112  0.00  0.00    +0.000 C 
ATOM     10  N   UNL     1      -7.932  -1.210 126.605  0.00  0.00    +0.000 N 
ATOM     11  C   UNL     1      -6.757  -0.594 125.986  0.00  0.00    +0.000 C 
ATOM     12  C   UNL     1      -6.757   0.950 126.121  0.00  0.00    +0.000 C 
ATOM     13  C   UNL     1      -8.102   1.752 125.263  0.00  0.00    +0.000 C 
ATOM     14  C   UNL     1      -9.270   0.927 126.220  0.00  0.00    +0.000 C 
ATOM     15  C   UNL     1      -9.200  -0.637 126.113  0.00  0.00    +0.000 C 
BRANCH  13  16
ATOM     16  N   UNL     1      -7.998   2.819 123.748  0.00  0.00    +0.000 N 
ATOM     17  C   UNL     1      -7.075   3.567 124.555  0.00  0.00    +0.000 C 
ATOM     18  O   UNL     1      -7.240   4.107 125.609  0.00  0.00    +0.000 OA
ATOM     19  O   UNL     1      -5.811   3.330 124.132  0.00  0.00    +0.000 OA
ATOM     20  C   UNL     1      -5.682   4.463 123.380  0.00  0.00    +0.000 C 
ATOM     21  C   UNL     1      -5.998   3.843 122.087  0.00  0.00    +0.000 A 
ATOM     22  C   UNL     1      -5.015   4.393 121.069  0.00  0.00    +0.000 A 
ATOM     23  C   UNL     1      -5.286   4.730 119.779  0.00  0.00    +0.000 A 
ATOM     24  C   UNL     1      -6.622   4.508 119.544  0.00  0.00    +0.000 A 
ATOM     25  C   UNL     1      -7.649   3.842 120.665  0.00  0.00    +0.000 A 
ATOM     26  C   UNL     1      -7.308   3.267 122.093  0.00  0.00    +0.000 A 
ENDBRANCH  13  16
ENDBRANCH   7   9
ENDBRANCH   1   7
BRANCH   4  27
ATOM     27  O   UNL     1      -7.047   0.449 132.865  0.00  0.00    +0.000 OA
BRANCH  27  28
ATOM     28  C   UNL     1      -6.290   1.717 133.000  0.00  0.00    +0.000 C 
ATOM     29  C   UNL     1      -6.667   2.771 134.083  0.00  0.00    +0.000 C 
ATOM     30  C   UNL     1      -7.921   3.572 133.783  0.00  0.00    +0.000 C 
ATOM     31  N   UNL     1      -7.838   4.178 132.440  0.00  0.00    +0.000 NA
ATOM     32  C   UNL     1      -7.312   3.289 131.397  0.00  0.00    +0.000 C 
ATOM     33  C   UNL     1      -6.111   2.438 131.689  0.00  0.00    +0.000 C 
BRANCH  31  34
ATOM     34  C   UNL     1      -9.158   4.743 132.093  0.00  0.00    +0.000 C 
BRANCH  34  35
ATOM     35  C   UNL     1      -9.180   6.241 131.863  0.00  0.00    +0.000 C 
ATOM     36  C   UNL     1      -8.210   6.932 130.925  0.00  0.00    +0.000 C 
ATOM     37  C   UNL     1      -9.671   6.922 130.579  0.00  0.00    +0.000 C 
ENDBRANCH  34  35
ENDBRANCH  31  34
ENDBRANCH  27  28
ENDBRANCH   4  27
BRANCH   6  38
ATOM     38  O   UNL     1      -4.590  -2.677 130.361  0.00  0.00    +0.000 OA
BRANCH  38  39
ATOM     39  C   UNL     1      -4.461  -3.665 131.399  0.00  0.00    +0.000 C 
BRANCH  39  40
ATOM     40  C   UNL     1      -5.473  -4.798 131.580  0.00  0.00    +0.000 C 
ATOM     41  F   UNL     1      -6.519  -4.411 132.331  0.00  0.00    +0.000 F 
ATOM     42  F   UNL     1      -5.944  -5.378 130.466  0.00  0.00    +0.000 F 
ATOM     43  F   UNL     1      -4.839  -5.805 132.249  0.00  0.00    +0.000 F 
ENDBRANCH  39  40
ENDBRANCH  38  39
ENDBRANCH   6  38
TORSDOF 10
ENDMDL
MODEL 9
REMARK VINA RESULT:      -9.4      6.205     11.274
REMARK  Name = CHEMBL24456
REMARK  10 active torsions:
REMARK  status: ('A' for Active; 'I' for Inactive)
REMARK    1  A    between atoms: C_2  and  C_3
REMARK    2  A    between atoms: C_3  and  C_4
REMARK    3  A    between atoms: C_7  and  O_8
REMARK    4  A    between atoms: O_8  and  C_9
REMARK    5  A    between atoms: N_12  and  C_13
REMARK    6  A    between atoms: C_13  and  C_14
REMARK    7  A    between atoms: C_20  and  O_21
REMARK    8  A    between atoms: O_21  and  C_22
REMARK    9  A    between atoms: C_22  and  C_23
REMARK   10  A    between atoms: C_30  and  N_31
REMARK                            x       y       z     vdW  Elec       q    Type
REMARK                         _______ _______ _______ _____ _____    ______ ____
ROOT
ATOM      1  C   UNL     1      -3.283   4.771 131.923  0.00  0.00    +0.000 A 
ATOM      2  C   UNL     1      -2.514   4.816 133.121  0.00  0.00    +0.000 A 
ATOM      3  C   UNL     1      -2.264   6.015 133.857  0.00  0.00    +0.000 A 
ATOM      4  C   UNL     1      -2.784   7.218 133.405  0.00  0.00    +0.000 A 
ATOM      5  C   UNL     1      -3.673   7.117 132.337  0.00  0.00    +0.000 A 
ATOM      6  C   UNL     1      -3.805   5.980 131.478  0.00  0.00    +0.000 A 
ENDROOT
BRANCH   1   7
ATOM      7  C   UNL     1      -3.610   3.410 131.308  0.00  0.00    +0.000 C 
BRANCH   7   9
ATOM      8  O   UNL     1      -5.576   3.035 132.644  0.00  0.00    +0.000 OA
ATOM      9  C   UNL     1      -5.050   2.925 131.536  0.00  0.00    +0.000 C 
ATOM     10  N   UNL     1      -5.796   2.592 130.358  0.00  0.00    +0.000 N 
ATOM     11  C   UNL     1      -5.293   1.651 129.355  0.00  0.00    +0.000 C 
ATOM     12  C   UNL     1      -5.870   1.925 127.943  0.00  0.00    +0.000 C 
ATOM     13  C   UNL     1      -7.637   1.697 127.826  0.00  0.00    +0.000 C 
ATOM     14  C   UNL     1      -7.924   2.928 128.993  0.00  0.00    +0.000 C 
ATOM     15  C   UNL     1      -7.270   2.652 130.393  0.00  0.00    +0.000 C 
BRANCH  13  16
ATOM     16  N   UNL     1      -8.544   0.358 126.914  0.00  0.00    +0.000 N 
ATOM     17  C   UNL     1      -8.610   1.352 125.880  0.00  0.00    +0.000 C 
ATOM     18  O   UNL     1      -9.094   2.446 125.896  0.00  0.00    +0.000 OA
ATOM     19  O   UNL     1      -7.733   1.040 124.897  0.00  0.00    +0.000 OA
ATOM     20  C   UNL     1      -8.641   0.464 124.053  0.00  0.00    +0.000 C 
ATOM     21  C   UNL     1      -8.370  -0.926 124.439  0.00  0.00    +0.000 A 
ATOM     22  C   UNL     1      -8.334  -1.751 123.165  0.00  0.00    +0.000 A 
ATOM     23  C   UNL     1      -8.832  -3.005 122.994  0.00  0.00    +0.000 A 
ATOM     24  C   UNL     1      -9.403  -3.410 124.179  0.00  0.00    +0.000 A 
ATOM     25  C   UNL     1      -9.361  -2.504 125.569  0.00  0.00    +0.000 A 
ATOM     26  C   UNL     1      -8.620  -1.138 125.832  0.00  0.00    +0.000 A 
ENDBRANCH  13  16
ENDBRANCH   7   9
ENDBRANCH   1   7
BRANCH   4  27
ATOM     27  O   UNL     1      -2.488   8.458 133.959  0.00  0.00    +0.000 OA
BRANCH  27  28
ATOM     28  C   UNL     1      -1.350   8.619 134.897  0.00  0.00    +0.000 C 
ATOM     29  C   UNL     1      -1.231   9.873 135.814  0.00  0.00    +0.000 C 
ATOM     30  C   UNL     1      -0.803  11.143 135.103  0.00  0.00    +0.000 C 
ATOM     31  N   UNL     1       0.437  10.912 134.334  0.00  0.00    +0.000 NA
ATOM     32  C   UNL     1       0.468   9.650 133.586  0.00  0.00    +0.000 C 
ATOM     33  C   UNL     1      -0.011   8.389 134.244  0.00  0.00    +0.000 C 
BRANCH  31  34
ATOM     34  C   UNL     1       0.687  12.089 133.476  0.00  0.00    +0.000 C 
BRANCH  34  35
ATOM     35  C   UNL     1      -0.058  12.096 132.156  0.00  0.00    +0.000 C 
ATOM     36  C   UNL     1      -0.977  13.230 131.748  0.00  0.00    +0.000 C 
ATOM     37  C   UNL     1       0.282  12.999 130.963  0.00  0.00    +0.000 C 
ENDBRANCH  34  35
ENDBRANCH  31  34
ENDBRANCH  27  28
ENDBRANCH   4  27
BRANCH   6  38
ATOM     38  O   UNL     1      -4.344   6.285 130.229  0.00  0.00    +0.000 OA
BRANCH  38  39
ATOM     39  C   UNL     1      -3.556   6.962 129.233  0.00  0.00    +0.000 C 
BRANCH  39  40
ATOM     40  C   UNL     1      -2.205   6.426 128.755  0.00  0.00    +0.000 C 
ATOM     41  F   UNL     1      -1.252   6.589 129.688  0.00  0.00    +0.000 F 
ATOM     42  F   UNL     1      -2.170   5.154 128.332  0.00  0.00    +0.000 F 
ATOM     43  F   UNL     1      -1.840   7.161 127.664  0.00  0.00    +0.000 F 
ENDBRANCH  39  40
ENDBRANCH  38  39
ENDBRANCH   6  38
TORSDOF 10
ENDMDL
