MODEL 1
REMARK VINA RESULT:      -9.4      0.000      0.000
REMARK  Name = CHEMBL605373
REMARK  5 active torsions:
REMARK  status: ('A' for Active; 'I' for Inactive)
REMARK    1  A    between atoms: C_1  and  C_2
REMARK    2  A    between atoms: N_5  and  C_6
REMARK    3  A    between atoms: C_9  and  C_10
REMARK    4  A    between atoms: N_17  and  C_18
REMARK    5  A    between atoms: C_28  and  C_29
REMARK                            x       y       z     vdW  Elec       q    Type
REMARK                         _______ _______ _______ _____ _____    ______ ____
ROOT
ATOM      1  C   UNL     1      -8.979  -1.836 126.049  0.00  0.00    +0.000 C 
ATOM      2  O   UNL     1     -10.138  -2.240 125.854  0.00  0.00    +0.000 OA
ATOM      3  N   UNL     1      -8.335  -0.908 125.196  0.00  0.00    +0.000 N 
ATOM      4  C   UNL     1      -9.308  -0.162 124.306  0.00  0.00    +0.000 C 
ATOM      5  C   UNL     1      -8.763   1.089 123.718  0.00  0.00    +0.000 A 
ATOM      6  C   UNL     1      -9.388   2.337 123.480  0.00  0.00    +0.000 A 
ATOM      7  N   UNL     1      -8.548   3.243 122.960  0.00  0.00    +0.000 NA
ATOM      8  N   UNL     1      -7.395   2.553 122.819  0.00  0.00    +0.000 N 
ATOM      9  C   UNL     1      -6.203   3.211 122.347  0.00  0.00    +0.000 C 
ATOM     10  C   UNL     1      -7.529   1.224 123.122  0.00  0.00    +0.000 A 
ATOM     11  N   UNL     1      -6.591   0.269 122.850  0.00  0.00    +0.000 N 
ATOM     12  C   UNL     1      -6.869  -1.059 123.277  0.00  0.00    +0.000 A 
ATOM     13  C   UNL     1      -7.694  -1.936 122.564  0.00  0.00    +0.000 A 
ATOM     14  C   UNL     1      -8.124  -3.148 123.171  0.00  0.00    +0.000 A 
ATOM     15  C   UNL     1      -7.439  -3.608 124.280  0.00  0.00    +0.000 A 
ATOM     16  C   UNL     1      -6.580  -2.690 124.837  0.00  0.00    +0.000 A 
ATOM     17  C   UNL     1      -6.949  -1.357 124.610  0.00  0.00    +0.000 A 
ATOM     18  H   UNL     1      -5.651   0.537 123.149  0.00  0.00    +0.000 HD
ENDROOT
BRANCH   1  22
ATOM     19  C   UNL     1      -7.018  -3.282 129.535  0.00  0.00    +0.000 A 
ATOM     20  C   UNL     1      -8.039  -4.037 128.953  0.00  0.00    +0.000 A 
ATOM     21  C   UNL     1      -8.579  -3.633 127.743  0.00  0.00    +0.000 A 
ATOM     22  C   UNL     1      -8.171  -2.425 127.155  0.00  0.00    +0.000 A 
ATOM     23  C   UNL     1      -7.170  -1.650 127.758  0.00  0.00    +0.000 A 
ATOM     24  C   UNL     1      -6.568  -2.079 128.951  0.00  0.00    +0.000 A 
ATOM     25  C   UNL     1      -5.396  -1.308 129.487  0.00  0.00    +0.000 C 
BRANCH  19  30
ATOM     26  C   UNL     1      -6.368  -4.094 134.226  0.00  0.00    +0.000 C 
ATOM     27  C   UNL     1      -6.142  -4.184 132.766  0.00  0.00    +0.000 A 
ATOM     28  C   UNL     1      -5.263  -5.055 132.091  0.00  0.00    +0.000 A 
ATOM     29  C   UNL     1      -5.453  -4.787 130.759  0.00  0.00    +0.000 A 
ATOM     30  N   UNL     1      -6.416  -3.815 130.691  0.00  0.00    +0.000 N 
ATOM     31  N   UNL     1      -6.780  -3.370 131.917  0.00  0.00    +0.000 NA
ENDBRANCH  19  30
ENDBRANCH   1  22
TORSDOF 2
ENDMDL
MODEL 2
REMARK VINA RESULT:      -8.7      2.635      9.397
REMARK  Name = CHEMBL605373
REMARK  5 active torsions:
REMARK  status: ('A' for Active; 'I' for Inactive)
REMARK    1  A    between atoms: C_1  and  C_2
REMARK    2  A    between atoms: N_5  and  C_6
REMARK    3  A    between atoms: C_9  and  C_10
REMARK    4  A    between atoms: N_17  and  C_18
REMARK    5  A    between atoms: C_28  and  C_29
REMARK                            x       y       z     vdW  Elec       q    Type
REMARK                         _______ _______ _______ _____ _____    ______ ____
ROOT
ATOM      1  C   UNL     1      -6.390  -1.995 131.184  0.00  0.00    +0.000 C 
ATOM      2  O   UNL     1      -5.895  -0.886 131.445  0.00  0.00    +0.000 OA
ATOM      3  N   UNL     1      -6.534  -3.019 132.150  0.00  0.00    +0.000 N 
ATOM      4  C   UNL     1      -6.425  -2.502 133.570  0.00  0.00    +0.000 C 
ATOM      5  C   UNL     1      -6.979  -3.419 134.599  0.00  0.00    +0.000 A 
ATOM      6  C   UNL     1      -7.700  -3.137 135.785  0.00  0.00    +0.000 A 
ATOM      7  N   UNL     1      -8.062  -4.245 136.443  0.00  0.00    +0.000 NA
ATOM      8  N   UNL     1      -7.526  -5.238 135.700  0.00  0.00    +0.000 N 
ATOM      9  C   UNL     1      -7.760  -6.617 136.047  0.00  0.00    +0.000 C 
ATOM     10  C   UNL     1      -6.746  -4.774 134.674  0.00  0.00    +0.000 A 
ATOM     11  N   UNL     1      -5.915  -5.552 133.920  0.00  0.00    +0.000 N 
ATOM     12  C   UNL     1      -5.212  -4.918 132.859  0.00  0.00    +0.000 A 
ATOM     13  C   UNL     1      -4.037  -4.180 133.052  0.00  0.00    +0.000 A 
ATOM     14  C   UNL     1      -3.531  -3.373 131.997  0.00  0.00    +0.000 A 
ATOM     15  C   UNL     1      -3.982  -3.612 130.711  0.00  0.00    +0.000 A 
ATOM     16  C   UNL     1      -5.083  -4.434 130.640  0.00  0.00    +0.000 A 
ATOM     17  C   UNL     1      -5.888  -4.405 131.787  0.00  0.00    +0.000 A 
ATOM     18  H   UNL     1      -6.368  -6.400 133.574  0.00  0.00    +0.000 HD
ENDROOT
BRANCH   1  22
ATOM     19  C   UNL     1      -7.731  -2.509 127.180  0.00  0.00    +0.000 A 
ATOM     20  C   UNL     1      -6.595  -1.737 127.435  0.00  0.00    +0.000 A 
ATOM     21  C   UNL     1      -6.081  -1.685 128.721  0.00  0.00    +0.000 A 
ATOM     22  C   UNL     1      -6.751  -2.326 129.775  0.00  0.00    +0.000 A 
ATOM     23  C   UNL     1      -7.912  -3.073 129.524  0.00  0.00    +0.000 A 
ATOM     24  C   UNL     1      -8.408  -3.188 128.216  0.00  0.00    +0.000 A 
ATOM     25  C   UNL     1      -9.557  -4.117 127.959  0.00  0.00    +0.000 C 
BRANCH  19  30
ATOM     26  C   UNL     1      -9.362  -1.094 122.888  0.00  0.00    +0.000 C 
ATOM     27  C   UNL     1      -8.832  -1.999 123.933  0.00  0.00    +0.000 A 
ATOM     28  C   UNL     1      -8.390  -3.327 123.767  0.00  0.00    +0.000 A 
ATOM     29  C   UNL     1      -7.951  -3.712 125.008  0.00  0.00    +0.000 A 
ATOM     30  N   UNL     1      -8.124  -2.632 125.834  0.00  0.00    +0.000 N 
ATOM     31  N   UNL     1      -8.750  -1.606 125.208  0.00  0.00    +0.000 NA
ENDBRANCH  19  30
ENDBRANCH   1  22
TORSDOF 2
ENDMDL
MODEL 3
REMARK VINA RESULT:      -8.6      6.657      9.898
REMARK  Name = CHEMBL605373
REMARK  5 active torsions:
REMARK  status: ('A' for Active; 'I' for Inactive)
REMARK    1  A    between atoms: C_1  and  C_2
REMARK    2  A    between atoms: N_5  and  C_6
REMARK    3  A    between atoms: C_9  and  C_10
REMARK    4  A    between atoms: N_17  and  C_18
REMARK    5  A    between atoms: C_28  and  C_29
REMARK                            x       y       z     vdW  Elec       q    Type
REMARK                         _______ _______ _______ _____ _____    ______ ____
ROOT
ATOM      1  C   UNL     1      -5.863   4.056 131.474  0.00  0.00    +0.000 C 
ATOM      2  O   UNL     1      -5.070   4.602 132.258  0.00  0.00    +0.000 OA
ATOM      3  N   UNL     1      -5.571   2.842 130.807  0.00  0.00    +0.000 N 
ATOM      4  C   UNL     1      -4.424   2.086 131.447  0.00  0.00    +0.000 C 
ATOM      5  C   UNL     1      -4.354   0.650 131.073  0.00  0.00    +0.000 A 
ATOM      6  C   UNL     1      -4.005  -0.482 131.848  0.00  0.00    +0.000 A 
ATOM      7  N   UNL     1      -4.093  -1.626 131.158  0.00  0.00    +0.000 NA
ATOM      8  N   UNL     1      -4.451  -1.216 129.921  0.00  0.00    +0.000 N 
ATOM      9  C   UNL     1      -4.721  -2.179 128.883  0.00  0.00    +0.000 C 
ATOM     10  C   UNL     1      -4.469   0.147 129.797  0.00  0.00    +0.000 A 
ATOM     11  N   UNL     1      -4.574   0.815 128.610  0.00  0.00    +0.000 N 
ATOM     12  C   UNL     1      -4.628   2.235 128.663  0.00  0.00    +0.000 A 
ATOM     13  C   UNL     1      -3.492   3.041 128.800  0.00  0.00    +0.000 A 
ATOM     14  C   UNL     1      -3.640   4.424 129.095  0.00  0.00    +0.000 A 
ATOM     15  C   UNL     1      -4.871   5.014 128.879  0.00  0.00    +0.000 A 
ATOM     16  C   UNL     1      -5.896   4.124 128.654  0.00  0.00    +0.000 A 
ATOM     17  C   UNL     1      -5.695   2.868 129.242  0.00  0.00    +0.000 A 
ATOM     18  H   UNL     1      -5.330   0.463 128.020  0.00  0.00    +0.000 HD
ENDROOT
BRANCH   1  22
ATOM     19  C   UNL     1      -9.601   6.023 130.969  0.00  0.00    +0.000 A 
ATOM     20  C   UNL     1      -8.445   6.779 131.178  0.00  0.00    +0.000 A 
ATOM     21  C   UNL     1      -7.212   6.145 131.203  0.00  0.00    +0.000 A 
ATOM     22  C   UNL     1      -7.136   4.746 131.114  0.00  0.00    +0.000 A 
ATOM     23  C   UNL     1      -8.301   3.984 130.940  0.00  0.00    +0.000 A 
ATOM     24  C   UNL     1      -9.550   4.618 130.848  0.00  0.00    +0.000 A 
ATOM     25  C   UNL     1     -10.755   3.791 130.507  0.00  0.00    +0.000 C 
BRANCH  19  30
ATOM     26  C   UNL     1     -12.910   8.728 128.774  0.00  0.00    +0.000 C 
ATOM     27  C   UNL     1     -12.273   7.920 129.838  0.00  0.00    +0.000 A 
ATOM     28  C   UNL     1     -12.858   7.486 131.045  0.00  0.00    +0.000 A 
ATOM     29  C   UNL     1     -11.887   6.737 131.659  0.00  0.00    +0.000 A 
ATOM     30  N   UNL     1     -10.805   6.736 130.818  0.00  0.00    +0.000 N 
ATOM     31  N   UNL     1     -10.996   7.536 129.741  0.00  0.00    +0.000 NA
ENDBRANCH  19  30
ENDBRANCH   1  22
TORSDOF 2
ENDMDL
MODEL 4
REMARK VINA RESULT:      -8.6      8.753     10.463
REMARK  Name = CHEMBL605373
REMARK  5 active torsions:
REMARK  status: ('A' for Active; 'I' for Inactive)
REMARK    1  A    between atoms: C_1  and  C_2
REMARK    2  A    between atoms: N_5  and  C_6
REMARK    3  A    between atoms: C_9  and  C_10
REMARK    4  A    between atoms: N_17  and  C_18
REMARK    5  A    between atoms: C_28  and  C_29
REMARK                            x       y       z     vdW  Elec       q    Type
REMARK                         _______ _______ _______ _____ _____    ______ ____
ROOT
ATOM      1  C   UNL     1      -8.244   5.743 132.974  0.00  0.00    +0.000 C 
ATOM      2  O   UNL     1      -8.598   5.491 134.137  0.00  0.00    +0.000 OA
ATOM      3  N   UNL     1      -9.155   5.822 131.893  0.00  0.00    +0.000 N 
ATOM      4  C   UNL     1     -10.590   5.988 132.351  0.00  0.00    +0.000 C 
ATOM      5  C   UNL     1     -11.511   6.495 131.302  0.00  0.00    +0.000 A 
ATOM      6  C   UNL     1     -12.597   7.399 131.395  0.00  0.00    +0.000 A 
ATOM      7  N   UNL     1     -13.172   7.639 130.209  0.00  0.00    +0.000 NA
ATOM      8  N   UNL     1     -12.480   6.844 129.363  0.00  0.00    +0.000 N 
ATOM      9  C   UNL     1     -12.757   6.870 127.948  0.00  0.00    +0.000 C 
ATOM     10  C   UNL     1     -11.581   6.036 130.006  0.00  0.00    +0.000 A 
ATOM     11  N   UNL     1     -10.925   4.990 129.422  0.00  0.00    +0.000 N 
ATOM     12  C   UNL     1      -9.984   4.283 130.221  0.00  0.00    +0.000 A 
ATOM     13  C   UNL     1     -10.351   3.293 131.141  0.00  0.00    +0.000 A 
ATOM     14  C   UNL     1      -9.394   2.810 132.074  0.00  0.00    +0.000 A 
ATOM     15  C   UNL     1      -8.055   3.045 131.825  0.00  0.00    +0.000 A 
ATOM     16  C   UNL     1      -7.816   3.962 130.829  0.00  0.00    +0.000 A 
ATOM     17  C   UNL     1      -8.845   4.899 130.661  0.00  0.00    +0.000 A 
ATOM     18  H   UNL     1     -10.499   5.237 128.526  0.00  0.00    +0.000 HD
ENDROOT
BRANCH   1  22
ATOM     19  C   UNL     1      -4.099   6.495 132.383  0.00  0.00    +0.000 A 
ATOM     20  C   UNL     1      -4.509   5.671 133.434  0.00  0.00    +0.000 A 
ATOM     21  C   UNL     1      -5.845   5.316 133.540  0.00  0.00    +0.000 A 
ATOM     22  C   UNL     1      -6.791   5.857 132.655  0.00  0.00    +0.000 A 
ATOM     23  C   UNL     1      -6.384   6.713 131.621  0.00  0.00    +0.000 A 
ATOM     24  C   UNL     1      -5.026   7.030 131.462  0.00  0.00    +0.000 A 
ATOM     25  C   UNL     1      -4.605   7.820 130.257  0.00  0.00    +0.000 C 
BRANCH  19  30
ATOM     26  C   UNL     1       0.208   8.404 133.329  0.00  0.00    +0.000 C 
ATOM     27  C   UNL     1      -0.809   7.544 132.681  0.00  0.00    +0.000 A 
ATOM     28  C   UNL     1      -0.581   6.491 131.772  0.00  0.00    +0.000 A 
ATOM     29  C   UNL     1      -1.824   5.980 131.504  0.00  0.00    +0.000 A 
ATOM     30  N   UNL     1      -2.714   6.709 132.249  0.00  0.00    +0.000 N 
ATOM     31  N   UNL     1      -2.114   7.732 132.903  0.00  0.00    +0.000 NA
ENDBRANCH  19  30
ENDBRANCH   1  22
TORSDOF 2
ENDMDL
MODEL 5
REMARK VINA RESULT:      -8.4      6.352      8.064
REMARK  Name = CHEMBL605373
REMARK  5 active torsions:
REMARK  status: ('A' for Active; 'I' for Inactive)
REMARK    1  A    between atoms: C_1  and  C_2
REMARK    2  A    between atoms: N_5  and  C_6
REMARK    3  A    between atoms: C_9  and  C_10
REMARK    4  A    between atoms: N_17  and  C_18
REMARK    5  A    between atoms: C_28  and  C_29
REMARK                            x       y       z     vdW  Elec       q    Type
REMARK                         _______ _______ _______ _____ _____    ______ ____
ROOT
ATOM      1  C   UNL     1      -7.721   4.889 130.161  0.00  0.00    +0.000 C 
ATOM      2  O   UNL     1      -6.826   5.635 130.590  0.00  0.00    +0.000 OA
ATOM      3  N   UNL     1      -9.034   5.342 129.886  0.00  0.00    +0.000 N 
ATOM      4  C   UNL     1      -9.116   6.850 129.763  0.00  0.00    +0.000 C 
ATOM      5  C   UNL     1     -10.336   7.342 129.071  0.00  0.00    +0.000 A 
ATOM      6  C   UNL     1     -10.505   8.420 128.169  0.00  0.00    +0.000 A 
ATOM      7  N   UNL     1     -11.765   8.529 127.727  0.00  0.00    +0.000 NA
ATOM      8  N   UNL     1     -12.412   7.545 128.389  0.00  0.00    +0.000 N 
ATOM      9  C   UNL     1     -13.806   7.284 128.128  0.00  0.00    +0.000 C 
ATOM     10  C   UNL     1     -11.622   6.914 129.312  0.00  0.00    +0.000 A 
ATOM     11  N   UNL     1     -12.082   6.049 130.263  0.00  0.00    +0.000 N 
ATOM     12  C   UNL     1     -11.117   5.440 131.113  0.00  0.00    +0.000 A 
ATOM     13  C   UNL     1     -10.567   6.081 132.230  0.00  0.00    +0.000 A 
ATOM     14  C   UNL     1      -9.437   5.515 132.881  0.00  0.00    +0.000 A 
ATOM     15  C   UNL     1      -9.135   4.188 132.640  0.00  0.00    +0.000 A 
ATOM     16  C   UNL     1      -9.813   3.635 131.578  0.00  0.00    +0.000 A 
ATOM     17  C   UNL     1     -10.196   4.566 130.603  0.00  0.00    +0.000 A 
ATOM     18  H   UNL     1     -12.706   5.334 129.884  0.00  0.00    +0.000 HD
ENDROOT
BRANCH   1  22
ATOM     19  C   UNL     1      -6.562   0.853 129.484  0.00  0.00    +0.000 A 
ATOM     20  C   UNL     1      -6.036   1.550 130.575  0.00  0.00    +0.000 A 
ATOM     21  C   UNL     1      -6.520   2.814 130.873  0.00  0.00    +0.000 A 
ATOM     22  C   UNL     1      -7.460   3.426 130.030  0.00  0.00    +0.000 A 
ATOM     23  C   UNL     1      -7.962   2.740 128.914  0.00  0.00    +0.000 A 
ATOM     24  C   UNL     1      -7.529   1.434 128.637  0.00  0.00    +0.000 A 
ATOM     25  C   UNL     1      -8.197   0.671 127.530  0.00  0.00    +0.000 C 
BRANCH  19  30
ATOM     26  C   UNL     1      -6.560  -3.919 130.047  0.00  0.00    +0.000 C 
ATOM     27  C   UNL     1      -6.142  -2.588 129.553  0.00  0.00    +0.000 A 
ATOM     28  C   UNL     1      -5.194  -2.310 128.547  0.00  0.00    +0.000 A 
ATOM     29  C   UNL     1      -5.199  -0.945 128.423  0.00  0.00    +0.000 A 
ATOM     30  N   UNL     1      -6.130  -0.476 129.314  0.00  0.00    +0.000 N 
ATOM     31  N   UNL     1      -6.647  -1.467 130.079  0.00  0.00    +0.000 NA
ENDBRANCH  19  30
ENDBRANCH   1  22
TORSDOF 2
ENDMDL
MODEL 6
REMARK VINA RESULT:      -8.4      5.942      8.583
REMARK  Name = CHEMBL605373
REMARK  5 active torsions:
REMARK  status: ('A' for Active; 'I' for Inactive)
REMARK    1  A    between atoms: C_1  and  C_2
REMARK    2  A    between atoms: N_5  and  C_6
REMARK    3  A    between atoms: C_9  and  C_10
REMARK    4  A    between atoms: N_17  and  C_18
REMARK    5  A    between atoms: C_28  and  C_29
REMARK                            x       y       z     vdW  Elec       q    Type
REMARK                         _______ _______ _______ _____ _____    ______ ____
ROOT
ATOM      1  C   UNL     1      -7.587   1.900 130.431  0.00  0.00    +0.000 C 
ATOM      2  O   UNL     1      -6.541   1.821 131.097  0.00  0.00    +0.000 OA
ATOM      3  N   UNL     1      -7.891   1.011 129.372  0.00  0.00    +0.000 N 
ATOM      4  C   UNL     1      -7.056  -0.253 129.413  0.00  0.00    +0.000 C 
ATOM      5  C   UNL     1      -7.608  -1.377 128.613  0.00  0.00    +0.000 A 
ATOM      6  C   UNL     1      -7.628  -2.768 128.880  0.00  0.00    +0.000 A 
ATOM      7  N   UNL     1      -8.254  -3.467 127.924  0.00  0.00    +0.000 NA
ATOM      8  N   UNL     1      -8.590  -2.522 127.019  0.00  0.00    +0.000 N 
ATOM      9  C   UNL     1      -9.359  -2.873 125.850  0.00  0.00    +0.000 C 
ATOM     10  C   UNL     1      -8.088  -1.286 127.326  0.00  0.00    +0.000 A 
ATOM     11  N   UNL     1      -8.086  -0.217 126.476  0.00  0.00    +0.000 N 
ATOM     12  C   UNL     1      -7.570   1.011 126.973  0.00  0.00    +0.000 A 
ATOM     13  C   UNL     1      -6.201   1.298 127.036  0.00  0.00    +0.000 A 
ATOM     14  C   UNL     1      -5.752   2.431 127.768  0.00  0.00    +0.000 A 
ATOM     15  C   UNL     1      -6.670   3.416 128.085  0.00  0.00    +0.000 A 
ATOM     16  C   UNL     1      -7.981   3.054 127.887  0.00  0.00    +0.000 A 
ATOM     17  C   UNL     1      -8.211   1.674 127.984  0.00  0.00    +0.000 A 
ATOM     18  H   UNL     1      -8.994  -0.056 126.036  0.00  0.00    +0.000 HD
ENDROOT
BRANCH   1  22
ATOM     19  C   UNL     1     -10.234   5.226 130.556  0.00  0.00    +0.000 A 
ATOM     20  C   UNL     1     -10.748   3.940 130.374  0.00  0.00    +0.000 A 
ATOM     21  C   UNL     1      -9.901   2.848 130.473  0.00  0.00    +0.000 A 
ATOM     22  C   UNL     1      -8.522   3.038 130.659  0.00  0.00    +0.000 A 
ATOM     23  C   UNL     1      -8.001   4.332 130.806  0.00  0.00    +0.000 A 
ATOM     24  C   UNL     1      -8.856   5.445 130.773  0.00  0.00    +0.000 A 
ATOM     25  C   UNL     1      -8.292   6.799 131.088  0.00  0.00    +0.000 C 
BRANCH  19  30
ATOM     26  C   UNL     1     -12.962   8.776 128.811  0.00  0.00    +0.000 C 
ATOM     27  C   UNL     1     -12.380   7.842 129.801  0.00  0.00    +0.000 A 
ATOM     28  C   UNL     1     -12.784   7.657 131.139  0.00  0.00    +0.000 A 
ATOM     29  C   UNL     1     -11.977   6.657 131.617  0.00  0.00    +0.000 A 
ATOM     30  N   UNL     1     -11.164   6.283 130.579  0.00  0.00    +0.000 N 
ATOM     31  N   UNL     1     -11.338   7.065 129.488  0.00  0.00    +0.000 NA
ENDBRANCH  19  30
ENDBRANCH   1  22
TORSDOF 2
ENDMDL
MODEL 7
REMARK VINA RESULT:      -8.3      4.945      6.992
REMARK  Name = CHEMBL605373
REMARK  5 active torsions:
REMARK  status: ('A' for Active; 'I' for Inactive)
REMARK    1  A    between atoms: C_1  and  C_2
REMARK    2  A    between atoms: N_5  and  C_6
REMARK    3  A    between atoms: C_9  and  C_10
REMARK    4  A    between atoms: N_17  and  C_18
REMARK    5  A    between atoms: C_28  and  C_29
REMARK                            x       y       z     vdW  Elec       q    Type
REMARK                         _______ _______ _______ _____ _____    ______ ____
ROOT
ATOM      1  C   UNL     1      -6.497   1.598 126.090  0.00  0.00    +0.000 C 
ATOM      2  O   UNL     1      -7.625   2.044 125.821  0.00  0.00    +0.000 OA
ATOM      3  N   UNL     1      -6.070   0.305 125.702  0.00  0.00    +0.000 N 
ATOM      4  C   UNL     1      -6.929  -0.288 124.604  0.00  0.00    +0.000 C 
ATOM      5  C   UNL     1      -6.297  -1.419 123.876  0.00  0.00    +0.000 A 
ATOM      6  C   UNL     1      -6.343  -1.765 122.504  0.00  0.00    +0.000 A 
ATOM      7  N   UNL     1      -5.607  -2.848 122.221  0.00  0.00    +0.000 NA
ATOM      8  N   UNL     1      -5.131  -3.224 123.428  0.00  0.00    +0.000 N 
ATOM      9  C   UNL     1      -4.218  -4.334 123.538  0.00  0.00    +0.000 C 
ATOM     10  C   UNL     1      -5.644  -2.482 124.458  0.00  0.00    +0.000 A 
ATOM     11  N   UNL     1      -5.508  -2.795 125.781  0.00  0.00    +0.000 N 
ATOM     12  C   UNL     1      -6.061  -1.887 126.726  0.00  0.00    +0.000 A 
ATOM     13  C   UNL     1      -7.419  -1.867 127.065  0.00  0.00    +0.000 A 
ATOM     14  C   UNL     1      -7.940  -0.781 127.820  0.00  0.00    +0.000 A 
ATOM     15  C   UNL     1      -7.054   0.026 128.510  0.00  0.00    +0.000 A 
ATOM     16  C   UNL     1      -5.735  -0.155 128.164  0.00  0.00    +0.000 A 
ATOM     17  C   UNL     1      -5.550  -0.625 126.857  0.00  0.00    +0.000 A 
ATOM     18  H   UNL     1      -4.545  -3.019 126.041  0.00  0.00    +0.000 HD
ENDROOT
BRANCH   1  22
ATOM     19  C   UNL     1      -3.931   4.253 128.199  0.00  0.00    +0.000 A 
ATOM     20  C   UNL     1      -5.302   4.259 128.467  0.00  0.00    +0.000 A 
ATOM     21  C   UNL     1      -6.113   3.300 127.882  0.00  0.00    +0.000 A 
ATOM     22  C   UNL     1      -5.578   2.392 126.955  0.00  0.00    +0.000 A 
ATOM     23  C   UNL     1      -4.207   2.410 126.659  0.00  0.00    +0.000 A 
ATOM     24  C   UNL     1      -3.361   3.334 127.293  0.00  0.00    +0.000 A 
ATOM     25  C   UNL     1      -1.880   3.226 127.073  0.00  0.00    +0.000 C 
BRANCH  19  30
ATOM     26  C   UNL     1      -1.411   5.954 131.921  0.00  0.00    +0.000 C 
ATOM     27  C   UNL     1      -2.014   5.905 130.569  0.00  0.00    +0.000 A 
ATOM     28  C   UNL     1      -1.782   6.793 129.499  0.00  0.00    +0.000 A 
ATOM     29  C   UNL     1      -2.528   6.297 128.461  0.00  0.00    +0.000 A 
ATOM     30  N   UNL     1      -3.140   5.163 128.927  0.00  0.00    +0.000 N 
ATOM     31  N   UNL     1      -2.907   4.963 130.246  0.00  0.00    +0.000 NA
ENDBRANCH  19  30
ENDBRANCH   1  22
TORSDOF 2
ENDMDL
MODEL 8
REMARK VINA RESULT:      -8.3      6.308      8.382
REMARK  Name = CHEMBL605373
REMARK  5 active torsions:
REMARK  status: ('A' for Active; 'I' for Inactive)
REMARK    1  A    between atoms: C_1  and  C_2
REMARK    2  A    between atoms: N_5  and  C_6
REMARK    3  A    between atoms: C_9  and  C_10
REMARK    4  A    between atoms: N_17  and  C_18
REMARK    5  A    between atoms: C_28  and  C_29
REMARK                            x       y       z     vdW  Elec       q    Type
REMARK                         _______ _______ _______ _____ _____    ______ ____
ROOT
ATOM      1  C   UNL     1      -6.031   3.739 131.532  0.00  0.00    +0.000 C 
ATOM      2  O   UNL     1      -5.021   4.447 131.672  0.00  0.00    +0.000 OA
ATOM      3  N   UNL     1      -7.348   4.253 131.614  0.00  0.00    +0.000 N 
ATOM      4  C   UNL     1      -7.395   5.761 131.466  0.00  0.00    +0.000 C 
ATOM      5  C   UNL     1      -8.736   6.299 131.120  0.00  0.00    +0.000 A 
ATOM      6  C   UNL     1      -9.102   7.365 130.263  0.00  0.00    +0.000 A 
ATOM      7  N   UNL     1     -10.429   7.528 130.182  0.00  0.00    +0.000 NA
ATOM      8  N   UNL     1     -10.910   6.594 131.031  0.00  0.00    +0.000 N 
ATOM      9  C   UNL     1     -12.331   6.400 131.173  0.00  0.00    +0.000 C 
ATOM     10  C   UNL     1      -9.922   5.943 131.721  0.00  0.00    +0.000 A 
ATOM     11  N   UNL     1     -10.138   5.124 132.793  0.00  0.00    +0.000 N 
ATOM     12  C   UNL     1      -9.002   4.485 133.364  0.00  0.00    +0.000 A 
ATOM     13  C   UNL     1      -8.137   5.121 134.263  0.00  0.00    +0.000 A 
ATOM     14  C   UNL     1      -6.897   4.512 134.596  0.00  0.00    +0.000 A 
ATOM     15  C   UNL     1      -6.732   3.165 134.328  0.00  0.00    +0.000 A 
ATOM     16  C   UNL     1      -7.700   2.626 133.515  0.00  0.00    +0.000 A 
ATOM     17  C   UNL     1      -8.298   3.554 132.651  0.00  0.00    +0.000 A 
ATOM     18  H   UNL     1     -10.873   4.434 132.626  0.00  0.00    +0.000 HD
ENDROOT
BRANCH   1  22
ATOM     19  C   UNL     1      -5.300  -0.366 130.691  0.00  0.00    +0.000 A 
ATOM     20  C   UNL     1      -4.429   0.334 131.530  0.00  0.00    +0.000 A 
ATOM     21  C   UNL     1      -4.745   1.627 131.913  0.00  0.00    +0.000 A 
ATOM     22  C   UNL     1      -5.881   2.262 131.386  0.00  0.00    +0.000 A 
ATOM     23  C   UNL     1      -6.736   1.571 130.515  0.00  0.00    +0.000 A 
ATOM     24  C   UNL     1      -6.463   0.238 130.169  0.00  0.00    +0.000 A 
ATOM     25  C   UNL     1      -7.476  -0.520 129.362  0.00  0.00    +0.000 C 
BRANCH  19  30
ATOM     26  C   UNL     1      -5.535  -5.134 131.233  0.00  0.00    +0.000 C 
ATOM     27  C   UNL     1      -5.113  -3.827 130.680  0.00  0.00    +0.000 A 
ATOM     28  C   UNL     1      -4.327  -3.601 129.532  0.00  0.00    +0.000 A 
ATOM     29  C   UNL     1      -4.258  -2.236 129.414  0.00  0.00    +0.000 A 
ATOM     30  N   UNL     1      -4.994  -1.719 130.448  0.00  0.00    +0.000 N 
ATOM     31  N   UNL     1      -5.446  -2.682 131.286  0.00  0.00    +0.000 NA
ENDBRANCH  19  30
ENDBRANCH   1  22
TORSDOF 2
ENDMDL
MODEL 9
REMARK VINA RESULT:      -8.2      5.337      7.840
REMARK  Name = CHEMBL605373
REMARK  5 active torsions:
REMARK  status: ('A' for Active; 'I' for Inactive)
REMARK    1  A    between atoms: C_1  and  C_2
REMARK    2  A    between atoms: N_5  and  C_6
REMARK    3  A    between atoms: C_9  and  C_10
REMARK    4  A    between atoms: N_17  and  C_18
REMARK    5  A    between atoms: C_28  and  C_29
REMARK                            x       y       z     vdW  Elec       q    Type
REMARK                         _______ _______ _______ _____ _____    ______ ____
ROOT
ATOM      1  C   UNL     1      -6.463   2.210 129.901  0.00  0.00    +0.000 C 
ATOM      2  O   UNL     1      -5.351   2.396 130.423  0.00  0.00    +0.000 OA
ATOM      3  N   UNL     1      -7.618   2.939 130.275  0.00  0.00    +0.000 N 
ATOM      4  C   UNL     1      -7.286   4.208 131.034  0.00  0.00    +0.000 C 
ATOM      5  C   UNL     1      -8.389   5.203 131.075  0.00  0.00    +0.000 A 
ATOM      6  C   UNL     1      -8.351   6.616 131.002  0.00  0.00    +0.000 A 
ATOM      7  N   UNL     1      -9.572   7.167 131.038  0.00  0.00    +0.000 NA
ATOM      8  N   UNL     1     -10.389   6.101 131.186  0.00  0.00    +0.000 N 
ATOM      9  C   UNL     1     -11.820   6.275 131.195  0.00  0.00    +0.000 C 
ATOM     10  C   UNL     1      -9.707   4.927 131.362  0.00  0.00    +0.000 A 
ATOM     11  N   UNL     1     -10.279   3.751 131.755  0.00  0.00    +0.000 N 
ATOM     12  C   UNL     1      -9.433   2.610 131.840  0.00  0.00    +0.000 A 
ATOM     13  C   UNL     1      -8.601   2.354 132.937  0.00  0.00    +0.000 A 
ATOM     14  C   UNL     1      -7.608   1.341 132.846  0.00  0.00    +0.000 A 
ATOM     15  C   UNL     1      -7.722   0.397 131.842  0.00  0.00    +0.000 A 
ATOM     16  C   UNL     1      -8.645   0.709 130.872  0.00  0.00    +0.000 A 
ATOM     17  C   UNL     1      -8.860   2.085 130.715  0.00  0.00    +0.000 A 
ATOM     18  H   UNL     1     -11.119   3.517 131.221  0.00  0.00    +0.000 HD
ENDROOT
BRANCH   1  22
ATOM     19  C   UNL     1      -6.585  -0.721 126.822  0.00  0.00    +0.000 A 
ATOM     20  C   UNL     1      -5.728  -0.898 127.911  0.00  0.00    +0.000 A 
ATOM     21  C   UNL     1      -5.792  -0.015 128.978  0.00  0.00    +0.000 A 
ATOM     22  C   UNL     1      -6.641   1.101 128.920  0.00  0.00    +0.000 A 
ATOM     23  C   UNL     1      -7.475   1.298 127.810  0.00  0.00    +0.000 A 
ATOM     24  C   UNL     1      -7.469   0.377 126.751  0.00  0.00    +0.000 A 
ATOM     25  C   UNL     1      -8.481   0.531 125.653  0.00  0.00    +0.000 C 
BRANCH  19  30
ATOM     26  C   UNL     1      -4.741  -3.574 123.424  0.00  0.00    +0.000 C 
ATOM     27  C   UNL     1      -5.746  -2.995 124.343  0.00  0.00    +0.000 A 
ATOM     28  C   UNL     1      -7.048  -3.474 124.595  0.00  0.00    +0.000 A 
ATOM     29  C   UNL     1      -7.557  -2.631 125.549  0.00  0.00    +0.000 A 
ATOM     30  N   UNL     1      -6.569  -1.725 125.835  0.00  0.00    +0.000 N 
ATOM     31  N   UNL     1      -5.487  -1.880 125.035  0.00  0.00    +0.000 NA
ENDBRANCH  19  30
ENDBRANCH   1  22
TORSDOF 2
ENDMDL
