MODEL 1
REMARK VINA RESULT:     -11.8      0.000      0.000
REMARK  Name = CHEMBL283894
REMARK  9 active torsions:
REMARK  status: ('A' for Active; 'I' for Inactive)
REMARK    1  A    between atoms: C_1  and  C_2
REMARK    2  A    between atoms: C_2  and  O_3
REMARK    3  A    between atoms: O_3  and  C_4
REMARK    4  A    between atoms: N_7  and  C_8
REMARK    5  A    between atoms: C_8  and  C_9
REMARK    6  A    between atoms: N_11  and  C_12
REMARK    7  A    between atoms: C_12  and  C_13
REMARK    8  A    between atoms: C_17  and  C_18
REMARK    9  A    between atoms: C_23  and  N_24
REMARK                            x       y       z     vdW  Elec       q    Type
REMARK                         _______ _______ _______ _____ _____    ______ ____
ROOT
ATOM      1  C   UNL     1      -5.063   4.555 126.762  0.00  0.00    +0.000 A 
ATOM      2  C   UNL     1      -3.775   4.039 126.641  0.00  0.00    +0.000 A 
ATOM      3  C   UNL     1      -3.149   4.436 127.842  0.00  0.00    +0.000 A 
ATOM      4  C   UNL     1      -3.439   4.174 129.209  0.00  0.00    +0.000 A 
ATOM      5  C   UNL     1      -3.012   4.987 130.272  0.00  0.00    +0.000 A 
ATOM      6  C   UNL     1      -2.219   6.071 129.945  0.00  0.00    +0.000 A 
ATOM      7  C   UNL     1      -2.258   6.510 128.595  0.00  0.00    +0.000 A 
ATOM      8  C   UNL     1      -3.145   5.817 127.682  0.00  0.00    +0.000 A 
ATOM      9  O   UNL     1      -4.744   5.842 127.458  0.00  0.00    +0.000 OA
ENDROOT
BRANCH   5  10
ATOM     10  C   UNL     1      -3.529   4.817 131.663  0.00  0.00    +0.000 C 
ATOM     11  O   UNL     1      -2.738   4.861 132.605  0.00  0.00    +0.000 OA
ATOM     12  N   UNL     1      -4.924   4.868 131.848  0.00  0.00    +0.000 N 
ATOM     13  C   UNL     1      -5.468   6.169 132.211  0.00  0.00    +0.000 C 
ATOM     14  C   UNL     1      -6.695   6.025 133.079  0.00  0.00    +0.000 C 
ATOM     15  C   UNL     1      -8.007   5.410 132.092  0.00  0.00    +0.000 C 
ATOM     16  C   UNL     1      -7.188   3.871 131.966  0.00  0.00    +0.000 C 
ATOM     17  C   UNL     1      -5.883   3.961 131.198  0.00  0.00    +0.000 C 
BRANCH  15  18
ATOM     18  N   UNL     1      -8.898   6.652 131.022  0.00  0.00    +0.000 N 
ATOM     19  C   UNL     1      -9.997   6.203 131.872  0.00  0.00    +0.000 C 
ATOM     20  O   UNL     1     -10.069   6.116 133.122  0.00  0.00    +0.000 OA
ATOM     21  O   UNL     1     -11.026   5.669 131.243  0.00  0.00    +0.000 OA
ATOM     22  C   UNL     1     -11.828   6.789 131.273  0.00  0.00    +0.000 C 
ATOM     23  C   UNL     1     -11.465   7.078 129.900  0.00  0.00    +0.000 A 
ATOM     24  C   UNL     1     -12.630   7.038 128.955  0.00  0.00    +0.000 A 
ATOM     25  C   UNL     1     -12.649   7.482 127.662  0.00  0.00    +0.000 A 
ATOM     26  C   UNL     1     -11.550   8.267 127.457  0.00  0.00    +0.000 A 
ATOM     27  C   UNL     1     -10.310   8.267 128.535  0.00  0.00    +0.000 A 
ATOM     28  C   UNL     1     -10.077   7.300 129.728  0.00  0.00    +0.000 A 
ENDBRANCH  15  18
ENDBRANCH   5  10
BRANCH   1  29
ATOM     29  C   UNL     1      -6.213   4.183 125.783  0.00  0.00    +0.000 C 
BRANCH  29  32
ATOM     30  C   UNL     1      -8.136   2.802 125.224  0.00  0.00    +0.000 C 
ATOM     31  O   UNL     1      -8.670   3.906 125.188  0.00  0.00    +0.000 OA
ATOM     32  N   UNL     1      -6.754   2.828 125.507  0.00  0.00    +0.000 N 
ATOM     33  H   UNL     1      -6.165   2.013 125.448  0.00  0.00    +0.000 HD
BRANCH  30  34
ATOM     34  C   UNL     1      -8.937   1.454 124.955  0.00  0.00    +0.000 C 
BRANCH  34  38
ATOM     35  C   UNL     1      -6.851  -2.127 124.255  0.00  0.00    +0.000 A 
ATOM     36  C   UNL     1      -7.361  -1.406 123.094  0.00  0.00    +0.000 A 
ATOM     37  C   UNL     1      -8.249  -0.447 123.411  0.00  0.00    +0.000 A 
ATOM     38  N   UNL     1      -8.296   0.089 124.713  0.00  0.00    +0.000 N 
ATOM     39  C   UNL     1      -7.549  -0.557 125.724  0.00  0.00    +0.000 A 
ATOM     40  O   UNL     1      -7.350  -0.129 126.842  0.00  0.00    +0.000 OA
ATOM     41  N   UNL     1      -6.990  -1.771 125.468  0.00  0.00    +0.000 NA
BRANCH  35  42
ATOM     42  O   UNL     1      -6.297  -3.322 123.933  0.00  0.00    +0.000 OA
BRANCH  42  44
ATOM     43  C   UNL     1      -4.308  -4.667 123.562  0.00  0.00    +0.000 C 
ATOM     44  C   UNL     1      -4.886  -3.265 123.604  0.00  0.00    +0.000 C 
ENDBRANCH  42  44
ENDBRANCH  35  42
ENDBRANCH  34  38
ENDBRANCH  30  34
ENDBRANCH  29  32
ENDBRANCH   1  29
TORSDOF 8
ENDMDL
MODEL 2
REMARK VINA RESULT:     -11.3      1.791      9.715
REMARK  Name = CHEMBL283894
REMARK  9 active torsions:
REMARK  status: ('A' for Active; 'I' for Inactive)
REMARK    1  A    between atoms: C_1  and  C_2
REMARK    2  A    between atoms: C_2  and  O_3
REMARK    3  A    between atoms: O_3  and  C_4
REMARK    4  A    between atoms: N_7  and  C_8
REMARK    5  A    between atoms: C_8  and  C_9
REMARK    6  A    between atoms: N_11  and  C_12
REMARK    7  A    between atoms: C_12  and  C_13
REMARK    8  A    between atoms: C_17  and  C_18
REMARK    9  A    between atoms: C_23  and  N_24
REMARK                            x       y       z     vdW  Elec       q    Type
REMARK                         _______ _______ _______ _____ _____    ______ ____
ROOT
ATOM      1  C   UNL     1      -4.326   4.802 130.256  0.00  0.00    +0.000 A 
ATOM      2  C   UNL     1      -3.150   5.194 129.620  0.00  0.00    +0.000 A 
ATOM      3  C   UNL     1      -3.396   4.894 128.263  0.00  0.00    +0.000 A 
ATOM      4  C   UNL     1      -4.385   5.343 127.344  0.00  0.00    +0.000 A 
ATOM      5  C   UNL     1      -4.768   4.632 126.196  0.00  0.00    +0.000 A 
ATOM      6  C   UNL     1      -4.090   3.456 125.938  0.00  0.00    +0.000 A 
ATOM      7  C   UNL     1      -3.400   2.861 127.028  0.00  0.00    +0.000 A 
ATOM      8  C   UNL     1      -3.489   3.509 128.321  0.00  0.00    +0.000 A 
ATOM      9  O   UNL     1      -4.649   3.587 129.443  0.00  0.00    +0.000 OA
ENDROOT
BRANCH   5  10
ATOM     10  C   UNL     1      -5.966   5.010 125.387  0.00  0.00    +0.000 C 
ATOM     11  O   UNL     1      -6.079   6.170 124.992  0.00  0.00    +0.000 OA
ATOM     12  N   UNL     1      -6.778   3.967 124.902  0.00  0.00    +0.000 N 
ATOM     13  C   UNL     1      -6.483   3.510 123.552  0.00  0.00    +0.000 C 
ATOM     14  C   UNL     1      -7.730   3.015 122.858  0.00  0.00    +0.000 C 
ATOM     15  C   UNL     1      -8.213   1.500 123.595  0.00  0.00    +0.000 C 
ATOM     16  C   UNL     1      -8.650   2.352 125.057  0.00  0.00    +0.000 C 
ATOM     17  C   UNL     1      -7.454   2.975 125.752  0.00  0.00    +0.000 C 
BRANCH  15  18
ATOM     18  N   UNL     1      -7.291  -0.027 123.046  0.00  0.00    +0.000 N 
ATOM     19  C   UNL     1      -8.550  -0.624 123.482  0.00  0.00    +0.000 C 
ATOM     20  O   UNL     1      -9.732  -0.327 123.185  0.00  0.00    +0.000 OA
ATOM     21  O   UNL     1      -8.455  -1.521 124.445  0.00  0.00    +0.000 OA
ATOM     22  C   UNL     1      -8.528  -2.632 123.634  0.00  0.00    +0.000 C 
ATOM     23  C   UNL     1      -7.088  -2.775 123.707  0.00  0.00    +0.000 A 
ATOM     24  C   UNL     1      -6.649  -4.053 124.358  0.00  0.00    +0.000 A 
ATOM     25  C   UNL     1      -5.384  -4.572 124.369  0.00  0.00    +0.000 A 
ATOM     26  C   UNL     1      -4.642  -3.924 123.423  0.00  0.00    +0.000 A 
ATOM     27  C   UNL     1      -5.184  -2.528 122.746  0.00  0.00    +0.000 A 
ATOM     28  C   UNL     1      -6.393  -1.656 123.185  0.00  0.00    +0.000 A 
ENDBRANCH  15  18
ENDBRANCH   5  10
BRANCH   1  29
ATOM     29  C   UNL     1      -4.632   5.147 131.742  0.00  0.00    +0.000 C 
BRANCH  29  32
ATOM     30  C   UNL     1      -6.991   5.175 132.335  0.00  0.00    +0.000 C 
ATOM     31  O   UNL     1      -6.885   3.997 132.012  0.00  0.00    +0.000 OA
ATOM     32  N   UNL     1      -5.790   5.914 132.265  0.00  0.00    +0.000 N 
ATOM     33  H   UNL     1      -5.702   6.855 132.615  0.00  0.00    +0.000 HD
BRANCH  30  34
ATOM     34  C   UNL     1      -8.369   5.812 132.812  0.00  0.00    +0.000 C 
BRANCH  34  38
ATOM     35  C   UNL     1     -11.458   7.338 130.405  0.00  0.00    +0.000 A 
ATOM     36  C   UNL     1     -11.827   6.781 131.701  0.00  0.00    +0.000 A 
ATOM     37  C   UNL     1     -10.843   6.064 132.271  0.00  0.00    +0.000 A 
ATOM     38  N   UNL     1      -9.501   6.245 131.881  0.00  0.00    +0.000 N 
ATOM     39  C   UNL     1      -9.244   7.026 130.732  0.00  0.00    +0.000 A 
ATOM     40  O   UNL     1      -8.153   7.414 130.367  0.00  0.00    +0.000 OA
ATOM     41  N   UNL     1     -10.280   7.396 129.931  0.00  0.00    +0.000 NA
BRANCH  35  42
ATOM     42  O   UNL     1     -12.533   7.697 129.660  0.00  0.00    +0.000 OA
BRANCH  42  44
ATOM     43  C   UNL     1     -13.310   7.141 127.426  0.00  0.00    +0.000 C 
ATOM     44  C   UNL     1     -12.259   7.866 128.246  0.00  0.00    +0.000 C 
ENDBRANCH  42  44
ENDBRANCH  35  42
ENDBRANCH  34  38
ENDBRANCH  30  34
ENDBRANCH  29  32
ENDBRANCH   1  29
TORSDOF 8
ENDMDL
MODEL 3
REMARK VINA RESULT:     -11.1      1.492      1.906
REMARK  Name = CHEMBL283894
REMARK  9 active torsions:
REMARK  status: ('A' for Active; 'I' for Inactive)
REMARK    1  A    between atoms: C_1  and  C_2
REMARK    2  A    between atoms: C_2  and  O_3
REMARK    3  A    between atoms: O_3  and  C_4
REMARK    4  A    between atoms: N_7  and  C_8
REMARK    5  A    between atoms: C_8  and  C_9
REMARK    6  A    between atoms: N_11  and  C_12
REMARK    7  A    between atoms: C_12  and  C_13
REMARK    8  A    between atoms: C_17  and  C_18
REMARK    9  A    between atoms: C_23  and  N_24
REMARK                            x       y       z     vdW  Elec       q    Type
REMARK                         _______ _______ _______ _____ _____    ______ ____
ROOT
ATOM      1  C   UNL     1      -4.626   4.289 126.714  0.00  0.00    +0.000 A 
ATOM      2  C   UNL     1      -3.260   4.018 126.668  0.00  0.00    +0.000 A 
ATOM      3  C   UNL     1      -2.779   4.550 127.883  0.00  0.00    +0.000 A 
ATOM      4  C   UNL     1      -3.084   4.268 129.243  0.00  0.00    +0.000 A 
ATOM      5  C   UNL     1      -2.868   5.168 130.299  0.00  0.00    +0.000 A 
ATOM      6  C   UNL     1      -2.274   6.373 129.976  0.00  0.00    +0.000 A 
ATOM      7  C   UNL     1      -2.326   6.768 128.613  0.00  0.00    +0.000 A 
ATOM      8  C   UNL     1      -3.022   5.903 127.682  0.00  0.00    +0.000 A 
ATOM      9  O   UNL     1      -4.586   5.627 127.385  0.00  0.00    +0.000 OA
ENDROOT
BRANCH   5  10
ATOM     10  C   UNL     1      -3.415   4.935 131.670  0.00  0.00    +0.000 C 
ATOM     11  O   UNL     1      -2.650   4.971 132.633  0.00  0.00    +0.000 OA
ATOM     12  N   UNL     1      -4.815   4.935 131.820  0.00  0.00    +0.000 N 
ATOM     13  C   UNL     1      -5.409   6.205 132.212  0.00  0.00    +0.000 C 
ATOM     14  C   UNL     1      -6.653   5.993 133.042  0.00  0.00    +0.000 C 
ATOM     15  C   UNL     1      -7.918   5.372 132.001  0.00  0.00    +0.000 C 
ATOM     16  C   UNL     1      -7.048   3.865 131.846  0.00  0.00    +0.000 C 
ATOM     17  C   UNL     1      -5.728   4.022 131.115  0.00  0.00    +0.000 C 
BRANCH  15  18
ATOM     18  N   UNL     1      -8.823   6.621 130.950  0.00  0.00    +0.000 N 
ATOM     19  C   UNL     1      -9.908   6.178 131.820  0.00  0.00    +0.000 C 
ATOM     20  O   UNL     1      -9.957   6.089 133.072  0.00  0.00    +0.000 OA
ATOM     21  O   UNL     1     -10.952   5.651 131.211  0.00  0.00    +0.000 OA
ATOM     22  C   UNL     1     -11.746   6.776 131.257  0.00  0.00    +0.000 C 
ATOM     23  C   UNL     1     -11.408   7.065 129.878  0.00  0.00    +0.000 A 
ATOM     24  C   UNL     1     -12.590   7.034 128.956  0.00  0.00    +0.000 A 
ATOM     25  C   UNL     1     -12.632   7.480 127.664  0.00  0.00    +0.000 A 
ATOM     26  C   UNL     1     -11.532   8.259 127.440  0.00  0.00    +0.000 A 
ATOM     27  C   UNL     1     -10.271   8.249 128.493  0.00  0.00    +0.000 A 
ATOM     28  C   UNL     1     -10.021   7.278 129.680  0.00  0.00    +0.000 A 
ENDBRANCH  15  18
ENDBRANCH   5  10
BRANCH   1  29
ATOM     29  C   UNL     1      -5.637   3.688 125.696  0.00  0.00    +0.000 C 
BRANCH  29  32
ATOM     30  C   UNL     1      -6.875   2.002 124.455  0.00  0.00    +0.000 C 
ATOM     31  O   UNL     1      -7.104   2.975 123.744  0.00  0.00    +0.000 OA
ATOM     32  N   UNL     1      -6.032   2.264 125.556  0.00  0.00    +0.000 N 
ATOM     33  H   UNL     1      -5.663   1.540 126.151  0.00  0.00    +0.000 HD
BRANCH  30  34
ATOM     34  C   UNL     1      -7.467   0.558 124.146  0.00  0.00    +0.000 C 
BRANCH  34  38
ATOM     35  C   UNL     1      -8.066  -2.673 126.767  0.00  0.00    +0.000 A 
ATOM     36  C   UNL     1      -9.195  -2.256 125.945  0.00  0.00    +0.000 A 
ATOM     37  C   UNL     1      -9.013  -1.057 125.361  0.00  0.00    +0.000 A 
ATOM     38  N   UNL     1      -7.720  -0.527 125.193  0.00  0.00    +0.000 N 
ATOM     39  C   UNL     1      -6.647  -1.174 125.847  0.00  0.00    +0.000 A 
ATOM     40  O   UNL     1      -5.467  -0.949 125.669  0.00  0.00    +0.000 OA
ATOM     41  N   UNL     1      -6.912  -2.138 126.769  0.00  0.00    +0.000 NA
BRANCH  35  42
ATOM     42  O   UNL     1      -8.392  -3.643 127.657  0.00  0.00    +0.000 OA
BRANCH  42  44
ATOM     43  C   UNL     1      -7.112  -3.704 129.722  0.00  0.00    +0.000 C 
ATOM     44  C   UNL     1      -8.381  -3.220 129.044  0.00  0.00    +0.000 C 
ENDBRANCH  42  44
ENDBRANCH  35  42
ENDBRANCH  34  38
ENDBRANCH  30  34
ENDBRANCH  29  32
ENDBRANCH   1  29
TORSDOF 8
ENDMDL
MODEL 4
REMARK VINA RESULT:     -10.7      2.838      9.276
REMARK  Name = CHEMBL283894
REMARK  9 active torsions:
REMARK  status: ('A' for Active; 'I' for Inactive)
REMARK    1  A    between atoms: C_1  and  C_2
REMARK    2  A    between atoms: C_2  and  O_3
REMARK    3  A    between atoms: O_3  and  C_4
REMARK    4  A    between atoms: N_7  and  C_8
REMARK    5  A    between atoms: C_8  and  C_9
REMARK    6  A    between atoms: N_11  and  C_12
REMARK    7  A    between atoms: C_12  and  C_13
REMARK    8  A    between atoms: C_17  and  C_18
REMARK    9  A    between atoms: C_23  and  N_24
REMARK                            x       y       z     vdW  Elec       q    Type
REMARK                         _______ _______ _______ _____ _____    ______ ____
ROOT
ATOM      1  C   UNL     1      -3.920   5.221 130.186  0.00  0.00    +0.000 A 
ATOM      2  C   UNL     1      -3.111   6.051 129.414  0.00  0.00    +0.000 A 
ATOM      3  C   UNL     1      -3.207   5.492 128.122  0.00  0.00    +0.000 A 
ATOM      4  C   UNL     1      -4.309   5.271 127.251  0.00  0.00    +0.000 A 
ATOM      5  C   UNL     1      -4.315   4.317 126.219  0.00  0.00    +0.000 A 
ATOM      6  C   UNL     1      -3.148   3.603 126.027  0.00  0.00    +0.000 A 
ATOM      7  C   UNL     1      -2.228   3.575 127.109  0.00  0.00    +0.000 A 
ATOM      8  C   UNL     1      -2.597   4.261 128.331  0.00  0.00    +0.000 A 
ATOM      9  O   UNL     1      -3.615   3.908 129.535  0.00  0.00    +0.000 OA
ENDROOT
BRANCH   5  10
ATOM     10  C   UNL     1      -5.561   3.948 125.482  0.00  0.00    +0.000 C 
ATOM     11  O   UNL     1      -5.797   4.483 124.400  0.00  0.00    +0.000 OA
ATOM     12  N   UNL     1      -6.277   2.824 125.939  0.00  0.00    +0.000 N 
ATOM     13  C   UNL     1      -5.966   1.565 125.278  0.00  0.00    +0.000 C 
ATOM     14  C   UNL     1      -7.172   0.657 125.239  0.00  0.00    +0.000 C 
ATOM     15  C   UNL     1      -7.488   0.080 126.863  0.00  0.00    +0.000 C 
ATOM     16  C   UNL     1      -7.975   1.689 127.338  0.00  0.00    +0.000 C 
ATOM     17  C   UNL     1      -6.833   2.686 127.294  0.00  0.00    +0.000 C 
BRANCH  15  18
ATOM     18  N   UNL     1      -6.431  -1.335 127.467  0.00  0.00    +0.000 N 
ATOM     19  C   UNL     1      -7.763  -1.871 127.734  0.00  0.00    +0.000 C 
ATOM     20  O   UNL     1      -8.764  -1.963 126.982  0.00  0.00    +0.000 OA
ATOM     21  O   UNL     1      -8.014  -2.179 128.992  0.00  0.00    +0.000 OA
ATOM     22  C   UNL     1      -7.796  -3.534 128.869  0.00  0.00    +0.000 C 
ATOM     23  C   UNL     1      -6.475  -3.367 129.441  0.00  0.00    +0.000 A 
ATOM     24  C   UNL     1      -6.294  -4.090 130.743  0.00  0.00    +0.000 A 
ATOM     25  C   UNL     1      -5.115  -4.309 131.399  0.00  0.00    +0.000 A 
ATOM     26  C   UNL     1      -4.086  -4.061 130.536  0.00  0.00    +0.000 A 
ATOM     27  C   UNL     1      -4.354  -3.266 129.123  0.00  0.00    +0.000 A 
ATOM     28  C   UNL     1      -5.640  -2.521 128.671  0.00  0.00    +0.000 A 
ENDBRANCH  15  18
ENDBRANCH   5  10
BRANCH   1  29
ATOM     29  C   UNL     1      -4.322   5.565 131.649  0.00  0.00    +0.000 C 
BRANCH  29  32
ATOM     30  C   UNL     1      -6.619   5.403 132.435  0.00  0.00    +0.000 C 
ATOM     31  O   UNL     1      -6.352   4.207 132.360  0.00  0.00    +0.000 OA
ATOM     32  N   UNL     1      -5.551   6.264 132.103  0.00  0.00    +0.000 N 
ATOM     33  H   UNL     1      -5.587   7.262 132.236  0.00  0.00    +0.000 HD
BRANCH  30  34
ATOM     34  C   UNL     1      -8.047   5.935 132.890  0.00  0.00    +0.000 C 
BRANCH  34  38
ATOM     35  C   UNL     1     -11.255   7.085 130.429  0.00  0.00    +0.000 A 
ATOM     36  C   UNL     1     -11.574   6.571 131.755  0.00  0.00    +0.000 A 
ATOM     37  C   UNL     1     -10.535   5.964 132.356  0.00  0.00    +0.000 A 
ATOM     38  N   UNL     1      -9.213   6.228 131.947  0.00  0.00    +0.000 N 
ATOM     39  C   UNL     1      -9.022   6.965 130.756  0.00  0.00    +0.000 A 
ATOM     40  O   UNL     1      -7.966   7.417 130.363  0.00  0.00    +0.000 OA
ATOM     41  N   UNL     1     -10.086   7.209 129.944  0.00  0.00    +0.000 NA
BRANCH  35  42
ATOM     42  O   UNL     1     -12.357   7.319 129.674  0.00  0.00    +0.000 OA
BRANCH  42  44
ATOM     43  C   UNL     1     -13.319   7.195 127.447  0.00  0.00    +0.000 C 
ATOM     44  C   UNL     1     -12.090   7.540 128.267  0.00  0.00    +0.000 C 
ENDBRANCH  42  44
ENDBRANCH  35  42
ENDBRANCH  34  38
ENDBRANCH  30  34
ENDBRANCH  29  32
ENDBRANCH   1  29
TORSDOF 8
ENDMDL
MODEL 5
REMARK VINA RESULT:     -10.6      3.174      3.821
REMARK  Name = CHEMBL283894
REMARK  9 active torsions:
REMARK  status: ('A' for Active; 'I' for Inactive)
REMARK    1  A    between atoms: C_1  and  C_2
REMARK    2  A    between atoms: C_2  and  O_3
REMARK    3  A    between atoms: O_3  and  C_4
REMARK    4  A    between atoms: N_7  and  C_8
REMARK    5  A    between atoms: C_8  and  C_9
REMARK    6  A    between atoms: N_11  and  C_12
REMARK    7  A    between atoms: C_12  and  C_13
REMARK    8  A    between atoms: C_17  and  C_18
REMARK    9  A    between atoms: C_23  and  N_24
REMARK                            x       y       z     vdW  Elec       q    Type
REMARK                         _______ _______ _______ _____ _____    ______ ____
ROOT
ATOM      1  C   UNL     1      -4.385   2.633 126.741  0.00  0.00    +0.000 A 
ATOM      2  C   UNL     1      -3.018   2.886 126.665  0.00  0.00    +0.000 A 
ATOM      3  C   UNL     1      -2.800   3.822 127.699  0.00  0.00    +0.000 A 
ATOM      4  C   UNL     1      -3.006   3.765 129.105  0.00  0.00    +0.000 A 
ATOM      5  C   UNL     1      -3.169   4.897 129.920  0.00  0.00    +0.000 A 
ATOM      6  C   UNL     1      -3.065   6.128 129.302  0.00  0.00    +0.000 A 
ATOM      7  C   UNL     1      -3.232   6.153 127.891  0.00  0.00    +0.000 A 
ATOM      8  C   UNL     1      -3.530   4.903 127.221  0.00  0.00    +0.000 A 
ATOM      9  O   UNL     1      -4.867   4.005 127.097  0.00  0.00    +0.000 OA
ENDROOT
BRANCH   5  10
ATOM     10  C   UNL     1      -3.618   4.797 131.342  0.00  0.00    +0.000 C 
ATOM     11  O   UNL     1      -2.780   4.872 132.240  0.00  0.00    +0.000 OA
ATOM     12  N   UNL     1      -5.001   4.876 131.594  0.00  0.00    +0.000 N 
ATOM     13  C   UNL     1      -5.509   6.200 131.924  0.00  0.00    +0.000 C 
ATOM     14  C   UNL     1      -6.693   6.113 132.858  0.00  0.00    +0.000 C 
ATOM     15  C   UNL     1      -8.060   5.473 131.967  0.00  0.00    +0.000 C 
ATOM     16  C   UNL     1      -7.268   3.919 131.870  0.00  0.00    +0.000 C 
ATOM     17  C   UNL     1      -6.002   3.955 131.035  0.00  0.00    +0.000 C 
BRANCH  15  18
ATOM     18  N   UNL     1      -8.990   6.678 130.887  0.00  0.00    +0.000 N 
ATOM     19  C   UNL     1     -10.062   6.245 131.778  0.00  0.00    +0.000 C 
ATOM     20  O   UNL     1     -10.101   6.192 133.031  0.00  0.00    +0.000 OA
ATOM     21  O   UNL     1     -11.103   5.687 131.191  0.00  0.00    +0.000 OA
ATOM     22  C   UNL     1     -11.913   6.801 131.212  0.00  0.00    +0.000 C 
ATOM     23  C   UNL     1     -11.589   7.055 129.822  0.00  0.00    +0.000 A 
ATOM     24  C   UNL     1     -12.777   6.980 128.910  0.00  0.00    +0.000 A 
ATOM     25  C   UNL     1     -12.834   7.388 127.606  0.00  0.00    +0.000 A 
ATOM     26  C   UNL     1     -11.748   8.175 127.351  0.00  0.00    +0.000 A 
ATOM     27  C   UNL     1     -10.479   8.214 128.395  0.00  0.00    +0.000 A 
ATOM     28  C   UNL     1     -10.207   7.282 129.607  0.00  0.00    +0.000 A 
ENDBRANCH  15  18
ENDBRANCH   5  10
BRANCH   1  29
ATOM     29  C   UNL     1      -5.072   1.484 125.949  0.00  0.00    +0.000 C 
BRANCH  29  32
ATOM     30  C   UNL     1      -6.074  -0.567 126.790  0.00  0.00    +0.000 C 
ATOM     31  O   UNL     1      -7.017   0.198 126.967  0.00  0.00    +0.000 OA
ATOM     32  N   UNL     1      -4.943   0.025 126.189  0.00  0.00    +0.000 N 
ATOM     33  H   UNL     1      -4.146  -0.506 125.874  0.00  0.00    +0.000 HD
BRANCH  30  34
ATOM     34  C   UNL     1      -6.134  -2.106 127.190  0.00  0.00    +0.000 C 
BRANCH  34  38
ATOM     35  C   UNL     1      -5.347  -3.311 131.138  0.00  0.00    +0.000 A 
ATOM     36  C   UNL     1      -4.262  -2.677 130.399  0.00  0.00    +0.000 A 
ATOM     37  C   UNL     1      -4.499  -2.589 129.078  0.00  0.00    +0.000 A 
ATOM     38  N   UNL     1      -5.812  -2.663 128.575  0.00  0.00    +0.000 N 
ATOM     39  C   UNL     1      -6.841  -3.053 129.462  0.00  0.00    +0.000 A 
ATOM     40  O   UNL     1      -8.032  -3.002 129.235  0.00  0.00    +0.000 OA
ATOM     41  N   UNL     1      -6.514  -3.541 130.690  0.00  0.00    +0.000 NA
BRANCH  35  42
ATOM     42  O   UNL     1      -4.960  -3.765 132.356  0.00  0.00    +0.000 OA
BRANCH  42  44
ATOM     43  C   UNL     1      -5.916  -5.341 133.939  0.00  0.00    +0.000 C 
ATOM     44  C   UNL     1      -5.236  -5.168 132.594  0.00  0.00    +0.000 C 
ENDBRANCH  42  44
ENDBRANCH  35  42
ENDBRANCH  34  38
ENDBRANCH  30  34
ENDBRANCH  29  32
ENDBRANCH   1  29
TORSDOF 8
ENDMDL
MODEL 6
REMARK VINA RESULT:     -10.6      2.583      9.064
REMARK  Name = CHEMBL283894
REMARK  9 active torsions:
REMARK  status: ('A' for Active; 'I' for Inactive)
REMARK    1  A    between atoms: C_1  and  C_2
REMARK    2  A    between atoms: C_2  and  O_3
REMARK    3  A    between atoms: O_3  and  C_4
REMARK    4  A    between atoms: N_7  and  C_8
REMARK    5  A    between atoms: C_8  and  C_9
REMARK    6  A    between atoms: N_11  and  C_12
REMARK    7  A    between atoms: C_12  and  C_13
REMARK    8  A    between atoms: C_17  and  C_18
REMARK    9  A    between atoms: C_23  and  N_24
REMARK                            x       y       z     vdW  Elec       q    Type
REMARK                         _______ _______ _______ _____ _____    ______ ____
ROOT
ATOM      1  C   UNL     1      -7.135  -1.235 130.617  0.00  0.00    +0.000 A 
ATOM      2  C   UNL     1      -6.275  -2.196 130.091  0.00  0.00    +0.000 A 
ATOM      3  C   UNL     1      -6.856  -2.507 128.843  0.00  0.00    +0.000 A 
ATOM      4  C   UNL     1      -7.146  -1.719 127.695  0.00  0.00    +0.000 A 
ATOM      5  C   UNL     1      -8.112  -2.059 126.734  0.00  0.00    +0.000 A 
ATOM      6  C   UNL     1      -8.768  -3.262 126.910  0.00  0.00    +0.000 A 
ATOM      7  C   UNL     1      -8.734  -3.825 128.214  0.00  0.00    +0.000 A 
ATOM      8  C   UNL     1      -8.051  -3.085 129.256  0.00  0.00    +0.000 A 
ATOM      9  O   UNL     1      -8.439  -1.776 130.120  0.00  0.00    +0.000 OA
ENDROOT
BRANCH   5  10
ATOM     10  C   UNL     1      -8.556  -1.100 125.677  0.00  0.00    +0.000 C 
ATOM     11  O   UNL     1      -9.583  -1.341 125.044  0.00  0.00    +0.000 OA
ATOM     12  N   UNL     1      -7.918   0.155 125.629  0.00  0.00    +0.000 N 
ATOM     13  C   UNL     1      -8.584   1.231 126.349  0.00  0.00    +0.000 C 
ATOM     14  C   UNL     1      -8.335   2.566 125.689  0.00  0.00    +0.000 C 
ATOM     15  C   UNL     1      -6.660   3.013 125.950  0.00  0.00    +0.000 C 
ATOM     16  C   UNL     1      -6.152   1.723 124.886  0.00  0.00    +0.000 C 
ATOM     17  C   UNL     1      -6.472   0.347 125.437  0.00  0.00    +0.000 C 
BRANCH  15  18
ATOM     18  N   UNL     1      -6.243   3.748 127.614  0.00  0.00    +0.000 N 
ATOM     19  C   UNL     1      -5.462   4.619 126.740  0.00  0.00    +0.000 C 
ATOM     20  O   UNL     1      -5.806   5.256 125.715  0.00  0.00    +0.000 OA
ATOM     21  O   UNL     1      -4.162   4.637 126.964  0.00  0.00    +0.000 OA
ATOM     22  C   UNL     1      -4.143   5.810 127.687  0.00  0.00    +0.000 C 
ATOM     23  C   UNL     1      -4.085   5.044 128.916  0.00  0.00    +0.000 A 
ATOM     24  C   UNL     1      -2.828   5.272 129.701  0.00  0.00    +0.000 A 
ATOM     25  C   UNL     1      -2.585   4.878 130.988  0.00  0.00    +0.000 A 
ATOM     26  C   UNL     1      -3.773   4.534 131.567  0.00  0.00    +0.000 A 
ATOM     27  C   UNL     1      -5.115   4.302 130.648  0.00  0.00    +0.000 A 
ATOM     28  C   UNL     1      -5.212   4.206 129.101  0.00  0.00    +0.000 A 
ENDBRANCH  15  18
ENDBRANCH   5  10
BRANCH   1  29
ATOM     29  C   UNL     1      -6.792  -0.408 131.889  0.00  0.00    +0.000 C 
BRANCH  29  32
ATOM     30  C   UNL     1      -7.910   1.752 131.844  0.00  0.00    +0.000 C 
ATOM     31  O   UNL     1      -7.422   1.761 130.718  0.00  0.00    +0.000 OA
ATOM     32  N   UNL     1      -7.661   0.575 132.583  0.00  0.00    +0.000 N 
ATOM     33  H   UNL     1      -8.099   0.379 133.469  0.00  0.00    +0.000 HD
BRANCH  30  34
ATOM     34  C   UNL     1      -8.767   2.965 132.415  0.00  0.00    +0.000 C 
BRANCH  34  38
ATOM     35  C   UNL     1      -9.266   6.453 130.125  0.00  0.00    +0.000 A 
ATOM     36  C   UNL     1      -8.282   6.489 131.200  0.00  0.00    +0.000 A 
ATOM     37  C   UNL     1      -8.389   5.455 132.054  0.00  0.00    +0.000 A 
ATOM     38  N   UNL     1      -9.044   4.269 131.669  0.00  0.00    +0.000 N 
ATOM     39  C   UNL     1      -9.775   4.277 130.460  0.00  0.00    +0.000 A 
ATOM     40  O   UNL     1     -10.248   3.304 129.909  0.00  0.00    +0.000 OA
ATOM     41  N   UNL     1      -9.997   5.458 129.822  0.00  0.00    +0.000 NA
BRANCH  35  42
ATOM     42  O   UNL     1      -9.433   7.657 129.523  0.00  0.00    +0.000 OA
BRANCH  42  44
ATOM     43  C   UNL     1     -10.834   8.321 127.653  0.00  0.00    +0.000 C 
ATOM     44  C   UNL     1     -10.796   7.949 129.124  0.00  0.00    +0.000 C 
ENDBRANCH  42  44
ENDBRANCH  35  42
ENDBRANCH  34  38
ENDBRANCH  30  34
ENDBRANCH  29  32
ENDBRANCH   1  29
TORSDOF 8
ENDMDL
MODEL 7
REMARK VINA RESULT:     -10.3      3.861      7.125
REMARK  Name = CHEMBL283894
REMARK  9 active torsions:
REMARK  status: ('A' for Active; 'I' for Inactive)
REMARK    1  A    between atoms: C_1  and  C_2
REMARK    2  A    between atoms: C_2  and  O_3
REMARK    3  A    between atoms: O_3  and  C_4
REMARK    4  A    between atoms: N_7  and  C_8
REMARK    5  A    between atoms: C_8  and  C_9
REMARK    6  A    between atoms: N_11  and  C_12
REMARK    7  A    between atoms: C_12  and  C_13
REMARK    8  A    between atoms: C_17  and  C_18
REMARK    9  A    between atoms: C_23  and  N_24
REMARK                            x       y       z     vdW  Elec       q    Type
REMARK                         _______ _______ _______ _____ _____    ______ ____
ROOT
ATOM      1  C   UNL     1      -7.857  -2.126 127.817  0.00  0.00    +0.000 A 
ATOM      2  C   UNL     1      -8.296  -3.405 128.149  0.00  0.00    +0.000 A 
ATOM      3  C   UNL     1      -7.901  -3.548 129.497  0.00  0.00    +0.000 A 
ATOM      4  C   UNL     1      -8.222  -2.817 130.674  0.00  0.00    +0.000 A 
ATOM      5  C   UNL     1      -7.420  -2.794 131.826  0.00  0.00    +0.000 A 
ATOM      6  C   UNL     1      -6.284  -3.580 131.808  0.00  0.00    +0.000 A 
ATOM      7  C   UNL     1      -5.806  -3.986 130.533  0.00  0.00    +0.000 A 
ATOM      8  C   UNL     1      -6.519  -3.519 129.361  0.00  0.00    +0.000 A 
ATOM      9  O   UNL     1      -6.576  -2.099 128.593  0.00  0.00    +0.000 OA
ENDROOT
BRANCH   5  10
ATOM     10  C   UNL     1      -7.662  -1.836 132.947  0.00  0.00    +0.000 C 
ATOM     11  O   UNL     1      -7.826  -2.276 134.085  0.00  0.00    +0.000 OA
ATOM     12  N   UNL     1      -7.441  -0.469 132.693  0.00  0.00    +0.000 N 
ATOM     13  C   UNL     1      -6.123   0.036 133.051  0.00  0.00    +0.000 C 
ATOM     14  C   UNL     1      -6.188   1.488 133.462  0.00  0.00    +0.000 C 
ATOM     15  C   UNL     1      -6.511   2.457 132.038  0.00  0.00    +0.000 C 
ATOM     16  C   UNL     1      -8.125   1.793 131.955  0.00  0.00    +0.000 C 
ATOM     17  C   UNL     1      -8.135   0.307 131.653  0.00  0.00    +0.000 C 
BRANCH  15  18
ATOM     18  N   UNL     1      -5.054   2.826 130.932  0.00  0.00    +0.000 N 
ATOM     19  C   UNL     1      -5.776   4.091 130.843  0.00  0.00    +0.000 C 
ATOM     20  O   UNL     1      -6.223   4.833 131.752  0.00  0.00    +0.000 OA
ATOM     21  O   UNL     1      -6.151   4.453 129.631  0.00  0.00    +0.000 OA
ATOM     22  C   UNL     1      -5.123   5.343 129.407  0.00  0.00    +0.000 C 
ATOM     23  C   UNL     1      -4.435   4.341 128.619  0.00  0.00    +0.000 A 
ATOM     24  C   UNL     1      -4.252   4.736 127.183  0.00  0.00    +0.000 A 
ATOM     25  C   UNL     1      -3.455   4.116 126.260  0.00  0.00    +0.000 A 
ATOM     26  C   UNL     1      -2.597   3.283 126.919  0.00  0.00    +0.000 A 
ATOM     27  C   UNL     1      -2.853   2.894 128.495  0.00  0.00    +0.000 A 
ATOM     28  C   UNL     1      -4.113   3.177 129.360  0.00  0.00    +0.000 A 
ENDBRANCH  15  18
ENDBRANCH   5  10
BRANCH   1  29
ATOM     29  C   UNL     1      -8.263  -1.415 126.494  0.00  0.00    +0.000 C 
BRANCH  29  32
ATOM     30  C   UNL     1      -9.005   0.659 125.463  0.00  0.00    +0.000 C 
ATOM     31  O   UNL     1     -10.056   0.027 125.410  0.00  0.00    +0.000 OA
ATOM     32  N   UNL     1      -7.939  -0.026 126.085  0.00  0.00    +0.000 N 
ATOM     33  H   UNL     1      -7.059   0.412 126.307  0.00  0.00    +0.000 HD
BRANCH  30  34
ATOM     34  C   UNL     1      -8.866   2.138 124.893  0.00  0.00    +0.000 C 
BRANCH  34  38
ATOM     35  C   UNL     1      -7.077   3.501 121.342  0.00  0.00    +0.000 A 
ATOM     36  C   UNL     1      -8.531   3.390 121.364  0.00  0.00    +0.000 A 
ATOM     37  C   UNL     1      -8.994   2.684 122.411  0.00  0.00    +0.000 A 
ATOM     38  N   UNL     1      -8.206   2.505 123.564  0.00  0.00    +0.000 N 
ATOM     39  C   UNL     1      -6.847   2.889 123.505  0.00  0.00    +0.000 A 
ATOM     40  O   UNL     1      -6.087   2.958 124.450  0.00  0.00    +0.000 OA
ATOM     41  N   UNL     1      -6.297   3.213 122.304  0.00  0.00    +0.000 NA
BRANCH  35  42
ATOM     42  O   UNL     1      -6.592   3.838 120.121  0.00  0.00    +0.000 OA
BRANCH  42  44
ATOM     43  C   UNL     1      -5.620   5.823 119.113  0.00  0.00    +0.000 C 
ATOM     44  C   UNL     1      -5.448   4.728 120.149  0.00  0.00    +0.000 C 
ENDBRANCH  42  44
ENDBRANCH  35  42
ENDBRANCH  34  38
ENDBRANCH  30  34
ENDBRANCH  29  32
ENDBRANCH   1  29
TORSDOF 8
ENDMDL
MODEL 8
REMARK VINA RESULT:     -10.1      3.844     11.499
REMARK  Name = CHEMBL283894
REMARK  9 active torsions:
REMARK  status: ('A' for Active; 'I' for Inactive)
REMARK    1  A    between atoms: C_1  and  C_2
REMARK    2  A    between atoms: C_2  and  O_3
REMARK    3  A    between atoms: O_3  and  C_4
REMARK    4  A    between atoms: N_7  and  C_8
REMARK    5  A    between atoms: C_8  and  C_9
REMARK    6  A    between atoms: N_11  and  C_12
REMARK    7  A    between atoms: C_12  and  C_13
REMARK    8  A    between atoms: C_17  and  C_18
REMARK    9  A    between atoms: C_23  and  N_24
REMARK                            x       y       z     vdW  Elec       q    Type
REMARK                         _______ _______ _______ _____ _____    ______ ____
ROOT
ATOM      1  C   UNL     1      -3.658   5.036 130.080  0.00  0.00    +0.000 A 
ATOM      2  C   UNL     1      -2.601   5.415 129.256  0.00  0.00    +0.000 A 
ATOM      3  C   UNL     1      -3.037   5.034 127.969  0.00  0.00    +0.000 A 
ATOM      4  C   UNL     1      -4.163   5.410 127.186  0.00  0.00    +0.000 A 
ATOM      5  C   UNL     1      -4.691   4.627 126.146  0.00  0.00    +0.000 A 
ATOM      6  C   UNL     1      -4.026   3.453 125.853  0.00  0.00    +0.000 A 
ATOM      7  C   UNL     1      -3.166   2.935 126.857  0.00  0.00    +0.000 A 
ATOM      8  C   UNL     1      -3.080   3.653 128.113  0.00  0.00    +0.000 A 
ATOM      9  O   UNL     1      -4.063   3.771 129.390  0.00  0.00    +0.000 OA
ENDROOT
BRANCH   5  10
ATOM     10  C   UNL     1      -6.007   4.935 125.507  0.00  0.00    +0.000 C 
ATOM     11  O   UNL     1      -6.242   6.088 125.149  0.00  0.00    +0.000 OA
ATOM     12  N   UNL     1      -6.809   3.846 125.116  0.00  0.00    +0.000 N 
ATOM     13  C   UNL     1      -6.666   3.419 123.731  0.00  0.00    +0.000 C 
ATOM     14  C   UNL     1      -7.960   2.851 123.199  0.00  0.00    +0.000 C 
ATOM     15  C   UNL     1      -8.247   1.303 123.968  0.00  0.00    +0.000 C 
ATOM     16  C   UNL     1      -8.540   2.114 125.488  0.00  0.00    +0.000 C 
ATOM     17  C   UNL     1      -7.305   2.806 126.031  0.00  0.00    +0.000 C 
BRANCH  15  18
ATOM     18  N   UNL     1      -7.312  -0.158 123.279  0.00  0.00    +0.000 N 
ATOM     19  C   UNL     1      -8.496  -0.831 123.807  0.00  0.00    +0.000 C 
ATOM     20  O   UNL     1      -9.713  -0.582 123.631  0.00  0.00    +0.000 OA
ATOM     21  O   UNL     1      -8.270  -1.753 124.722  0.00  0.00    +0.000 OA
ATOM     22  C   UNL     1      -8.369  -2.839 123.880  0.00  0.00    +0.000 C 
ATOM     23  C   UNL     1      -6.923  -2.914 123.815  0.00  0.00    +0.000 A 
ATOM     24  C   UNL     1      -6.367  -4.190 124.374  0.00  0.00    +0.000 A 
ATOM     25  C   UNL     1      -5.084  -4.646 124.249  0.00  0.00    +0.000 A 
ATOM     26  C   UNL     1      -4.464  -3.931 123.263  0.00  0.00    +0.000 A 
ATOM     27  C   UNL     1      -5.130  -2.542 122.693  0.00  0.00    +0.000 A 
ATOM     28  C   UNL     1      -6.331  -1.746 123.274  0.00  0.00    +0.000 A 
ENDBRANCH  15  18
ENDBRANCH   5  10
BRANCH   1  29
ATOM     29  C   UNL     1      -3.751   5.458 131.575  0.00  0.00    +0.000 C 
BRANCH  29  32
ATOM     30  C   UNL     1      -3.328   6.835 133.535  0.00  0.00    +0.000 C 
ATOM     31  O   UNL     1      -4.449   6.426 133.821  0.00  0.00    +0.000 OA
ATOM     32  N   UNL     1      -2.812   6.332 132.321  0.00  0.00    +0.000 N 
ATOM     33  H   UNL     1      -1.861   6.484 132.023  0.00  0.00    +0.000 HD
BRANCH  30  34
ATOM     34  C   UNL     1      -2.517   7.836 134.469  0.00  0.00    +0.000 C 
BRANCH  34  38
ATOM     35  C   UNL     1      -0.449  11.360 133.483  0.00  0.00    +0.000 A 
ATOM     36  C   UNL     1      -1.734  11.500 134.159  0.00  0.00    +0.000 A 
ATOM     37  C   UNL     1      -2.452  10.363 134.176  0.00  0.00    +0.000 A 
ATOM     38  N   UNL     1      -1.828   9.114 133.992  0.00  0.00    +0.000 N 
ATOM     39  C   UNL     1      -0.480   9.102 133.569  0.00  0.00    +0.000 A 
ATOM     40  O   UNL     1       0.244   8.128 133.530  0.00  0.00    +0.000 OA
ATOM     41  N   UNL     1       0.101  10.261 133.156  0.00  0.00    +0.000 NA
BRANCH  35  42
ATOM     42  O   UNL     1       0.081  12.550 133.107  0.00  0.00    +0.000 OA
BRANCH  42  44
ATOM     43  C   UNL     1       0.584  13.003 130.774  0.00  0.00    +0.000 C 
ATOM     44  C   UNL     1       1.110  12.459 132.090  0.00  0.00    +0.000 C 
ENDBRANCH  42  44
ENDBRANCH  35  42
ENDBRANCH  34  38
ENDBRANCH  30  34
ENDBRANCH  29  32
ENDBRANCH   1  29
TORSDOF 8
ENDMDL
MODEL 9
REMARK VINA RESULT:      -9.9      2.759      9.790
REMARK  Name = CHEMBL283894
REMARK  9 active torsions:
REMARK  status: ('A' for Active; 'I' for Inactive)
REMARK    1  A    between atoms: C_1  and  C_2
REMARK    2  A    between atoms: C_2  and  O_3
REMARK    3  A    between atoms: O_3  and  C_4
REMARK    4  A    between atoms: N_7  and  C_8
REMARK    5  A    between atoms: C_8  and  C_9
REMARK    6  A    between atoms: N_11  and  C_12
REMARK    7  A    between atoms: C_12  and  C_13
REMARK    8  A    between atoms: C_17  and  C_18
REMARK    9  A    between atoms: C_23  and  N_24
REMARK                            x       y       z     vdW  Elec       q    Type
REMARK                         _______ _______ _______ _____ _____    ______ ____
ROOT
ATOM      1  C   UNL     1      -5.236   3.502 126.712  0.00  0.00    +0.000 A 
ATOM      2  C   UNL     1      -5.555   4.793 126.300  0.00  0.00    +0.000 A 
ATOM      3  C   UNL     1      -6.146   4.596 125.034  0.00  0.00    +0.000 A 
ATOM      4  C   UNL     1      -7.291   3.865 124.611  0.00  0.00    +0.000 A 
ATOM      5  C   UNL     1      -7.485   3.400 123.300  0.00  0.00    +0.000 A 
ATOM      6  C   UNL     1      -6.515   3.732 122.374  0.00  0.00    +0.000 A 
ATOM      7  C   UNL     1      -5.247   4.119 122.883  0.00  0.00    +0.000 A 
ATOM      8  C   UNL     1      -5.060   4.103 124.320  0.00  0.00    +0.000 A 
ATOM      9  O   UNL     1      -4.833   2.918 125.394  0.00  0.00    +0.000 OA
ENDROOT
BRANCH   5  10
ATOM     10  C   UNL     1      -8.575   2.440 122.948  0.00  0.00    +0.000 C 
ATOM     11  O   UNL     1      -9.055   2.470 121.816  0.00  0.00    +0.000 OA
ATOM     12  N   UNL     1      -8.823   1.383 123.845  0.00  0.00    +0.000 N 
ATOM     13  C   UNL     1      -8.143   0.130 123.550  0.00  0.00    +0.000 C 
ATOM     14  C   UNL     1      -8.960  -1.055 124.007  0.00  0.00    +0.000 C 
ATOM     15  C   UNL     1      -8.943  -1.102 125.759  0.00  0.00    +0.000 C 
ATOM     16  C   UNL     1      -9.922   0.344 125.806  0.00  0.00    +0.000 C 
ATOM     17  C   UNL     1      -9.202   1.559 125.256  0.00  0.00    +0.000 C 
BRANCH  15  18
ATOM     18  N   UNL     1      -7.422  -1.831 126.559  0.00  0.00    +0.000 N 
ATOM     19  C   UNL     1      -8.455  -2.691 127.130  0.00  0.00    +0.000 C 
ATOM     20  O   UNL     1      -9.375  -3.333 126.567  0.00  0.00    +0.000 OA
ATOM     21  O   UNL     1      -8.537  -2.690 128.446  0.00  0.00    +0.000 OA
ATOM     22  C   UNL     1      -7.841  -3.862 128.648  0.00  0.00    +0.000 C 
ATOM     23  C   UNL     1      -6.657  -3.095 128.977  0.00  0.00    +0.000 A 
ATOM     24  C   UNL     1      -6.183  -3.305 130.385  0.00  0.00    +0.000 A 
ATOM     25  C   UNL     1      -4.986  -2.907 130.912  0.00  0.00    +0.000 A 
ATOM     26  C   UNL     1      -4.147  -2.579 129.885  0.00  0.00    +0.000 A 
ATOM     27  C   UNL     1      -4.731  -2.367 128.364  0.00  0.00    +0.000 A 
ATOM     28  C   UNL     1      -6.215  -2.273 127.911  0.00  0.00    +0.000 A 
ENDBRANCH  15  18
ENDBRANCH   5  10
BRANCH   1  29
ATOM     29  C   UNL     1      -4.768   3.174 128.159  0.00  0.00    +0.000 C 
BRANCH  29  32
ATOM     30  C   UNL     1      -5.286   4.507 130.127  0.00  0.00    +0.000 C 
ATOM     31  O   UNL     1      -4.496   5.268 129.577  0.00  0.00    +0.000 OA
ATOM     32  N   UNL     1      -5.551   3.320 129.411  0.00  0.00    +0.000 N 
ATOM     33  H   UNL     1      -6.268   2.664 129.681  0.00  0.00    +0.000 HD
BRANCH  30  34
ATOM     34  C   UNL     1      -5.968   4.844 131.524  0.00  0.00    +0.000 C 
BRANCH  34  38
ATOM     35  C   UNL     1      -9.855   6.243 132.299  0.00  0.00    +0.000 A 
ATOM     36  C   UNL     1      -9.396   5.080 133.049  0.00  0.00    +0.000 A 
ATOM     37  C   UNL     1      -8.278   4.529 132.544  0.00  0.00    +0.000 A 
ATOM     38  N   UNL     1      -7.424   5.273 131.707  0.00  0.00    +0.000 N 
ATOM     39  C   UNL     1      -7.882   6.523 131.234  0.00  0.00    +0.000 A 
ATOM     40  O   UNL     1      -7.211   7.351 130.652  0.00  0.00    +0.000 OA
ATOM     41  N   UNL     1      -9.184   6.870 131.419  0.00  0.00    +0.000 NA
BRANCH  35  42
ATOM     42  O   UNL     1     -11.156   6.544 132.536  0.00  0.00    +0.000 OA
BRANCH  42  44
ATOM     43  C   UNL     1     -12.782   7.685 131.138  0.00  0.00    +0.000 C 
ATOM     44  C   UNL     1     -12.031   6.391 131.390  0.00  0.00    +0.000 C 
ENDBRANCH  42  44
ENDBRANCH  35  42
ENDBRANCH  34  38
ENDBRANCH  30  34
ENDBRANCH  29  32
ENDBRANCH   1  29
TORSDOF 8
ENDMDL
