MODEL 1
REMARK VINA RESULT:      -9.8      0.000      0.000
REMARK  Name = CHEMBL211440
REMARK  12 active torsions:
REMARK  status: ('A' for Active; 'I' for Inactive)
REMARK    1  A    between atoms: CD1_1  and  CG_2
REMARK    2  A    between atoms: CG_2  and  CD2_3
REMARK    3  A    between atoms: CG_2  and  CB_4
REMARK    4  A    between atoms: CB_4  and  CA_5
REMARK    5  A    between atoms: C_9  and  C_10
REMARK    6  A    between atoms: N_21  and  C_22
REMARK    7  A    between atoms: C_22  and  C_23
REMARK    8  A    between atoms: C_22  and  C_30
REMARK    9  A    between atoms: N_25  and  C_26
REMARK   10  A    between atoms: C_26  and  C_27
REMARK   11  A    between atoms: C_26  and  C_28
REMARK   12  A    between atoms: C_26  and  C_29
REMARK                            x       y       z     vdW  Elec       q    Type
REMARK                         _______ _______ _______ _____ _____    ______ ____
ROOT
ATOM      1  CA  LEU A   2      -4.447   3.169 126.875  0.00  0.00    +0.000 C 
ATOM      2  C   LEU A   2      -5.249   3.000 125.542  0.00  0.00    +0.000 C 
ATOM      3  O   LEU A   2      -5.301   3.789 124.603  0.00  0.00    +0.000 OA
ATOM      4  N   UNK A   1      -6.009   1.887 125.519  0.00  0.00    +0.000 N 
ATOM      5  C   UNK A   1      -5.927   0.880 126.551  0.00  0.00    +0.000 C 
ATOM      6  C   UNK A   1      -5.996   1.474 127.965  0.00  0.00    +0.000 C 
ATOM      7  O   UNK A   1      -6.574   0.814 128.822  0.00  0.00    +0.000 OA
ATOM      8  N   LEU A   2      -5.349   2.710 128.174  0.00  0.00    +0.000 N 
ATOM      9  H   UNK A   1      -6.582   1.798 124.689  0.00  0.00    +0.000 HD
ENDROOT
BRANCH   5  10
ATOM     10  C   UNK A   1      -7.088  -0.141 126.461  0.00  0.00    +0.000 C 
ATOM     11  C   UNK A   1      -6.571  -1.572 126.623  0.00  0.00    +0.000 C 
ATOM     12  C   UNK A   1      -6.321  -1.950 125.195  0.00  0.00    +0.000 A 
ATOM     13  C   UNK A   1      -5.432  -2.895 124.723  0.00  0.00    +0.000 A 
ATOM     14  C   UNK A   1      -5.252  -2.997 123.343  0.00  0.00    +0.000 A 
ATOM     15  C   UNK A   1      -5.947  -2.154 122.460  0.00  0.00    +0.000 A 
ATOM     16  C   UNK A   1      -6.833  -1.189 122.943  0.00  0.00    +0.000 A 
ATOM     17  C   UNK A   1      -7.012  -1.103 124.313  0.00  0.00    +0.000 A 
ATOM     18  C   UNK A   1      -7.807  -0.089 125.077  0.00  0.00    +0.000 C 
ENDBRANCH   5  10
BRANCH   1  19
ATOM     19  CB  LEU A   2      -3.930   4.602 126.834  0.00  0.00    +0.000 C 
BRANCH  19  21
ATOM     20  CD1 LEU A   2      -1.763   3.223 126.907  0.00  0.00    +0.000 C 
ATOM     21  CG  LEU A   2      -2.698   4.410 127.546  0.00  0.00    +0.000 C 
ATOM     22  CD2 LEU A   2      -2.331   6.216 128.157  0.00  0.00    +0.000 C 
ENDBRANCH  19  21
ENDBRANCH   1  19
BRANCH   8  23
ATOM     23  C   UNK A   0      -5.924   3.712 129.456  0.00  0.00    +0.000 C 
BRANCH  23  24
ATOM     24  C   UNK A   0      -4.874   3.781 130.560  0.00  0.00    +0.000 A 
ATOM     25  C   UNK A   0      -4.436   2.681 131.357  0.00  0.00    +0.000 A 
ATOM     26  C   UNK A   0      -3.600   2.910 132.464  0.00  0.00    +0.000 A 
ATOM     27  C   UNK A   0      -3.112   4.190 132.634  0.00  0.00    +0.000 A 
ATOM     28  C   UNK A   0      -3.483   5.201 131.801  0.00  0.00    +0.000 A 
ATOM     29  C   UNK A   0      -4.399   5.040 130.834  0.00  0.00    +0.000 A 
ATOM     30  O   UNK A   0      -2.950   6.410 132.057  0.00  0.00    +0.000 OA
ATOM     31  C   UNK A   0      -2.244   6.082 133.247  0.00  0.00    +0.000 C 
ATOM     32  O   UNK A   0      -2.296   4.674 133.606  0.00  0.00    +0.000 OA
ENDBRANCH  23  24
BRANCH  23  33
ATOM     33  C   UNK A   0      -7.673   3.875 130.230  0.00  0.00    +0.000 C 
ATOM     34  O   UNK A   0      -8.324   2.857 130.595  0.00  0.00    +0.000 OA
ATOM     35  N   UNK A   0      -8.384   5.128 130.525  0.00  0.00    +0.000 N 
ATOM     36  H   UNK A   0      -8.072   6.020 130.233  0.00  0.00    +0.000 HD
BRANCH  35  37
ATOM     37  C   UNK A   0      -9.651   5.720 130.933  0.00  0.00    +0.000 C 
ATOM     38  C   UNK A   0      -9.628   5.567 132.446  0.00  0.00    +0.000 C 
ATOM     39  C   UNK A   0      -9.598   7.042 130.249  0.00  0.00    +0.000 C 
ATOM     40  C   UNK A   0     -10.938   4.833 130.447  0.00  0.00    +0.000 C 
ENDBRANCH  35  37
ENDBRANCH  23  33
ENDBRANCH   8  23
TORSDOF 7
ENDMDL
MODEL 2
REMARK VINA RESULT:      -9.7      2.554      8.562
REMARK  Name = CHEMBL211440
REMARK  12 active torsions:
REMARK  status: ('A' for Active; 'I' for Inactive)
REMARK    1  A    between atoms: CD1_1  and  CG_2
REMARK    2  A    between atoms: CG_2  and  CD2_3
REMARK    3  A    between atoms: CG_2  and  CB_4
REMARK    4  A    between atoms: CB_4  and  CA_5
REMARK    5  A    between atoms: C_9  and  C_10
REMARK    6  A    between atoms: N_21  and  C_22
REMARK    7  A    between atoms: C_22  and  C_23
REMARK    8  A    between atoms: C_22  and  C_30
REMARK    9  A    between atoms: N_25  and  C_26
REMARK   10  A    between atoms: C_26  and  C_27
REMARK   11  A    between atoms: C_26  and  C_28
REMARK   12  A    between atoms: C_26  and  C_29
REMARK                            x       y       z     vdW  Elec       q    Type
REMARK                         _______ _______ _______ _____ _____    ______ ____
ROOT
ATOM      1  CA  LEU A   2      -5.351   2.878 128.302  0.00  0.00    +0.000 C 
ATOM      2  C   LEU A   2      -5.280   2.433 129.801  0.00  0.00    +0.000 C 
ATOM      3  O   LEU A   2      -4.298   2.007 130.401  0.00  0.00    +0.000 OA
ATOM      4  N   UNK A   1      -6.475   2.467 130.420  0.00  0.00    +0.000 N 
ATOM      5  C   UNK A   1      -7.647   3.037 129.797  0.00  0.00    +0.000 C 
ATOM      6  C   UNK A   1      -7.867   2.523 128.368  0.00  0.00    +0.000 C 
ATOM      7  O   UNK A   1      -9.028   2.370 128.000  0.00  0.00    +0.000 OA
ATOM      8  N   LEU A   2      -6.718   2.311 127.579  0.00  0.00    +0.000 N 
ATOM      9  H   UNK A   1      -6.455   2.121 131.372  0.00  0.00    +0.000 HD
ENDROOT
BRANCH   5  10
ATOM     10  C   UNK A   1      -8.943   2.699 130.576  0.00  0.00    +0.000 C 
ATOM     11  C   UNK A   1      -9.743   3.966 130.882  0.00  0.00    +0.000 C 
ATOM     12  C   UNK A   1      -9.200   4.328 132.231  0.00  0.00    +0.000 A 
ATOM     13  C   UNK A   1      -9.162   5.582 132.809  0.00  0.00    +0.000 A 
ATOM     14  C   UNK A   1      -8.487   5.727 134.021  0.00  0.00    +0.000 A 
ATOM     15  C   UNK A   1      -7.854   4.631 134.631  0.00  0.00    +0.000 A 
ATOM     16  C   UNK A   1      -7.882   3.369 134.035  0.00  0.00    +0.000 A 
ATOM     17  C   UNK A   1      -8.563   3.233 132.838  0.00  0.00    +0.000 A 
ATOM     18  C   UNK A   1      -8.641   2.028 131.953  0.00  0.00    +0.000 C 
ENDBRANCH   5  10
BRANCH   1  19
ATOM     19  CB  LEU A   2      -4.007   2.466 127.714  0.00  0.00    +0.000 C 
BRANCH  19  21
ATOM     20  CD1 LEU A   2      -4.581   4.953 127.416  0.00  0.00    +0.000 C 
ATOM     21  CG  LEU A   2      -3.756   3.628 126.909  0.00  0.00    +0.000 C 
ATOM     22  CD2 LEU A   2      -1.914   3.325 126.375  0.00  0.00    +0.000 C 
ENDBRANCH  19  21
ENDBRANCH   1  19
BRANCH   8  23
ATOM     23  C   UNK A   0      -6.824   1.161 126.297  0.00  0.00    +0.000 C 
BRANCH  23  24
ATOM     24  C   UNK A   0      -7.385   1.836 125.050  0.00  0.00    +0.000 A 
ATOM     25  C   UNK A   0      -8.768   1.922 124.706  0.00  0.00    +0.000 A 
ATOM     26  C   UNK A   0      -9.144   2.405 123.440  0.00  0.00    +0.000 A 
ATOM     27  C   UNK A   0      -8.147   2.926 122.641  0.00  0.00    +0.000 A 
ATOM     28  C   UNK A   0      -6.845   2.908 123.037  0.00  0.00    +0.000 A 
ATOM     29  C   UNK A   0      -6.444   2.311 124.171  0.00  0.00    +0.000 A 
ATOM     30  O   UNK A   0      -5.953   3.439 122.181  0.00  0.00    +0.000 OA
ATOM     31  C   UNK A   0      -6.837   3.728 121.106  0.00  0.00    +0.000 C 
ATOM     32  O   UNK A   0      -8.237   3.453 121.392  0.00  0.00    +0.000 OA
ENDBRANCH  23  24
BRANCH  23  33
ATOM     33  C   UNK A   0      -7.347  -0.686 126.312  0.00  0.00    +0.000 C 
ATOM     34  O   UNK A   0      -7.110  -1.425 127.308  0.00  0.00    +0.000 OA
ATOM     35  N   UNK A   0      -8.093  -1.391 125.259  0.00  0.00    +0.000 N 
ATOM     36  H   UNK A   0      -8.292  -1.003 124.371  0.00  0.00    +0.000 HD
BRANCH  35  37
ATOM     37  C   UNK A   0      -8.558  -2.686 124.781  0.00  0.00    +0.000 C 
ATOM     38  C   UNK A   0      -7.266  -3.461 124.576  0.00  0.00    +0.000 C 
ATOM     39  C   UNK A   0      -9.564  -3.044 125.820  0.00  0.00    +0.000 C 
ATOM     40  C   UNK A   0      -9.228  -2.596 123.290  0.00  0.00    +0.000 C 
ENDBRANCH  35  37
ENDBRANCH  23  33
ENDBRANCH   8  23
TORSDOF 7
ENDMDL
MODEL 3
REMARK VINA RESULT:      -9.7      3.193      8.699
REMARK  Name = CHEMBL211440
REMARK  12 active torsions:
REMARK  status: ('A' for Active; 'I' for Inactive)
REMARK    1  A    between atoms: CD1_1  and  CG_2
REMARK    2  A    between atoms: CG_2  and  CD2_3
REMARK    3  A    between atoms: CG_2  and  CB_4
REMARK    4  A    between atoms: CB_4  and  CA_5
REMARK    5  A    between atoms: C_9  and  C_10
REMARK    6  A    between atoms: N_21  and  C_22
REMARK    7  A    between atoms: C_22  and  C_23
REMARK    8  A    between atoms: C_22  and  C_30
REMARK    9  A    between atoms: N_25  and  C_26
REMARK   10  A    between atoms: C_26  and  C_27
REMARK   11  A    between atoms: C_26  and  C_28
REMARK   12  A    between atoms: C_26  and  C_29
REMARK                            x       y       z     vdW  Elec       q    Type
REMARK                         _______ _______ _______ _____ _____    ______ ____
ROOT
ATOM      1  CA  LEU A   2      -6.863   2.745 126.399  0.00  0.00    +0.000 C 
ATOM      2  C   LEU A   2      -6.452   4.018 127.212  0.00  0.00    +0.000 C 
ATOM      3  O   LEU A   2      -5.576   4.828 126.926  0.00  0.00    +0.000 OA
ATOM      4  N   UNK A   1      -7.111   4.135 128.381  0.00  0.00    +0.000 N 
ATOM      5  C   UNK A   1      -8.210   3.266 128.733  0.00  0.00    +0.000 C 
ATOM      6  C   UNK A   1      -7.883   1.782 128.518  0.00  0.00    +0.000 C 
ATOM      7  O   UNK A   1      -8.361   0.982 129.316  0.00  0.00    +0.000 OA
ATOM      8  N   LEU A   2      -7.096   1.455 127.395  0.00  0.00    +0.000 N 
ATOM      9  H   UNK A   1      -6.809   4.920 128.946  0.00  0.00    +0.000 HD
ENDROOT
BRANCH   5  10
ATOM     10  C   UNK A   1      -8.605   3.404 130.225  0.00  0.00    +0.000 C 
ATOM     11  C   UNK A   1     -10.124   3.360 130.394  0.00  0.00    +0.000 C 
ATOM     12  C   UNK A   1     -10.463   4.817 130.320  0.00  0.00    +0.000 A 
ATOM     13  C   UNK A   1     -11.664   5.379 129.934  0.00  0.00    +0.000 A 
ATOM     14  C   UNK A   1     -11.729   6.766 129.802  0.00  0.00    +0.000 A 
ATOM     15  C   UNK A   1     -10.601   7.568 130.045  0.00  0.00    +0.000 A 
ATOM     16  C   UNK A   1      -9.385   6.994 130.419  0.00  0.00    +0.000 A 
ATOM     17  C   UNK A   1      -9.334   5.618 130.557  0.00  0.00    +0.000 A 
ATOM     18  C   UNK A   1      -8.135   4.763 130.832  0.00  0.00    +0.000 C 
ENDBRANCH   5  10
BRANCH   1  19
ATOM     19  CB  LEU A   2      -5.804   2.626 125.309  0.00  0.00    +0.000 C 
BRANCH  19  21
ATOM     20  CD1 LEU A   2      -8.237   2.568 124.481  0.00  0.00    +0.000 C 
ATOM     21  CG  LEU A   2      -6.648   2.824 124.164  0.00  0.00    +0.000 C 
ATOM     22  CD2 LEU A   2      -5.682   4.222 123.224  0.00  0.00    +0.000 C 
ENDBRANCH  19  21
ENDBRANCH   1  19
BRANCH   8  23
ATOM     23  C   UNK A   0      -6.169   0.001 127.458  0.00  0.00    +0.000 C 
BRANCH  23  24
ATOM     24  C   UNK A   0      -6.529  -0.887 126.271  0.00  0.00    +0.000 A 
ATOM     25  C   UNK A   0      -5.664  -1.201 125.179  0.00  0.00    +0.000 A 
ATOM     26  C   UNK A   0      -6.175  -1.876 124.057  0.00  0.00    +0.000 A 
ATOM     27  C   UNK A   0      -7.470  -2.347 124.137  0.00  0.00    +0.000 A 
ATOM     28  C   UNK A   0      -8.241  -2.103 125.233  0.00  0.00    +0.000 A 
ATOM     29  C   UNK A   0      -7.828  -1.328 126.248  0.00  0.00    +0.000 A 
ATOM     30  O   UNK A   0      -9.489  -2.605 125.206  0.00  0.00    +0.000 OA
ATOM     31  C   UNK A   0      -9.476  -3.137 123.888  0.00  0.00    +0.000 C 
ATOM     32  O   UNK A   0      -8.195  -3.024 123.209  0.00  0.00    +0.000 OA
ENDBRANCH  23  24
BRANCH  23  33
ATOM     33  C   UNK A   0      -5.667  -1.101 128.949  0.00  0.00    +0.000 C 
ATOM     34  O   UNK A   0      -6.335  -1.094 130.020  0.00  0.00    +0.000 OA
ATOM     35  N   UNK A   0      -4.557  -2.063 128.989  0.00  0.00    +0.000 N 
ATOM     36  H   UNK A   0      -3.873  -2.146 128.277  0.00  0.00    +0.000 HD
BRANCH  35  37
ATOM     37  C   UNK A   0      -3.761  -2.941 129.836  0.00  0.00    +0.000 C 
ATOM     38  C   UNK A   0      -2.966  -3.760 128.830  0.00  0.00    +0.000 C 
ATOM     39  C   UNK A   0      -3.130  -1.965 130.768  0.00  0.00    +0.000 C 
ATOM     40  C   UNK A   0      -4.678  -4.038 130.631  0.00  0.00    +0.000 C 
ENDBRANCH  35  37
ENDBRANCH  23  33
ENDBRANCH   8  23
TORSDOF 7
ENDMDL
MODEL 4
REMARK VINA RESULT:      -9.7      2.877      8.811
REMARK  Name = CHEMBL211440
REMARK  12 active torsions:
REMARK  status: ('A' for Active; 'I' for Inactive)
REMARK    1  A    between atoms: CD1_1  and  CG_2
REMARK    2  A    between atoms: CG_2  and  CD2_3
REMARK    3  A    between atoms: CG_2  and  CB_4
REMARK    4  A    between atoms: CB_4  and  CA_5
REMARK    5  A    between atoms: C_9  and  C_10
REMARK    6  A    between atoms: N_21  and  C_22
REMARK    7  A    between atoms: C_22  and  C_23
REMARK    8  A    between atoms: C_22  and  C_30
REMARK    9  A    between atoms: N_25  and  C_26
REMARK   10  A    between atoms: C_26  and  C_27
REMARK   11  A    between atoms: C_26  and  C_28
REMARK   12  A    between atoms: C_26  and  C_29
REMARK                            x       y       z     vdW  Elec       q    Type
REMARK                         _______ _______ _______ _____ _____    ______ ____
ROOT
ATOM      1  CA  LEU A   2      -6.773   2.186 128.768  0.00  0.00    +0.000 C 
ATOM      2  C   LEU A   2      -7.071   3.723 128.748  0.00  0.00    +0.000 C 
ATOM      3  O   LEU A   2      -8.159   4.268 128.908  0.00  0.00    +0.000 OA
ATOM      4  N   UNK A   1      -5.992   4.467 128.436  0.00  0.00    +0.000 N 
ATOM      5  C   UNK A   1      -4.671   3.894 128.321  0.00  0.00    +0.000 C 
ATOM      6  C   UNK A   1      -4.647   2.632 127.448  0.00  0.00    +0.000 C 
ATOM      7  O   UNK A   1      -3.650   2.447 126.757  0.00  0.00    +0.000 OA
ATOM      8  N   LEU A   2      -5.754   1.764 127.545  0.00  0.00    +0.000 N 
ATOM      9  H   UNK A   1      -6.186   5.458 128.357  0.00  0.00    +0.000 HD
ENDROOT
BRANCH   5  10
ATOM     10  C   UNK A   1      -3.665   4.879 127.675  0.00  0.00    +0.000 C 
ATOM     11  C   UNK A   1      -2.340   4.885 128.439  0.00  0.00    +0.000 C 
ATOM     12  C   UNK A   1      -2.577   5.997 129.415  0.00  0.00    +0.000 A 
ATOM     13  C   UNK A   1      -1.979   6.170 130.647  0.00  0.00    +0.000 A 
ATOM     14  C   UNK A   1      -2.444   7.202 131.464  0.00  0.00    +0.000 A 
ATOM     15  C   UNK A   1      -3.497   8.033 131.049  0.00  0.00    +0.000 A 
ATOM     16  C   UNK A   1      -4.109   7.843 129.808  0.00  0.00    +0.000 A 
ATOM     17  C   UNK A   1      -3.634   6.824 129.002  0.00  0.00    +0.000 A 
ATOM     18  C   UNK A   1      -4.189   6.349 127.694  0.00  0.00    +0.000 C 
ENDBRANCH   5  10
BRANCH   1  19
ATOM     19  CB  LEU A   2      -8.147   1.528 128.814  0.00  0.00    +0.000 C 
BRANCH  19  21
ATOM     20  CD1 LEU A   2      -8.910   1.606 131.267  0.00  0.00    +0.000 C 
ATOM     21  CG  LEU A   2      -8.033   0.876 130.088  0.00  0.00    +0.000 C 
ATOM     22  CD2 LEU A   2      -7.806  -0.974 129.544  0.00  0.00    +0.000 C 
ENDBRANCH  19  21
ENDBRANCH   1  19
BRANCH   8  23
ATOM     23  C   UNK A   0      -6.107   0.755 126.190  0.00  0.00    +0.000 C 
BRANCH  23  24
ATOM     24  C   UNK A   0      -7.003   1.509 125.213  0.00  0.00    +0.000 A 
ATOM     25  C   UNK A   0      -8.413   1.684 125.348  0.00  0.00    +0.000 A 
ATOM     26  C   UNK A   0      -9.153   2.237 124.287  0.00  0.00    +0.000 A 
ATOM     27  C   UNK A   0      -8.443   2.733 123.213  0.00  0.00    +0.000 A 
ATOM     28  C   UNK A   0      -7.087   2.627 123.155  0.00  0.00    +0.000 A 
ATOM     29  C   UNK A   0      -6.375   1.965 124.081  0.00  0.00    +0.000 A 
ATOM     30  O   UNK A   0      -6.494   3.142 122.062  0.00  0.00    +0.000 OA
ATOM     31  C   UNK A   0      -7.662   3.521 121.347  0.00  0.00    +0.000 C 
ATOM     32  O   UNK A   0      -8.905   3.313 122.075  0.00  0.00    +0.000 OA
ENDBRANCH  23  24
BRANCH  23  33
ATOM     33  C   UNK A   0      -6.497  -1.122 126.095  0.00  0.00    +0.000 C 
ATOM     34  O   UNK A   0      -5.825  -1.964 126.754  0.00  0.00    +0.000 OA
ATOM     35  N   UNK A   0      -7.592  -1.749 125.341  0.00  0.00    +0.000 N 
ATOM     36  H   UNK A   0      -8.169  -1.263 124.700  0.00  0.00    +0.000 HD
BRANCH  35  37
ATOM     37  C   UNK A   0      -8.164  -3.007 124.880  0.00  0.00    +0.000 C 
ATOM     38  C   UNK A   0      -6.975  -3.712 124.245  0.00  0.00    +0.000 C 
ATOM     39  C   UNK A   0      -8.837  -3.500 126.113  0.00  0.00    +0.000 C 
ATOM     40  C   UNK A   0      -9.224  -2.796 123.650  0.00  0.00    +0.000 C 
ENDBRANCH  35  37
ENDBRANCH  23  33
ENDBRANCH   8  23
TORSDOF 7
ENDMDL
MODEL 5
REMARK VINA RESULT:      -9.6      1.535      3.947
REMARK  Name = CHEMBL211440
REMARK  12 active torsions:
REMARK  status: ('A' for Active; 'I' for Inactive)
REMARK    1  A    between atoms: CD1_1  and  CG_2
REMARK    2  A    between atoms: CG_2  and  CD2_3
REMARK    3  A    between atoms: CG_2  and  CB_4
REMARK    4  A    between atoms: CB_4  and  CA_5
REMARK    5  A    between atoms: C_9  and  C_10
REMARK    6  A    between atoms: N_21  and  C_22
REMARK    7  A    between atoms: C_22  and  C_23
REMARK    8  A    between atoms: C_22  and  C_30
REMARK    9  A    between atoms: N_25  and  C_26
REMARK   10  A    between atoms: C_26  and  C_27
REMARK   11  A    between atoms: C_26  and  C_28
REMARK   12  A    between atoms: C_26  and  C_29
REMARK                            x       y       z     vdW  Elec       q    Type
REMARK                         _______ _______ _______ _____ _____    ______ ____
ROOT
ATOM      1  CA  LEU A   2      -4.378   2.777 127.393  0.00  0.00    +0.000 C 
ATOM      2  C   LEU A   2      -5.461   2.636 126.272  0.00  0.00    +0.000 C 
ATOM      3  O   LEU A   2      -5.879   3.520 125.530  0.00  0.00    +0.000 OA
ATOM      4  N   UNK A   1      -6.014   1.409 126.222  0.00  0.00    +0.000 N 
ATOM      5  C   UNK A   1      -5.510   0.306 127.006  0.00  0.00    +0.000 C 
ATOM      6  C   UNK A   1      -5.304   0.675 128.481  0.00  0.00    +0.000 C 
ATOM      7  O   UNK A   1      -5.528  -0.199 129.314  0.00  0.00    +0.000 OA
ATOM      8  N   LEU A   2      -4.829   1.973 128.758  0.00  0.00    +0.000 N 
ATOM      9  H   UNK A   1      -6.761   1.322 125.543  0.00  0.00    +0.000 HD
ENDROOT
BRANCH   5  10
ATOM     10  C   UNK A   1      -6.478  -0.903 127.000  0.00  0.00    +0.000 C 
ATOM     11  C   UNK A   1      -5.732  -2.198 126.674  0.00  0.00    +0.000 C 
ATOM     12  C   UNK A   1      -5.888  -2.252 125.185  0.00  0.00    +0.000 A 
ATOM     13  C   UNK A   1      -5.062  -2.889 124.280  0.00  0.00    +0.000 A 
ATOM     14  C   UNK A   1      -5.309  -2.701 122.920  0.00  0.00    +0.000 A 
ATOM     15  C   UNK A   1      -6.361  -1.878 122.483  0.00  0.00    +0.000 A 
ATOM     16  C   UNK A   1      -7.183  -1.224 123.403  0.00  0.00    +0.000 A 
ATOM     17  C   UNK A   1      -6.936  -1.425 124.750  0.00  0.00    +0.000 A 
ATOM     18  C   UNK A   1      -7.593  -0.756 125.918  0.00  0.00    +0.000 C 
ENDBRANCH   5  10
BRANCH   1  19
ATOM     19  CB  LEU A   2      -4.123   4.276 127.496  0.00  0.00    +0.000 C 
BRANCH  19  21
ATOM     20  CD1 LEU A   2      -1.927   3.091 126.884  0.00  0.00    +0.000 C 
ATOM     21  CG  LEU A   2      -2.711   4.239 127.754  0.00  0.00    +0.000 C 
ATOM     22  CD2 LEU A   2      -2.349   6.109 128.130  0.00  0.00    +0.000 C 
ENDBRANCH  19  21
ENDBRANCH   1  19
BRANCH   8  23
ATOM     23  C   UNK A   0      -5.204   2.656 130.298  0.00  0.00    +0.000 C 
BRANCH  23  24
ATOM     24  C   UNK A   0      -6.667   3.085 130.325  0.00  0.00    +0.000 A 
ATOM     25  C   UNK A   0      -7.764   2.264 130.728  0.00  0.00    +0.000 A 
ATOM     26  C   UNK A   0      -9.081   2.713 130.531  0.00  0.00    +0.000 A 
ATOM     27  C   UNK A   0      -9.248   4.012 130.094  0.00  0.00    +0.000 A 
ATOM     28  C   UNK A   0      -8.176   4.798 129.800  0.00  0.00    +0.000 A 
ATOM     29  C   UNK A   0      -6.915   4.341 129.831  0.00  0.00    +0.000 A 
ATOM     30  O   UNK A   0      -8.451   6.047 129.379  0.00  0.00    +0.000 OA
ATOM     31  C   UNK A   0      -9.869   5.950 129.339  0.00  0.00    +0.000 C 
ATOM     32  O   UNK A   0     -10.397   4.686 129.829  0.00  0.00    +0.000 OA
ENDBRANCH  23  24
BRANCH  23  33
ATOM     33  C   UNK A   0      -4.180   3.814 131.436  0.00  0.00    +0.000 C 
ATOM     34  O   UNK A   0      -3.594   3.370 132.464  0.00  0.00    +0.000 OA
ATOM     35  N   UNK A   0      -3.924   5.246 131.222  0.00  0.00    +0.000 N 
ATOM     36  H   UNK A   0      -4.366   5.786 130.521  0.00  0.00    +0.000 HD
BRANCH  35  37
ATOM     37  C   UNK A   0      -3.388   6.468 131.805  0.00  0.00    +0.000 C 
ATOM     38  C   UNK A   0      -1.884   6.249 131.738  0.00  0.00    +0.000 C 
ATOM     39  C   UNK A   0      -4.093   7.513 131.012  0.00  0.00    +0.000 C 
ATOM     40  C   UNK A   0      -3.717   6.592 133.404  0.00  0.00    +0.000 C 
ENDBRANCH  35  37
ENDBRANCH  23  33
ENDBRANCH   8  23
TORSDOF 7
ENDMDL
MODEL 6
REMARK VINA RESULT:      -9.4      2.584      5.518
REMARK  Name = CHEMBL211440
REMARK  12 active torsions:
REMARK  status: ('A' for Active; 'I' for Inactive)
REMARK    1  A    between atoms: CD1_1  and  CG_2
REMARK    2  A    between atoms: CG_2  and  CD2_3
REMARK    3  A    between atoms: CG_2  and  CB_4
REMARK    4  A    between atoms: CB_4  and  CA_5
REMARK    5  A    between atoms: C_9  and  C_10
REMARK    6  A    between atoms: N_21  and  C_22
REMARK    7  A    between atoms: C_22  and  C_23
REMARK    8  A    between atoms: C_22  and  C_30
REMARK    9  A    between atoms: N_25  and  C_26
REMARK   10  A    between atoms: C_26  and  C_27
REMARK   11  A    between atoms: C_26  and  C_28
REMARK   12  A    between atoms: C_26  and  C_29
REMARK                            x       y       z     vdW  Elec       q    Type
REMARK                         _______ _______ _______ _____ _____    ______ ____
ROOT
ATOM      1  CA  LEU A   2      -7.852   0.767 129.890  0.00  0.00    +0.000 C 
ATOM      2  C   LEU A   2      -7.198  -0.364 129.028  0.00  0.00    +0.000 C 
ATOM      3  O   LEU A   2      -6.470  -1.270 129.424  0.00  0.00    +0.000 OA
ATOM      4  N   UNK A   1      -7.430  -0.225 127.709  0.00  0.00    +0.000 N 
ATOM      5  C   UNK A   1      -8.345   0.765 127.190  0.00  0.00    +0.000 C 
ATOM      6  C   UNK A   1      -8.103   2.161 127.780  0.00  0.00    +0.000 C 
ATOM      7  O   UNK A   1      -8.286   3.122 127.039  0.00  0.00    +0.000 OA
ATOM      8  N   LEU A   2      -7.736   2.228 129.139  0.00  0.00    +0.000 N 
ATOM      9  H   UNK A   1      -6.960  -0.914 127.134  0.00  0.00    +0.000 HD
ENDROOT
BRANCH   5  10
ATOM     10  C   UNK A   1      -8.221   0.924 125.654  0.00  0.00    +0.000 C 
ATOM     11  C   UNK A   1      -9.305   0.122 124.932  0.00  0.00    +0.000 C 
ATOM     12  C   UNK A   1      -8.597  -1.180 124.709  0.00  0.00    +0.000 A 
ATOM     13  C   UNK A   1      -9.169  -2.427 124.549  0.00  0.00    +0.000 A 
ATOM     14  C   UNK A   1      -8.323  -3.535 124.490  0.00  0.00    +0.000 A 
ATOM     15  C   UNK A   1      -6.931  -3.388 124.601  0.00  0.00    +0.000 A 
ATOM     16  C   UNK A   1      -6.359  -2.127 124.778  0.00  0.00    +0.000 A 
ATOM     17  C   UNK A   1      -7.205  -1.033 124.825  0.00  0.00    +0.000 A 
ATOM     18  C   UNK A   1      -6.854   0.393 125.119  0.00  0.00    +0.000 C 
ENDBRANCH   5  10
BRANCH   1  19
ATOM     19  CB  LEU A   2      -7.218   0.617 131.268  0.00  0.00    +0.000 C 
BRANCH  19  21
ATOM     20  CD1 LEU A   2      -9.703   0.943 131.835  0.00  0.00    +0.000 C 
ATOM     21  CG  LEU A   2      -8.143   1.415 132.021  0.00  0.00    +0.000 C 
ATOM     22  CD2 LEU A   2      -7.064   1.882 133.567  0.00  0.00    +0.000 C 
ENDBRANCH  19  21
ENDBRANCH   1  19
BRANCH   8  23
ATOM     23  C   UNK A   0      -6.835   3.604 129.662  0.00  0.00    +0.000 C 
BRANCH  23  24
ATOM     24  C   UNK A   0      -7.724   4.502 130.517  0.00  0.00    +0.000 A 
ATOM     25  C   UNK A   0      -7.360   5.074 131.773  0.00  0.00    +0.000 A 
ATOM     26  C   UNK A   0      -8.332   5.730 132.549  0.00  0.00    +0.000 A 
ATOM     27  C   UNK A   0      -9.573   5.925 131.976  0.00  0.00    +0.000 A 
ATOM     28  C   UNK A   0      -9.860   5.440 130.737  0.00  0.00    +0.000 A 
ATOM     29  C   UNK A   0      -9.000   4.677 130.044  0.00  0.00    +0.000 A 
ATOM     30  O   UNK A   0     -11.100   5.684 130.274  0.00  0.00    +0.000 OA
ATOM     31  C   UNK A   0     -11.635   6.320 131.427  0.00  0.00    +0.000 C 
ATOM     32  O   UNK A   0     -10.674   6.523 132.500  0.00  0.00    +0.000 OA
ENDBRANCH  23  24
BRANCH  23  33
ATOM     33  C   UNK A   0      -5.544   4.681 128.736  0.00  0.00    +0.000 C 
ATOM     34  O   UNK A   0      -5.765   5.105 127.567  0.00  0.00    +0.000 OA
ATOM     35  N   UNK A   0      -4.261   5.159 129.270  0.00  0.00    +0.000 N 
ATOM     36  H   UNK A   0      -3.878   4.861 130.133  0.00  0.00    +0.000 HD
BRANCH  35  37
ATOM     37  C   UNK A   0      -2.999   5.813 128.952  0.00  0.00    +0.000 C 
ATOM     38  C   UNK A   0      -2.345   5.979 130.316  0.00  0.00    +0.000 C 
ATOM     39  C   UNK A   0      -2.455   4.916 127.894  0.00  0.00    +0.000 C 
ATOM     40  C   UNK A   0      -3.210   7.341 128.406  0.00  0.00    +0.000 C 
ENDBRANCH  35  37
ENDBRANCH  23  33
ENDBRANCH   8  23
TORSDOF 7
ENDMDL
MODEL 7
REMARK VINA RESULT:      -9.4      2.386      3.294
REMARK  Name = CHEMBL211440
REMARK  12 active torsions:
REMARK  status: ('A' for Active; 'I' for Inactive)
REMARK    1  A    between atoms: CD1_1  and  CG_2
REMARK    2  A    between atoms: CG_2  and  CD2_3
REMARK    3  A    between atoms: CG_2  and  CB_4
REMARK    4  A    between atoms: CB_4  and  CA_5
REMARK    5  A    between atoms: C_9  and  C_10
REMARK    6  A    between atoms: N_21  and  C_22
REMARK    7  A    between atoms: C_22  and  C_23
REMARK    8  A    between atoms: C_22  and  C_30
REMARK    9  A    between atoms: N_25  and  C_26
REMARK   10  A    between atoms: C_26  and  C_27
REMARK   11  A    between atoms: C_26  and  C_28
REMARK   12  A    between atoms: C_26  and  C_29
REMARK                            x       y       z     vdW  Elec       q    Type
REMARK                         _______ _______ _______ _____ _____    ______ ____
ROOT
ATOM      1  CA  LEU A   2      -5.581   3.109 127.457  0.00  0.00    +0.000 C 
ATOM      2  C   LEU A   2      -5.461   3.026 125.898  0.00  0.00    +0.000 C 
ATOM      3  O   LEU A   2      -4.693   3.659 125.181  0.00  0.00    +0.000 OA
ATOM      4  N   UNK A   1      -6.382   2.219 125.339  0.00  0.00    +0.000 N 
ATOM      5  C   UNK A   1      -7.255   1.383 126.131  0.00  0.00    +0.000 C 
ATOM      6  C   UNK A   1      -7.929   2.151 127.276  0.00  0.00    +0.000 C 
ATOM      7  O   UNK A   1      -9.076   1.828 127.569  0.00  0.00    +0.000 OA
ATOM      8  N   LEU A   2      -7.159   3.135 127.930  0.00  0.00    +0.000 N 
ATOM      9  H   UNK A   1      -6.356   2.206 124.326  0.00  0.00    +0.000 HD
ENDROOT
BRANCH   5  10
ATOM     10  C   UNK A   1      -8.405   0.780 125.288  0.00  0.00    +0.000 C 
ATOM     11  C   UNK A   1      -8.740  -0.638 125.756  0.00  0.00    +0.000 C 
ATOM     12  C   UNK A   1      -7.854  -1.452 124.864  0.00  0.00    +0.000 A 
ATOM     13  C   UNK A   1      -7.351  -2.713 125.110  0.00  0.00    +0.000 A 
ATOM     14  C   UNK A   1      -6.429  -3.241 124.205  0.00  0.00    +0.000 A 
ATOM     15  C   UNK A   1      -6.015  -2.505 123.083  0.00  0.00    +0.000 A 
ATOM     16  C   UNK A   1      -6.515  -1.223 122.847  0.00  0.00    +0.000 A 
ATOM     17  C   UNK A   1      -7.437  -0.712 123.744  0.00  0.00    +0.000 A 
ATOM     18  C   UNK A   1      -8.027   0.664 123.778  0.00  0.00    +0.000 C 
ENDBRANCH   5  10
BRANCH   1  19
ATOM     19  CB  LEU A   2      -4.697   4.286 127.850  0.00  0.00    +0.000 C 
BRANCH  19  21
ATOM     20  CD1 LEU A   2      -4.291   2.290 129.418  0.00  0.00    +0.000 C 
ATOM     21  CG  LEU A   2      -3.691   3.568 128.581  0.00  0.00    +0.000 C 
ATOM     22  CD2 LEU A   2      -2.148   3.802 127.425  0.00  0.00    +0.000 C 
ENDBRANCH  19  21
ENDBRANCH   1  19
BRANCH   8  23
ATOM     23  C   UNK A   0      -7.997   4.428 128.707  0.00  0.00    +0.000 C 
BRANCH  23  24
ATOM     24  C   UNK A   0      -8.367   4.016 130.128  0.00  0.00    +0.000 A 
ATOM     25  C   UNK A   0      -9.455   3.165 130.487  0.00  0.00    +0.000 A 
ATOM     26  C   UNK A   0      -9.804   3.011 131.840  0.00  0.00    +0.000 A 
ATOM     27  C   UNK A   0      -8.965   3.578 132.778  0.00  0.00    +0.000 A 
ATOM     28  C   UNK A   0      -7.883   4.314 132.401  0.00  0.00    +0.000 A 
ATOM     29  C   UNK A   0      -7.619   4.604 131.118  0.00  0.00    +0.000 A 
ATOM     30  O   UNK A   0      -7.133   4.823 133.396  0.00  0.00    +0.000 OA
ATOM     31  C   UNK A   0      -7.928   4.404 134.497  0.00  0.00    +0.000 C 
ATOM     32  O   UNK A   0      -9.068   3.576 134.132  0.00  0.00    +0.000 OA
ENDBRANCH  23  24
BRANCH  23  33
ATOM     33  C   UNK A   0      -9.317   5.648 128.033  0.00  0.00    +0.000 C 
ATOM     34  O   UNK A   0      -9.450   5.848 126.793  0.00  0.00    +0.000 OA
ATOM     35  N   UNK A   0     -10.303   6.394 128.828  0.00  0.00    +0.000 N 
ATOM     36  H   UNK A   0     -10.299   6.431 129.817  0.00  0.00    +0.000 HD
BRANCH  35  37
ATOM     37  C   UNK A   0     -11.316   7.441 128.807  0.00  0.00    +0.000 C 
ATOM     38  C   UNK A   0     -11.835   7.445 130.236  0.00  0.00    +0.000 C 
ATOM     39  C   UNK A   0     -10.558   8.578 128.214  0.00  0.00    +0.000 C 
ATOM     40  C   UNK A   0     -12.614   7.033 127.896  0.00  0.00    +0.000 C 
ENDBRANCH  35  37
ENDBRANCH  23  33
ENDBRANCH   8  23
TORSDOF 7
ENDMDL
MODEL 8
REMARK VINA RESULT:      -9.3      2.765      7.984
REMARK  Name = CHEMBL211440
REMARK  12 active torsions:
REMARK  status: ('A' for Active; 'I' for Inactive)
REMARK    1  A    between atoms: CD1_1  and  CG_2
REMARK    2  A    between atoms: CG_2  and  CD2_3
REMARK    3  A    between atoms: CG_2  and  CB_4
REMARK    4  A    between atoms: CB_4  and  CA_5
REMARK    5  A    between atoms: C_9  and  C_10
REMARK    6  A    between atoms: N_21  and  C_22
REMARK    7  A    between atoms: C_22  and  C_23
REMARK    8  A    between atoms: C_22  and  C_30
REMARK    9  A    between atoms: N_25  and  C_26
REMARK   10  A    between atoms: C_26  and  C_27
REMARK   11  A    between atoms: C_26  and  C_28
REMARK   12  A    between atoms: C_26  and  C_29
REMARK                            x       y       z     vdW  Elec       q    Type
REMARK                         _______ _______ _______ _____ _____    ______ ____
ROOT
ATOM      1  CA  LEU A   2      -6.367   2.845 126.364  0.00  0.00    +0.000 C 
ATOM      2  C   LEU A   2      -4.903   3.017 126.890  0.00  0.00    +0.000 C 
ATOM      3  O   LEU A   2      -3.865   2.890 126.248  0.00  0.00    +0.000 OA
ATOM      4  N   UNK A   1      -4.841   3.249 128.215  0.00  0.00    +0.000 N 
ATOM      5  C   UNK A   1      -6.023   3.495 129.008  0.00  0.00    +0.000 C 
ATOM      6  C   UNK A   1      -7.129   2.461 128.757  0.00  0.00    +0.000 C 
ATOM      7  O   UNK A   1      -7.824   2.139 129.717  0.00  0.00    +0.000 OA
ATOM      8  N   LEU A   2      -7.287   1.998 127.435  0.00  0.00    +0.000 N 
ATOM      9  H   UNK A   1      -3.898   3.299 128.580  0.00  0.00    +0.000 HD
ENDROOT
BRANCH   5  10
ATOM     10  C   UNK A   1      -5.726   3.441 130.527  0.00  0.00    +0.000 C 
ATOM     11  C   UNK A   1      -6.238   4.700 131.229  0.00  0.00    +0.000 C 
ATOM     12  C   UNK A   1      -5.022   5.575 131.170  0.00  0.00    +0.000 A 
ATOM     13  C   UNK A   1      -4.982   6.954 131.196  0.00  0.00    +0.000 A 
ATOM     14  C   UNK A   1      -3.752   7.580 130.990  0.00  0.00    +0.000 A 
ATOM     15  C   UNK A   1      -2.589   6.828 130.754  0.00  0.00    +0.000 A 
ATOM     16  C   UNK A   1      -2.638   5.433 130.713  0.00  0.00    +0.000 A 
ATOM     17  C   UNK A   1      -3.861   4.822 130.928  0.00  0.00    +0.000 A 
ATOM     18  C   UNK A   1      -4.195   3.366 130.823  0.00  0.00    +0.000 C 
ENDBRANCH   5  10
BRANCH   1  19
ATOM     19  CB  LEU A   2      -6.206   2.283 124.956  0.00  0.00    +0.000 C 
BRANCH  19  21
ATOM     20  CD1 LEU A   2      -5.549   4.291 123.494  0.00  0.00    +0.000 C 
ATOM     21  CG  LEU A   2      -6.722   3.399 124.216  0.00  0.00    +0.000 C 
ATOM     22  CD2 LEU A   2      -8.426   2.694 123.610  0.00  0.00    +0.000 C 
ENDBRANCH  19  21
ENDBRANCH   1  19
BRANCH   8  23
ATOM     23  C   UNK A   0      -7.990   0.439 127.206  0.00  0.00    +0.000 C 
BRANCH  23  24
ATOM     24  C   UNK A   0      -7.078  -0.626 127.808  0.00  0.00    +0.000 A 
ATOM     25  C   UNK A   0      -5.811  -1.024 127.284  0.00  0.00    +0.000 A 
ATOM     26  C   UNK A   0      -5.153  -2.144 127.822  0.00  0.00    +0.000 A 
ATOM     27  C   UNK A   0      -5.702  -2.717 128.952  0.00  0.00    +0.000 A 
ATOM     28  C   UNK A   0      -6.869  -2.255 129.479  0.00  0.00    +0.000 A 
ATOM     29  C   UNK A   0      -7.595  -1.291 128.892  0.00  0.00    +0.000 A 
ATOM     30  O   UNK A   0      -7.317  -2.887 130.579  0.00  0.00    +0.000 OA
ATOM     31  C   UNK A   0      -6.328  -3.905 130.656  0.00  0.00    +0.000 C 
ATOM     32  O   UNK A   0      -5.271  -3.790 129.663  0.00  0.00    +0.000 OA
ENDBRANCH  23  24
BRANCH  23  33
ATOM     33  C   UNK A   0      -8.931  -0.303 125.706  0.00  0.00    +0.000 C 
ATOM     34  O   UNK A   0     -10.193  -0.296 125.658  0.00  0.00    +0.000 OA
ATOM     35  N   UNK A   0      -8.329  -0.870 124.491  0.00  0.00    +0.000 N 
ATOM     36  H   UNK A   0      -7.359  -1.038 124.383  0.00  0.00    +0.000 HD
BRANCH  35  37
ATOM     37  C   UNK A   0      -8.579  -1.611 123.262  0.00  0.00    +0.000 C 
ATOM     38  C   UNK A   0      -9.598  -0.742 122.540  0.00  0.00    +0.000 C 
ATOM     39  C   UNK A   0      -7.195  -1.830 122.758  0.00  0.00    +0.000 C 
ATOM     40  C   UNK A   0      -9.359  -3.024 123.535  0.00  0.00    +0.000 C 
ENDBRANCH  35  37
ENDBRANCH  23  33
ENDBRANCH   8  23
TORSDOF 7
ENDMDL
MODEL 9
REMARK VINA RESULT:      -9.2      5.153      6.755
REMARK  Name = CHEMBL211440
REMARK  12 active torsions:
REMARK  status: ('A' for Active; 'I' for Inactive)
REMARK    1  A    between atoms: CD1_1  and  CG_2
REMARK    2  A    between atoms: CG_2  and  CD2_3
REMARK    3  A    between atoms: CG_2  and  CB_4
REMARK    4  A    between atoms: CB_4  and  CA_5
REMARK    5  A    between atoms: C_9  and  C_10
REMARK    6  A    between atoms: N_21  and  C_22
REMARK    7  A    between atoms: C_22  and  C_23
REMARK    8  A    between atoms: C_22  and  C_30
REMARK    9  A    between atoms: N_25  and  C_26
REMARK   10  A    between atoms: C_26  and  C_27
REMARK   11  A    between atoms: C_26  and  C_28
REMARK   12  A    between atoms: C_26  and  C_29
REMARK                            x       y       z     vdW  Elec       q    Type
REMARK                         _______ _______ _______ _____ _____    ______ ____
ROOT
ATOM      1  CA  LEU A   2      -4.860  -3.120 130.775  0.00  0.00    +0.000 C 
ATOM      2  C   LEU A   2      -3.891  -2.588 129.667  0.00  0.00    +0.000 C 
ATOM      3  O   LEU A   2      -2.669  -2.701 129.636  0.00  0.00    +0.000 OA
ATOM      4  N   UNK A   1      -4.518  -1.869 128.717  0.00  0.00    +0.000 N 
ATOM      5  C   UNK A   1      -5.957  -1.772 128.651  0.00  0.00    +0.000 C 
ATOM      6  C   UNK A   1      -6.590  -1.424 130.005  0.00  0.00    +0.000 C 
ATOM      7  O   UNK A   1      -7.585  -0.706 129.991  0.00  0.00    +0.000 OA
ATOM      8  N   LEU A   2      -6.003  -1.996 131.153  0.00  0.00    +0.000 N 
ATOM      9  H   UNK A   1      -3.894  -1.465 128.028  0.00  0.00    +0.000 HD
ENDROOT
BRANCH   5  10
ATOM     10  C   UNK A   1      -6.422  -0.669 127.667  0.00  0.00    +0.000 C 
ATOM     11  C   UNK A   1      -7.756  -1.042 127.019  0.00  0.00    +0.000 C 
ATOM     12  C   UNK A   1      -7.287  -1.744 125.781  0.00  0.00    +0.000 A 
ATOM     13  C   UNK A   1      -7.966  -2.700 125.053  0.00  0.00    +0.000 A 
ATOM     14  C   UNK A   1      -7.292  -3.331 124.007  0.00  0.00    +0.000 A 
ATOM     15  C   UNK A   1      -5.958  -3.010 123.709  0.00  0.00    +0.000 A 
ATOM     16  C   UNK A   1      -5.270  -2.053 124.459  0.00  0.00    +0.000 A 
ATOM     17  C   UNK A   1      -5.950  -1.426 125.488  0.00  0.00    +0.000 A 
ATOM     18  C   UNK A   1      -5.409  -0.462 126.498  0.00  0.00    +0.000 C 
ENDBRANCH   5  10
BRANCH   1  19
ATOM     19  CB  LEU A   2      -3.941  -3.608 131.889  0.00  0.00    +0.000 C 
BRANCH  19  21
ATOM     20  CD1 LEU A   2      -5.517  -5.490 131.128  0.00  0.00    +0.000 C 
ATOM     21  CG  LEU A   2      -4.722  -4.724 132.342  0.00  0.00    +0.000 C 
ATOM     22  CD2 LEU A   2      -3.655  -5.345 133.841  0.00  0.00    +0.000 C 
ENDBRANCH  19  21
ENDBRANCH   1  19
BRANCH   8  23
ATOM     23  C   UNK A   0      -6.202  -1.169 132.654  0.00  0.00    +0.000 C 
BRANCH  23  24
ATOM     24  C   UNK A   0      -6.707  -2.146 133.712  0.00  0.00    +0.000 A 
ATOM     25  C   UNK A   0      -7.951  -2.845 133.666  0.00  0.00    +0.000 A 
ATOM     26  C   UNK A   0      -8.385  -3.572 134.789  0.00  0.00    +0.000 A 
ATOM     27  C   UNK A   0      -7.498  -3.702 135.839  0.00  0.00    +0.000 A 
ATOM     28  C   UNK A   0      -6.282  -3.092 135.812  0.00  0.00    +0.000 A 
ATOM     29  C   UNK A   0      -5.910  -2.266 134.822  0.00  0.00    +0.000 A 
ATOM     30  O   UNK A   0      -5.496  -3.282 136.889  0.00  0.00    +0.000 OA
ATOM     31  C   UNK A   0      -6.405  -4.030 137.685  0.00  0.00    +0.000 C 
ATOM     32  O   UNK A   0      -7.662  -4.345 137.024  0.00  0.00    +0.000 OA
ENDBRANCH  23  24
BRANCH  23  33
ATOM     33  C   UNK A   0      -6.873   0.588 133.037  0.00  0.00    +0.000 C 
ATOM     34  O   UNK A   0      -6.672   1.136 134.157  0.00  0.00    +0.000 OA
ATOM     35  N   UNK A   0      -7.598   1.467 132.109  0.00  0.00    +0.000 N 
ATOM     36  H   UNK A   0      -7.923   1.181 131.218  0.00  0.00    +0.000 HD
BRANCH  35  37
ATOM     37  C   UNK A   0      -8.362   2.701 131.974  0.00  0.00    +0.000 C 
ATOM     38  C   UNK A   0      -7.281   3.769 131.924  0.00  0.00    +0.000 C 
ATOM     39  C   UNK A   0      -9.243   2.382 130.816  0.00  0.00    +0.000 C 
ATOM     40  C   UNK A   0      -9.226   3.048 133.320  0.00  0.00    +0.000 C 
ENDBRANCH  35  37
ENDBRANCH  23  33
ENDBRANCH   8  23
TORSDOF 7
ENDMDL
