MODEL 1
REMARK VINA RESULT:      -9.4      0.000      0.000
REMARK  Name = CHEMBL459073
REMARK  7 active torsions:
REMARK  status: ('A' for Active; 'I' for Inactive)
REMARK    1  A    between atoms: C_1  and  O_2
REMARK    2  A    between atoms: O_2  and  C_3
REMARK    3  A    between atoms: C_6  and  N_7
REMARK    4  A    between atoms: N_7  and  C_8
REMARK    5  A    between atoms: N_7  and  S_23
REMARK    6  A    between atoms: C_8  and  C_9
REMARK    7  A    between atoms: S_23  and  C_26
REMARK                            x       y       z     vdW  Elec       q    Type
REMARK                         _______ _______ _______ _____ _____    ______ ____
ROOT
ATOM      1  N   UNL     1      -8.227   2.151 124.155  0.00  0.00    +0.000 N 
ENDROOT
BRANCH   1   5
ATOM      2  C   UNL     1      -7.072   3.942 120.488  0.00  0.00    +0.000 A 
ATOM      3  C   UNL     1      -6.155   3.298 121.304  0.00  0.00    +0.000 A 
ATOM      4  C   UNL     1      -6.586   2.444 122.324  0.00  0.00    +0.000 A 
ATOM      5  C   UNL     1      -7.908   2.510 122.773  0.00  0.00    +0.000 A 
ATOM      6  C   UNL     1      -8.838   3.066 121.895  0.00  0.00    +0.000 A 
ATOM      7  C   UNL     1      -8.424   3.746 120.737  0.00  0.00    +0.000 A 
BRANCH   2   9
ATOM      8  C   UNL     1      -5.318   5.351 119.734  0.00  0.00    +0.000 C 
ATOM      9  O   UNL     1      -6.522   4.649 119.460  0.00  0.00    +0.000 OA
ENDBRANCH   2   9
ENDBRANCH   1   5
BRANCH   1  10
ATOM     10  S   UNL     1      -9.100   0.665 124.423  0.00  0.00    +0.000 S 
ATOM     11  O   UNL     1      -9.647   0.655 125.744  0.00  0.00    +0.000 OA
ATOM     12  O   UNL     1     -10.004   0.491 123.264  0.00  0.00    +0.000 OA
BRANCH  10  13
ATOM     13  C   UNL     1      -7.964  -0.722 124.334  0.00  0.00    +0.000 A 
ATOM     14  C   UNL     1      -6.601  -0.522 124.622  0.00  0.00    +0.000 A 
ATOM     15  C   UNL     1      -5.699  -1.585 124.501  0.00  0.00    +0.000 A 
ATOM     16  C   UNL     1      -6.167  -2.867 124.214  0.00  0.00    +0.000 A 
ATOM     17  C   UNL     1      -7.534  -3.084 124.031  0.00  0.00    +0.000 A 
ATOM     18  C   UNL     1      -8.435  -2.014 124.099  0.00  0.00    +0.000 A 
ENDBRANCH  10  13
ENDBRANCH   1  10
BRANCH   1  19
ATOM     19  C   UNL     1      -8.335   3.236 125.192  0.00  0.00    +0.000 C 
BRANCH  19  20
ATOM     20  C   UNL     1      -7.245   3.447 126.308  0.00  0.00    +0.000 A 
ATOM     21  C   UNL     1      -6.005   3.111 125.905  0.00  0.00    +0.000 A 
ATOM     22  C   UNL     1      -4.807   3.508 126.602  0.00  0.00    +0.000 A 
ATOM     23  C   UNL     1      -3.561   3.325 125.936  0.00  0.00    +0.000 A 
ATOM     24  C   UNL     1      -2.343   3.529 126.579  0.00  0.00    +0.000 A 
ATOM     25  C   UNL     1      -2.352   4.011 127.862  0.00  0.00    +0.000 A 
ATOM     26  C   UNL     1      -3.576   4.250 128.498  0.00  0.00    +0.000 A 
ATOM     27  C   UNL     1      -4.876   4.023 127.891  0.00  0.00    +0.000 A 
ATOM     28  N   UNL     1      -6.265   4.296 128.573  0.00  0.00    +0.000 N 
ATOM     29  C   UNL     1      -7.441   4.061 127.764  0.00  0.00    +0.000 A 
ATOM     30  O   UNL     1      -8.577   4.324 128.159  0.00  0.00    +0.000 OA
ATOM     31  C   UNL     1      -6.223   4.866 130.177  0.00  0.00    +0.000 C 
ATOM     32  C   UNL     1      -4.779   4.841 130.377  0.00  0.00    +0.000 C 
ATOM     33  C   UNL     1      -3.405   4.711 129.912  0.00  0.00    +0.000 C 
ENDBRANCH  19  20
ENDBRANCH   1  19
TORSDOF 6
ENDMDL
MODEL 2
REMARK VINA RESULT:      -9.3      2.810      5.759
REMARK  Name = CHEMBL459073
REMARK  7 active torsions:
REMARK  status: ('A' for Active; 'I' for Inactive)
REMARK    1  A    between atoms: C_1  and  O_2
REMARK    2  A    between atoms: O_2  and  C_3
REMARK    3  A    between atoms: C_6  and  N_7
REMARK    4  A    between atoms: N_7  and  C_8
REMARK    5  A    between atoms: N_7  and  S_23
REMARK    6  A    between atoms: C_8  and  C_9
REMARK    7  A    between atoms: S_23  and  C_26
REMARK                            x       y       z     vdW  Elec       q    Type
REMARK                         _______ _______ _______ _____ _____    ______ ____
ROOT
ATOM      1  N   UNL     1      -7.036   2.853 124.490  0.00  0.00    +0.000 N 
ENDROOT
BRANCH   1   5
ATOM      2  C   UNL     1      -7.510   3.975 120.428  0.00  0.00    +0.000 A 
ATOM      3  C   UNL     1      -6.257   3.802 120.993  0.00  0.00    +0.000 A 
ATOM      4  C   UNL     1      -6.111   3.128 122.210  0.00  0.00    +0.000 A 
ATOM      5  C   UNL     1      -7.219   2.949 123.042  0.00  0.00    +0.000 A 
ATOM      6  C   UNL     1      -8.473   3.021 122.435  0.00  0.00    +0.000 A 
ATOM      7  C   UNL     1      -8.615   3.495 121.120  0.00  0.00    +0.000 A 
BRANCH   2   9
ATOM      8  C   UNL     1      -6.330   5.245 118.809  0.00  0.00    +0.000 C 
ATOM      9  O   UNL     1      -7.503   4.539 119.187  0.00  0.00    +0.000 OA
ENDBRANCH   2   9
ENDBRANCH   1   5
BRANCH   1  10
ATOM     10  S   UNL     1      -7.361   4.277 125.443  0.00  0.00    +0.000 S 
ATOM     11  O   UNL     1      -6.482   5.335 125.049  0.00  0.00    +0.000 OA
ATOM     12  O   UNL     1      -8.824   4.496 125.390  0.00  0.00    +0.000 OA
BRANCH  10  13
ATOM     13  C   UNL     1      -7.006   3.938 127.169  0.00  0.00    +0.000 A 
ATOM     14  C   UNL     1      -5.758   4.303 127.705  0.00  0.00    +0.000 A 
ATOM     15  C   UNL     1      -5.453   3.992 129.036  0.00  0.00    +0.000 A 
ATOM     16  C   UNL     1      -6.426   3.431 129.862  0.00  0.00    +0.000 A 
ATOM     17  C   UNL     1      -7.699   3.166 129.355  0.00  0.00    +0.000 A 
ATOM     18  C   UNL     1      -7.994   3.426 128.011  0.00  0.00    +0.000 A 
ENDBRANCH  10  13
ENDBRANCH   1  10
BRANCH   1  19
ATOM     19  C   UNL     1      -6.085   1.827 125.045  0.00  0.00    +0.000 C 
BRANCH  19  20
ATOM     20  C   UNL     1      -6.582   0.514 125.755  0.00  0.00    +0.000 A 
ATOM     21  C   UNL     1      -6.138   0.398 127.021  0.00  0.00    +0.000 A 
ATOM     22  C   UNL     1      -6.699  -0.521 127.981  0.00  0.00    +0.000 A 
ATOM     23  C   UNL     1      -6.331  -0.361 129.347  0.00  0.00    +0.000 A 
ATOM     24  C   UNL     1      -6.692  -1.285 130.323  0.00  0.00    +0.000 A 
ATOM     25  C   UNL     1      -7.504  -2.330 129.968  0.00  0.00    +0.000 A 
ATOM     26  C   UNL     1      -7.918  -2.456 128.636  0.00  0.00    +0.000 A 
ATOM     27  C   UNL     1      -7.546  -1.544 127.569  0.00  0.00    +0.000 A 
ATOM     28  N   UNL     1      -8.006  -1.651 126.071  0.00  0.00    +0.000 N 
ATOM     29  C   UNL     1      -7.570  -0.596 125.182  0.00  0.00    +0.000 A 
ATOM     30  O   UNL     1      -7.940  -0.524 124.010  0.00  0.00    +0.000 OA
ATOM     31  C   UNL     1      -8.991  -2.983 125.674  0.00  0.00    +0.000 C 
ATOM     32  C   UNL     1      -9.008  -3.634 126.978  0.00  0.00    +0.000 C 
ATOM     33  C   UNL     1      -8.745  -3.684 128.408  0.00  0.00    +0.000 C 
ENDBRANCH  19  20
ENDBRANCH   1  19
TORSDOF 6
ENDMDL
MODEL 3
REMARK VINA RESULT:      -9.2      6.886      8.438
REMARK  Name = CHEMBL459073
REMARK  7 active torsions:
REMARK  status: ('A' for Active; 'I' for Inactive)
REMARK    1  A    between atoms: C_1  and  O_2
REMARK    2  A    between atoms: O_2  and  C_3
REMARK    3  A    between atoms: C_6  and  N_7
REMARK    4  A    between atoms: N_7  and  C_8
REMARK    5  A    between atoms: N_7  and  S_23
REMARK    6  A    between atoms: C_8  and  C_9
REMARK    7  A    between atoms: S_23  and  C_26
REMARK                            x       y       z     vdW  Elec       q    Type
REMARK                         _______ _______ _______ _____ _____    ______ ____
ROOT
ATOM      1  N   UNL     1      -9.975   5.859 130.778  0.00  0.00    +0.000 N 
ENDROOT
BRANCH   1   5
ATOM      2  C   UNL     1     -12.634   8.936 129.576  0.00  0.00    +0.000 A 
ATOM      3  C   UNL     1     -11.560   8.553 128.788  0.00  0.00    +0.000 A 
ATOM      4  C   UNL     1     -10.897   7.345 129.026  0.00  0.00    +0.000 A 
ATOM      5  C   UNL     1     -11.052   6.698 130.255  0.00  0.00    +0.000 A 
ATOM      6  C   UNL     1     -12.195   7.018 130.987  0.00  0.00    +0.000 A 
ATOM      7  C   UNL     1     -13.004   8.109 130.628  0.00  0.00    +0.000 A 
BRANCH   2   9
ATOM      8  C   UNL     1     -13.497  11.070 130.149  0.00  0.00    +0.000 C 
ATOM      9  O   UNL     1     -13.266  10.072 129.165  0.00  0.00    +0.000 OA
ENDBRANCH   2   9
ENDBRANCH   1   5
BRANCH   1  10
ATOM     10  S   UNL     1      -9.771   4.274 130.078  0.00  0.00    +0.000 S 
ATOM     11  O   UNL     1     -11.015   3.569 130.102  0.00  0.00    +0.000 OA
ATOM     12  O   UNL     1      -9.076   4.470 128.785  0.00  0.00    +0.000 OA
BRANCH  10  13
ATOM     13  C   UNL     1      -8.626   3.320 131.077  0.00  0.00    +0.000 A 
ATOM     14  C   UNL     1      -9.113   2.565 132.160  0.00  0.00    +0.000 A 
ATOM     15  C   UNL     1      -8.221   1.862 132.977  0.00  0.00    +0.000 A 
ATOM     16  C   UNL     1      -6.867   1.811 132.650  0.00  0.00    +0.000 A 
ATOM     17  C   UNL     1      -6.400   2.476 131.515  0.00  0.00    +0.000 A 
ATOM     18  C   UNL     1      -7.280   3.224 130.722  0.00  0.00    +0.000 A 
ENDBRANCH  10  13
ENDBRANCH   1  10
BRANCH   1  19
ATOM     19  C   UNL     1      -9.480   6.085 132.181  0.00  0.00    +0.000 C 
BRANCH  19  20
ATOM     20  C   UNL     1      -7.947   6.129 132.537  0.00  0.00    +0.000 A 
ATOM     21  C   UNL     1      -7.667   5.567 133.728  0.00  0.00    +0.000 A 
ATOM     22  C   UNL     1      -6.337   5.187 134.135  0.00  0.00    +0.000 A 
ATOM     23  C   UNL     1      -6.206   4.363 135.290  0.00  0.00    +0.000 A 
ATOM     24  C   UNL     1      -4.967   4.072 135.853  0.00  0.00    +0.000 A 
ATOM     25  C   UNL     1      -3.837   4.518 135.218  0.00  0.00    +0.000 A 
ATOM     26  C   UNL     1      -3.961   5.277 134.048  0.00  0.00    +0.000 A 
ATOM     27  C   UNL     1      -5.225   5.642 133.435  0.00  0.00    +0.000 A 
ATOM     28  N   UNL     1      -5.395   6.478 132.116  0.00  0.00    +0.000 N 
ATOM     29  C   UNL     1      -6.749   6.673 131.642  0.00  0.00    +0.000 A 
ATOM     30  O   UNL     1      -7.000   7.234 130.575  0.00  0.00    +0.000 OA
ATOM     31  C   UNL     1      -3.963   7.035 131.381  0.00  0.00    +0.000 C 
ATOM     32  C   UNL     1      -3.009   6.533 132.362  0.00  0.00    +0.000 C 
ATOM     33  C   UNL     1      -2.636   5.737 133.523  0.00  0.00    +0.000 C 
ENDBRANCH  19  20
ENDBRANCH   1  19
TORSDOF 6
ENDMDL
MODEL 4
REMARK VINA RESULT:      -9.1      2.423      6.170
REMARK  Name = CHEMBL459073
REMARK  7 active torsions:
REMARK  status: ('A' for Active; 'I' for Inactive)
REMARK    1  A    between atoms: C_1  and  O_2
REMARK    2  A    between atoms: O_2  and  C_3
REMARK    3  A    between atoms: C_6  and  N_7
REMARK    4  A    between atoms: N_7  and  C_8
REMARK    5  A    between atoms: N_7  and  S_23
REMARK    6  A    between atoms: C_8  and  C_9
REMARK    7  A    between atoms: S_23  and  C_26
REMARK                            x       y       z     vdW  Elec       q    Type
REMARK                         _______ _______ _______ _____ _____    ______ ____
ROOT
ATOM      1  N   UNL     1      -6.637   3.143 124.475  0.00  0.00    +0.000 N 
ENDROOT
BRANCH   1   5
ATOM      2  C   UNL     1      -7.523   3.993 120.416  0.00  0.00    +0.000 A 
ATOM      3  C   UNL     1      -6.217   3.893 120.870  0.00  0.00    +0.000 A 
ATOM      4  C   UNL     1      -5.937   3.301 122.105  0.00  0.00    +0.000 A 
ATOM      5  C   UNL     1      -6.957   3.142 123.048  0.00  0.00    +0.000 A 
ATOM      6  C   UNL     1      -8.262   3.139 122.558  0.00  0.00    +0.000 A 
ATOM      7  C   UNL     1      -8.541   3.526 121.236  0.00  0.00    +0.000 A 
BRANCH   2   9
ATOM      8  C   UNL     1      -6.519   5.140 118.598  0.00  0.00    +0.000 C 
ATOM      9  O   UNL     1      -7.649   4.478 119.148  0.00  0.00    +0.000 OA
ENDBRANCH   2   9
ENDBRANCH   1   5
BRANCH   1  10
ATOM     10  S   UNL     1      -6.443   4.689 125.259  0.00  0.00    +0.000 S 
ATOM     11  O   UNL     1      -5.774   5.598 124.381  0.00  0.00    +0.000 OA
ATOM     12  O   UNL     1      -7.769   5.055 125.806  0.00  0.00    +0.000 OA
BRANCH  10  13
ATOM     13  C   UNL     1      -5.386   4.502 126.698  0.00  0.00    +0.000 A 
ATOM     14  C   UNL     1      -5.966   4.277 127.960  0.00  0.00    +0.000 A 
ATOM     15  C   UNL     1      -5.152   4.186 129.095  0.00  0.00    +0.000 A 
ATOM     16  C   UNL     1      -3.764   4.197 128.961  0.00  0.00    +0.000 A 
ATOM     17  C   UNL     1      -3.189   4.317 127.695  0.00  0.00    +0.000 A 
ATOM     18  C   UNL     1      -3.998   4.461 126.561  0.00  0.00    +0.000 A 
ENDBRANCH  10  13
ENDBRANCH   1  10
BRANCH   1  19
ATOM     19  C   UNL     1      -5.946   1.949 125.076  0.00  0.00    +0.000 C 
BRANCH  19  20
ATOM     20  C   UNL     1      -6.738   0.702 125.620  0.00  0.00    +0.000 A 
ATOM     21  C   UNL     1      -7.472   0.089 124.672  0.00  0.00    +0.000 A 
ATOM     22  C   UNL     1      -8.017  -1.238 124.822  0.00  0.00    +0.000 A 
ATOM     23  C   UNL     1      -8.538  -1.877 123.660  0.00  0.00    +0.000 A 
ATOM     24  C   UNL     1      -9.224  -3.086 123.726  0.00  0.00    +0.000 A 
ATOM     25  C   UNL     1      -9.316  -3.721 124.937  0.00  0.00    +0.000 A 
ATOM     26  C   UNL     1      -8.752  -3.125 126.071  0.00  0.00    +0.000 A 
ATOM     27  C   UNL     1      -8.057  -1.850 126.070  0.00  0.00    +0.000 A 
ATOM     28  N   UNL     1      -7.400  -1.163 127.321  0.00  0.00    +0.000 N 
ATOM     29  C   UNL     1      -6.698   0.080 127.085  0.00  0.00    +0.000 A 
ATOM     30  O   UNL     1      -6.070   0.662 127.970  0.00  0.00    +0.000 OA
ATOM     31  C   UNL     1      -7.568  -1.978 128.808  0.00  0.00    +0.000 C 
ATOM     32  C   UNL     1      -8.383  -3.096 128.349  0.00  0.00    +0.000 C 
ATOM     33  C   UNL     1      -9.000  -3.917 127.317  0.00  0.00    +0.000 C 
ENDBRANCH  19  20
ENDBRANCH   1  19
TORSDOF 6
ENDMDL
MODEL 5
REMARK VINA RESULT:      -9.1      2.266      5.057
REMARK  Name = CHEMBL459073
REMARK  7 active torsions:
REMARK  status: ('A' for Active; 'I' for Inactive)
REMARK    1  A    between atoms: C_1  and  O_2
REMARK    2  A    between atoms: O_2  and  C_3
REMARK    3  A    between atoms: C_6  and  N_7
REMARK    4  A    between atoms: N_7  and  C_8
REMARK    5  A    between atoms: N_7  and  S_23
REMARK    6  A    between atoms: C_8  and  C_9
REMARK    7  A    between atoms: S_23  and  C_26
REMARK                            x       y       z     vdW  Elec       q    Type
REMARK                         _______ _______ _______ _____ _____    ______ ____
ROOT
ATOM      1  N   UNL     1      -6.349   2.134 125.597  0.00  0.00    +0.000 N 
ENDROOT
BRANCH   1   5
ATOM      2  C   UNL     1      -8.851  -1.144 124.608  0.00  0.00    +0.000 A 
ATOM      3  C   UNL     1      -7.909  -0.653 123.717  0.00  0.00    +0.000 A 
ATOM      4  C   UNL     1      -6.886   0.192 124.158  0.00  0.00    +0.000 A 
ATOM      5  C   UNL     1      -7.003   0.843 125.389  0.00  0.00    +0.000 A 
ATOM      6  C   UNL     1      -7.879   0.273 126.314  0.00  0.00    +0.000 A 
ATOM      7  C   UNL     1      -8.772  -0.742 125.934  0.00  0.00    +0.000 A 
BRANCH   2   9
ATOM      8  C   UNL     1      -9.163  -3.260 123.583  0.00  0.00    +0.000 C 
ATOM      9  O   UNL     1      -9.720  -2.050 124.076  0.00  0.00    +0.000 OA
ENDBRANCH   2   9
ENDBRANCH   1   5
BRANCH   1  10
ATOM     10  S   UNL     1      -7.075   3.537 124.858  0.00  0.00    +0.000 S 
ATOM     11  O   UNL     1      -8.477   3.318 124.675  0.00  0.00    +0.000 OA
ATOM     12  O   UNL     1      -6.622   4.709 125.640  0.00  0.00    +0.000 OA
BRANCH  10  13
ATOM     13  C   UNL     1      -6.381   3.779 123.220  0.00  0.00    +0.000 A 
ATOM     14  C   UNL     1      -7.105   3.357 122.091  0.00  0.00    +0.000 A 
ATOM     15  C   UNL     1      -6.547   3.492 120.814  0.00  0.00    +0.000 A 
ATOM     16  C   UNL     1      -5.330   4.152 120.651  0.00  0.00    +0.000 A 
ATOM     17  C   UNL     1      -4.661   4.663 121.765  0.00  0.00    +0.000 A 
ATOM     18  C   UNL     1      -5.189   4.485 123.050  0.00  0.00    +0.000 A 
ENDBRANCH  10  13
ENDBRANCH   1  10
BRANCH   1  19
ATOM     19  C   UNL     1      -4.875   2.173 125.901  0.00  0.00    +0.000 C 
BRANCH  19  20
ATOM     20  C   UNL     1      -4.315   2.609 127.305  0.00  0.00    +0.000 A 
ATOM     21  C   UNL     1      -3.527   3.698 127.244  0.00  0.00    +0.000 A 
ATOM     22  C   UNL     1      -3.161   4.482 128.397  0.00  0.00    +0.000 A 
ATOM     23  C   UNL     1      -2.555   5.751 128.172  0.00  0.00    +0.000 A 
ATOM     24  C   UNL     1      -2.026   6.512 129.210  0.00  0.00    +0.000 A 
ATOM     25  C   UNL     1      -2.180   6.064 130.497  0.00  0.00    +0.000 A 
ATOM     26  C   UNL     1      -2.831   4.845 130.726  0.00  0.00    +0.000 A 
ATOM     27  C   UNL     1      -3.371   3.992 129.682  0.00  0.00    +0.000 A 
ATOM     28  N   UNL     1      -4.119   2.629 129.908  0.00  0.00    +0.000 N 
ATOM     29  C   UNL     1      -4.636   1.970 128.728  0.00  0.00    +0.000 A 
ATOM     30  O   UNL     1      -5.315   0.944 128.790  0.00  0.00    +0.000 OA
ATOM     31  C   UNL     1      -4.259   2.101 131.521  0.00  0.00    +0.000 C 
ATOM     32  C   UNL     1      -3.518   3.178 132.166  0.00  0.00    +0.000 C 
ATOM     33  C   UNL     1      -2.855   4.474 132.176  0.00  0.00    +0.000 C 
ENDBRANCH  19  20
ENDBRANCH   1  19
TORSDOF 6
ENDMDL
MODEL 6
REMARK VINA RESULT:      -9.0      6.693      9.084
REMARK  Name = CHEMBL459073
REMARK  7 active torsions:
REMARK  status: ('A' for Active; 'I' for Inactive)
REMARK    1  A    between atoms: C_1  and  O_2
REMARK    2  A    between atoms: O_2  and  C_3
REMARK    3  A    between atoms: C_6  and  N_7
REMARK    4  A    between atoms: N_7  and  C_8
REMARK    5  A    between atoms: N_7  and  S_23
REMARK    6  A    between atoms: C_8  and  C_9
REMARK    7  A    between atoms: S_23  and  C_26
REMARK                            x       y       z     vdW  Elec       q    Type
REMARK                         _______ _______ _______ _____ _____    ______ ____
ROOT
ATOM      1  N   UNL     1      -8.980   5.335 131.188  0.00  0.00    +0.000 N 
ENDROOT
BRANCH   1   5
ATOM      2  C   UNL     1      -7.443   1.903 133.149  0.00  0.00    +0.000 A 
ATOM      3  C   UNL     1      -8.130   2.889 133.839  0.00  0.00    +0.000 A 
ATOM      4  C   UNL     1      -8.903   3.831 133.154  0.00  0.00    +0.000 A 
ATOM      5  C   UNL     1      -8.706   4.027 131.784  0.00  0.00    +0.000 A 
ATOM      6  C   UNL     1      -8.108   2.980 131.084  0.00  0.00    +0.000 A 
ATOM      7  C   UNL     1      -7.513   1.903 131.762  0.00  0.00    +0.000 A 
BRANCH   2   9
ATOM      8  C   UNL     1      -5.709   1.418 134.693  0.00  0.00    +0.000 C 
ATOM      9  O   UNL     1      -6.828   0.977 133.938  0.00  0.00    +0.000 OA
ENDBRANCH   2   9
ENDBRANCH   1   5
BRANCH   1  10
ATOM     10  S   UNL     1     -10.005   5.381 129.777  0.00  0.00    +0.000 S 
ATOM     11  O   UNL     1      -9.213   5.613 128.609  0.00  0.00    +0.000 OA
ATOM     12  O   UNL     1     -10.865   4.177 129.841  0.00  0.00    +0.000 OA
BRANCH  10  13
ATOM     13  C   UNL     1     -11.140   6.766 129.905  0.00  0.00    +0.000 A 
ATOM     14  C   UNL     1     -11.944   6.899 131.051  0.00  0.00    +0.000 A 
ATOM     15  C   UNL     1     -12.871   7.945 131.134  0.00  0.00    +0.000 A 
ATOM     16  C   UNL     1     -12.912   8.921 130.140  0.00  0.00    +0.000 A 
ATOM     17  C   UNL     1     -12.040   8.844 129.053  0.00  0.00    +0.000 A 
ATOM     18  C   UNL     1     -11.146   7.771 128.938  0.00  0.00    +0.000 A 
ENDBRANCH  10  13
ENDBRANCH   1  10
BRANCH   1  19
ATOM     19  C   UNL     1      -8.000   6.458 131.392  0.00  0.00    +0.000 C 
BRANCH  19  20
ATOM     20  C   UNL     1      -6.455   6.209 131.557  0.00  0.00    +0.000 A 
ATOM     21  C   UNL     1      -5.788   6.240 130.388  0.00  0.00    +0.000 A 
ATOM     22  C   UNL     1      -4.354   6.368 130.293  0.00  0.00    +0.000 A 
ATOM     23  C   UNL     1      -3.797   6.661 129.016  0.00  0.00    +0.000 A 
ATOM     24  C   UNL     1      -2.425   6.650 128.787  0.00  0.00    +0.000 A 
ATOM     25  C   UNL     1      -1.585   6.442 129.851  0.00  0.00    +0.000 A 
ATOM     26  C   UNL     1      -2.129   6.214 131.121  0.00  0.00    +0.000 A 
ATOM     27  C   UNL     1      -3.551   6.179 131.412  0.00  0.00    +0.000 A 
ATOM     28  N   UNL     1      -4.190   5.942 132.828  0.00  0.00    +0.000 N 
ATOM     29  C   UNL     1      -5.634   6.011 132.907  0.00  0.00    +0.000 A 
ATOM     30  O   UNL     1      -6.241   5.930 133.975  0.00  0.00    +0.000 OA
ATOM     31  C   UNL     1      -3.107   5.658 134.111  0.00  0.00    +0.000 C 
ATOM     32  C   UNL     1      -1.862   5.688 133.352  0.00  0.00    +0.000 C 
ATOM     33  C   UNL     1      -1.078   5.942 132.152  0.00  0.00    +0.000 C 
ENDBRANCH  19  20
ENDBRANCH   1  19
TORSDOF 6
ENDMDL
MODEL 7
REMARK VINA RESULT:      -9.0      5.497      7.889
REMARK  Name = CHEMBL459073
REMARK  7 active torsions:
REMARK  status: ('A' for Active; 'I' for Inactive)
REMARK    1  A    between atoms: C_1  and  O_2
REMARK    2  A    between atoms: O_2  and  C_3
REMARK    3  A    between atoms: C_6  and  N_7
REMARK    4  A    between atoms: N_7  and  C_8
REMARK    5  A    between atoms: N_7  and  S_23
REMARK    6  A    between atoms: C_8  and  C_9
REMARK    7  A    between atoms: S_23  and  C_26
REMARK                            x       y       z     vdW  Elec       q    Type
REMARK                         _______ _______ _______ _____ _____    ______ ____
ROOT
ATOM      1  N   UNL     1      -9.969   5.541 131.167  0.00  0.00    +0.000 N 
ENDROOT
BRANCH   1   5
ATOM      2  C   UNL     1     -12.487   8.654 129.770  0.00  0.00    +0.000 A 
ATOM      3  C   UNL     1     -11.416   8.193 129.021  0.00  0.00    +0.000 A 
ATOM      4  C   UNL     1     -10.804   6.974 129.329  0.00  0.00    +0.000 A 
ATOM      5  C   UNL     1     -11.005   6.393 130.584  0.00  0.00    +0.000 A 
ATOM      6  C   UNL     1     -12.146   6.791 131.279  0.00  0.00    +0.000 A 
ATOM      7  C   UNL     1     -12.907   7.893 130.853  0.00  0.00    +0.000 A 
BRANCH   2   9
ATOM      8  C   UNL     1     -13.354  10.811 130.239  0.00  0.00    +0.000 C 
ATOM      9  O   UNL     1     -13.069   9.791 129.293  0.00  0.00    +0.000 OA
ENDBRANCH   2   9
ENDBRANCH   1   5
BRANCH   1  10
ATOM     10  S   UNL     1     -10.047   3.830 130.834  0.00  0.00    +0.000 S 
ATOM     11  O   UNL     1      -9.710   3.090 132.010  0.00  0.00    +0.000 OA
ATOM     12  O   UNL     1     -11.351   3.588 130.175  0.00  0.00    +0.000 OA
BRANCH  10  13
ATOM     13  C   UNL     1      -8.819   3.404 129.596  0.00  0.00    +0.000 A 
ATOM     14  C   UNL     1      -8.527   2.051 129.346  0.00  0.00    +0.000 A 
ATOM     15  C   UNL     1      -7.532   1.711 128.422  0.00  0.00    +0.000 A 
ATOM     16  C   UNL     1      -6.915   2.706 127.664  0.00  0.00    +0.000 A 
ATOM     17  C   UNL     1      -7.280   4.041 127.840  0.00  0.00    +0.000 A 
ATOM     18  C   UNL     1      -8.238   4.392 128.800  0.00  0.00    +0.000 A 
ENDBRANCH  10  13
ENDBRANCH   1  10
BRANCH   1  19
ATOM     19  C   UNL     1      -9.262   5.990 132.417  0.00  0.00    +0.000 C 
BRANCH  19  20
ATOM     20  C   UNL     1      -7.699   5.913 132.576  0.00  0.00    +0.000 A 
ATOM     21  C   UNL     1      -7.035   6.437 131.529  0.00  0.00    +0.000 A 
ATOM     22  C   UNL     1      -5.636   6.784 131.566  0.00  0.00    +0.000 A 
ATOM     23  C   UNL     1      -5.120   7.573 130.498  0.00  0.00    +0.000 A 
ATOM     24  C   UNL     1      -3.759   7.830 130.360  0.00  0.00    +0.000 A 
ATOM     25  C   UNL     1      -2.905   7.384 131.335  0.00  0.00    +0.000 A 
ATOM     26  C   UNL     1      -3.418   6.659 132.418  0.00  0.00    +0.000 A 
ATOM     27  C   UNL     1      -4.822   6.332 132.597  0.00  0.00    +0.000 A 
ATOM     28  N   UNL     1      -5.428   5.536 133.808  0.00  0.00    +0.000 N 
ATOM     29  C   UNL     1      -6.867   5.375 133.823  0.00  0.00    +0.000 A 
ATOM     30  O   UNL     1      -7.462   4.849 134.763  0.00  0.00    +0.000 OA
ATOM     31  C   UNL     1      -4.324   4.978 134.978  0.00  0.00    +0.000 C 
ATOM     32  C   UNL     1      -3.092   5.437 134.348  0.00  0.00    +0.000 C 
ATOM     33  C   UNL     1      -2.346   6.194 133.353  0.00  0.00    +0.000 C 
ENDBRANCH  19  20
ENDBRANCH   1  19
TORSDOF 6
ENDMDL
MODEL 8
REMARK VINA RESULT:      -8.9      2.832      7.230
REMARK  Name = CHEMBL459073
REMARK  7 active torsions:
REMARK  status: ('A' for Active; 'I' for Inactive)
REMARK    1  A    between atoms: C_1  and  O_2
REMARK    2  A    between atoms: O_2  and  C_3
REMARK    3  A    between atoms: C_6  and  N_7
REMARK    4  A    between atoms: N_7  and  C_8
REMARK    5  A    between atoms: N_7  and  S_23
REMARK    6  A    between atoms: C_8  and  C_9
REMARK    7  A    between atoms: S_23  and  C_26
REMARK                            x       y       z     vdW  Elec       q    Type
REMARK                         _______ _______ _______ _____ _____    ______ ____
ROOT
ATOM      1  N   UNL     1      -4.877   2.902 126.626  0.00  0.00    +0.000 N 
ENDROOT
BRANCH   1   5
ATOM      2  C   UNL     1      -2.927   5.247 129.573  0.00  0.00    +0.000 A 
ATOM      3  C   UNL     1      -3.829   4.252 129.915  0.00  0.00    +0.000 A 
ATOM      4  C   UNL     1      -4.210   3.284 128.980  0.00  0.00    +0.000 A 
ATOM      5  C   UNL     1      -3.990   3.510 127.618  0.00  0.00    +0.000 A 
ATOM      6  C   UNL     1      -3.002   4.439 127.292  0.00  0.00    +0.000 A 
ATOM      7  C   UNL     1      -2.445   5.278 128.272  0.00  0.00    +0.000 A 
BRANCH   2   9
ATOM      8  C   UNL     1      -3.242   7.282 130.750  0.00  0.00    +0.000 C 
ATOM      9  O   UNL     1      -2.548   6.051 130.606  0.00  0.00    +0.000 OA
ENDBRANCH   2   9
ENDBRANCH   1   5
BRANCH   1  10
ATOM     10  S   UNL     1      -6.478   3.574 126.454  0.00  0.00    +0.000 S 
ATOM     11  O   UNL     1      -7.399   2.849 127.272  0.00  0.00    +0.000 OA
ATOM     12  O   UNL     1      -6.343   5.037 126.638  0.00  0.00    +0.000 OA
BRANCH  10  13
ATOM     13  C   UNL     1      -7.034   3.371 124.760  0.00  0.00    +0.000 A 
ATOM     14  C   UNL     1      -6.145   3.633 123.702  0.00  0.00    +0.000 A 
ATOM     15  C   UNL     1      -6.587   3.530 122.378  0.00  0.00    +0.000 A 
ATOM     16  C   UNL     1      -7.869   3.055 122.105  0.00  0.00    +0.000 A 
ATOM     17  C   UNL     1      -8.715   2.696 123.156  0.00  0.00    +0.000 A 
ATOM     18  C   UNL     1      -8.297   2.846 124.484  0.00  0.00    +0.000 A 
ENDBRANCH  10  13
ENDBRANCH   1  10
BRANCH   1  19
ATOM     19  C   UNL     1      -4.660   1.469 126.223  0.00  0.00    +0.000 C 
BRANCH  19  20
ATOM     20  C   UNL     1      -5.714   0.340 126.524  0.00  0.00    +0.000 A 
ATOM     21  C   UNL     1      -6.257  -0.185 125.409  0.00  0.00    +0.000 A 
ATOM     22  C   UNL     1      -6.986  -1.430 125.390  0.00  0.00    +0.000 A 
ATOM     23  C   UNL     1      -7.273  -2.011 124.121  0.00  0.00    +0.000 A 
ATOM     24  C   UNL     1      -8.100  -3.121 123.987  0.00  0.00    +0.000 A 
ATOM     25  C   UNL     1      -8.575  -3.726 125.122  0.00  0.00    +0.000 A 
ATOM     26  C   UNL     1      -8.244  -3.193 126.374  0.00  0.00    +0.000 A 
ATOM     27  C   UNL     1      -7.416  -2.017 126.574  0.00  0.00    +0.000 A 
ATOM     28  N   UNL     1      -7.015  -1.406 127.965  0.00  0.00    +0.000 N 
ATOM     29  C   UNL     1      -6.124  -0.265 127.939  0.00  0.00    +0.000 A 
ATOM     30  O   UNL     1      -5.671   0.242 128.965  0.00  0.00    +0.000 OA
ATOM     31  C   UNL     1      -7.654  -2.175 129.344  0.00  0.00    +0.000 C 
ATOM     32  C   UNL     1      -8.461  -3.185 128.671  0.00  0.00    +0.000 C 
ATOM     33  C   UNL     1      -8.896  -3.933 127.501  0.00  0.00    +0.000 C 
ENDBRANCH  19  20
ENDBRANCH   1  19
TORSDOF 6
ENDMDL
MODEL 9
REMARK VINA RESULT:      -8.8      2.811      5.428
REMARK  Name = CHEMBL459073
REMARK  7 active torsions:
REMARK  status: ('A' for Active; 'I' for Inactive)
REMARK    1  A    between atoms: C_1  and  O_2
REMARK    2  A    between atoms: O_2  and  C_3
REMARK    3  A    between atoms: C_6  and  N_7
REMARK    4  A    between atoms: N_7  and  C_8
REMARK    5  A    between atoms: N_7  and  S_23
REMARK    6  A    between atoms: C_8  and  C_9
REMARK    7  A    between atoms: S_23  and  C_26
REMARK                            x       y       z     vdW  Elec       q    Type
REMARK                         _______ _______ _______ _____ _____    ______ ____
ROOT
ATOM      1  N   UNL     1      -6.958   2.672 125.605  0.00  0.00    +0.000 N 
ENDROOT
BRANCH   1   5
ATOM      2  C   UNL     1      -6.041  -1.392 124.812  0.00  0.00    +0.000 A 
ATOM      3  C   UNL     1      -6.834  -0.645 123.956  0.00  0.00    +0.000 A 
ATOM      4  C   UNL     1      -6.862   0.750 124.047  0.00  0.00    +0.000 A 
ATOM      5  C   UNL     1      -6.399   1.381 125.205  0.00  0.00    +0.000 A 
ATOM      6  C   UNL     1      -5.517   0.652 126.001  0.00  0.00    +0.000 A 
ATOM      7  C   UNL     1      -5.308  -0.721 125.782  0.00  0.00    +0.000 A 
BRANCH   2   9
ATOM      8  C   UNL     1      -7.251  -3.349 124.237  0.00  0.00    +0.000 C 
ATOM      9  O   UNL     1      -6.011  -2.728 124.542  0.00  0.00    +0.000 OA
ENDBRANCH   2   9
ENDBRANCH   1   5
BRANCH   1  10
ATOM     10  S   UNL     1      -6.062   4.107 125.181  0.00  0.00    +0.000 S 
ATOM     11  O   UNL     1      -5.512   3.966 123.869  0.00  0.00    +0.000 OA
ATOM     12  O   UNL     1      -6.945   5.259 125.475  0.00  0.00    +0.000 OA
BRANCH  10  13
ATOM     13  C   UNL     1      -4.670   4.296 126.298  0.00  0.00    +0.000 A 
ATOM     14  C   UNL     1      -4.650   5.370 127.206  0.00  0.00    +0.000 A 
ATOM     15  C   UNL     1      -3.543   5.556 128.042  0.00  0.00    +0.000 A 
ATOM     16  C   UNL     1      -2.517   4.612 128.061  0.00  0.00    +0.000 A 
ATOM     17  C   UNL     1      -2.588   3.491 127.233  0.00  0.00    +0.000 A 
ATOM     18  C   UNL     1      -3.668   3.326 126.356  0.00  0.00    +0.000 A 
ENDBRANCH  10  13
ENDBRANCH   1  10
BRANCH   1  19
ATOM     19  C   UNL     1      -7.890   2.738 126.785  0.00  0.00    +0.000 C 
BRANCH  19  20
ATOM     20  C   UNL     1      -7.454   3.340 128.171  0.00  0.00    +0.000 A 
ATOM     21  C   UNL     1      -6.493   2.620 128.780  0.00  0.00    +0.000 A 
ATOM     22  C   UNL     1      -5.700   3.117 129.877  0.00  0.00    +0.000 A 
ATOM     23  C   UNL     1      -4.546   2.372 130.254  0.00  0.00    +0.000 A 
ATOM     24  C   UNL     1      -3.806   2.680 131.391  0.00  0.00    +0.000 A 
ATOM     25  C   UNL     1      -4.149   3.792 132.115  0.00  0.00    +0.000 A 
ATOM     26  C   UNL     1      -5.247   4.562 131.712  0.00  0.00    +0.000 A 
ATOM     27  C   UNL     1      -6.076   4.271 130.557  0.00  0.00    +0.000 A 
ATOM     28  N   UNL     1      -7.303   5.124 130.071  0.00  0.00    +0.000 N 
ATOM     29  C   UNL     1      -7.953   4.690 128.853  0.00  0.00    +0.000 A 
ATOM     30  O   UNL     1      -8.866   5.328 128.329  0.00  0.00    +0.000 OA
ATOM     31  C   UNL     1      -7.707   6.479 131.021  0.00  0.00    +0.000 C 
ATOM     32  C   UNL     1      -6.709   6.312 132.070  0.00  0.00    +0.000 C 
ATOM     33  C   UNL     1      -5.522   5.699 132.648  0.00  0.00    +0.000 C 
ENDBRANCH  19  20
ENDBRANCH   1  19
TORSDOF 6
ENDMDL
