MODEL 1
REMARK VINA RESULT:      -8.1      0.000      0.000
REMARK  Name = CHEMBL256391
REMARK  13 active torsions:
REMARK  status: ('A' for Active; 'I' for Inactive)
REMARK    1  A    between atoms: C_1  and  C_2
REMARK    2  A    between atoms: C_4  and  C_5
REMARK    3  A    between atoms: C_5  and  C_6
REMARK    4  A    between atoms: C_5  and  N_13
REMARK    5  A    between atoms: N_8  and  C_9
REMARK    6  A    between atoms: N_8  and  C_10
REMARK    7  A    between atoms: C_10  and  C_11
REMARK    8  A    between atoms: C_11  and  O_12
REMARK    9  A    between atoms: C_16  and  C_17
REMARK   10  A    between atoms: CA_29  and  CB_30
REMARK   11  A    between atoms: CB_30  and  CG_31
REMARK   12  A    between atoms: CG_31  and  CD1_32
REMARK   13  A    between atoms: CG_31  and  CD2_33
REMARK                            x       y       z     vdW  Elec       q    Type
REMARK                         _______ _______ _______ _____ _____    ______ ____
ROOT
ATOM      1  N   LEU A   1      -7.293   1.191 126.517  0.00  0.00    +0.000 N 
ATOM      2  C   UNK A   2      -7.364   1.314 125.124  0.00  0.00    +0.000 C 
ATOM      3  O   UNK A   2      -7.822   0.458 124.418  0.00  0.00    +0.000 OA
ATOM      4  C   UNK A   2      -6.958   2.665 124.495  0.00  0.00    +0.000 C 
ATOM      5  N   UNK A   2      -7.902   3.576 125.042  0.00  0.00    +0.000 N 
ATOM      6  C   LEU A   1      -7.897   3.737 126.387  0.00  0.00    +0.000 C 
ATOM      7  O   LEU A   1      -8.328   4.791 126.828  0.00  0.00    +0.000 OA
ATOM      8  CA  LEU A   1      -7.348   2.515 127.223  0.00  0.00    +0.000 C 
ATOM      9  H   UNK A   2      -8.363   4.302 124.509  0.00  0.00    +0.000 HD
ENDROOT
BRANCH   4  10
ATOM     10  C   UNK A   2      -7.064   2.658 122.975  0.00  0.00    +0.000 C 
ATOM     11  C   UNK A   2      -8.472   3.068 122.502  0.00  0.00    +0.000 C 
ATOM     12  C   UNK A   2      -8.174   3.600 121.142  0.00  0.00    +0.000 A 
ATOM     13  C   UNK A   2      -9.074   3.847 120.125  0.00  0.00    +0.000 A 
ATOM     14  C   UNK A   2      -8.579   4.326 118.912  0.00  0.00    +0.000 A 
ATOM     15  C   UNK A   2      -7.210   4.593 118.752  0.00  0.00    +0.000 A 
ATOM     16  C   UNK A   2      -6.315   4.386 119.801  0.00  0.00    +0.000 A 
ATOM     17  C   UNK A   2      -6.809   3.868 120.981  0.00  0.00    +0.000 A 
ATOM     18  C   UNK A   2      -6.042   3.566 122.225  0.00  0.00    +0.000 C 
ENDBRANCH   4  10
BRANCH   1  19
ATOM     19  C   UNK A   0      -7.419  -0.265 127.229  0.00  0.00    +0.000 C 
BRANCH  19  23
ATOM     20  C   UNK A   0      -7.827  -0.093 132.349  0.00  0.00    +0.000 C 
ATOM     21  C   UNK A   0      -7.320  -0.347 130.950  0.00  0.00    +0.000 A 
ATOM     22  N   UNK A   0      -7.889  -0.811 129.834  0.00  0.00    +0.000 NA
ATOM     23  C   UNK A   0      -7.001  -0.430 128.774  0.00  0.00    +0.000 A 
ATOM     24  C   UNK A   0      -5.830  -0.058 129.400  0.00  0.00    +0.000 A 
ATOM     25  O   UNK A   0      -6.048   0.099 130.734  0.00  0.00    +0.000 OA
ENDBRANCH  19  23
BRANCH  19  26
ATOM     26  C   UNK A   0      -6.521  -1.225 126.349  0.00  0.00    +0.000 C 
ATOM     27  O   UNK A   0      -5.334  -0.974 126.108  0.00  0.00    +0.000 OA
ATOM     28  N   UNK A   0      -7.097  -2.322 125.715  0.00  0.00    +0.000 N 
ATOM     29  C   UNK A   0      -8.387  -2.878 126.047  0.00  0.00    +0.000 C 
BRANCH  28  30
ATOM     30  C   UNK A   0      -6.369  -2.960 124.620  0.00  0.00    +0.000 C 
BRANCH  30  31
ATOM     31  C   UNK A   0      -6.900  -2.598 123.226  0.00  0.00    +0.000 C 
BRANCH  31  32
ATOM     32  O   UNK A   0      -6.348  -1.391 122.740  0.00  0.00    +0.000 OA
ATOM     33  H   UNK A   0      -5.515  -1.620 122.297  0.00  0.00    +0.000 HD
ENDBRANCH  31  32
ENDBRANCH  30  31
ENDBRANCH  28  30
ENDBRANCH  19  26
ENDBRANCH   1  19
BRANCH   8  34
ATOM     34  CB  LEU A   1      -8.317   2.397 128.368  0.00  0.00    +0.000 C 
BRANCH  34  35
ATOM     35  CG  LEU A   1      -8.269   3.344 129.561  0.00  0.00    +0.000 C 
ATOM     36  CD1 LEU A   1      -9.243   2.878 130.661  0.00  0.00    +0.000 C 
ATOM     37  CD2 LEU A   1      -6.930   3.371 130.227  0.00  0.00    +0.000 C 
ENDBRANCH  34  35
ENDBRANCH   8  34
TORSDOF 9
ENDMDL
MODEL 2
REMARK VINA RESULT:      -7.8      1.999      4.672
REMARK  Name = CHEMBL256391
REMARK  13 active torsions:
REMARK  status: ('A' for Active; 'I' for Inactive)
REMARK    1  A    between atoms: C_1  and  C_2
REMARK    2  A    between atoms: C_4  and  C_5
REMARK    3  A    between atoms: C_5  and  C_6
REMARK    4  A    between atoms: C_5  and  N_13
REMARK    5  A    between atoms: N_8  and  C_9
REMARK    6  A    between atoms: N_8  and  C_10
REMARK    7  A    between atoms: C_10  and  C_11
REMARK    8  A    between atoms: C_11  and  O_12
REMARK    9  A    between atoms: C_16  and  C_17
REMARK   10  A    between atoms: CA_29  and  CB_30
REMARK   11  A    between atoms: CB_30  and  CG_31
REMARK   12  A    between atoms: CG_31  and  CD1_32
REMARK   13  A    between atoms: CG_31  and  CD2_33
REMARK                            x       y       z     vdW  Elec       q    Type
REMARK                         _______ _______ _______ _____ _____    ______ ____
ROOT
ATOM      1  N   LEU A   1      -7.939   0.670 127.579  0.00  0.00    +0.000 N 
ATOM      2  C   UNK A   2      -7.761   1.610 126.556  0.00  0.00    +0.000 C 
ATOM      3  O   UNK A   2      -7.092   2.597 126.688  0.00  0.00    +0.000 OA
ATOM      4  C   UNK A   2      -8.344   1.283 125.163  0.00  0.00    +0.000 C 
ATOM      5  N   UNK A   2      -7.636   0.111 124.781  0.00  0.00    +0.000 N 
ATOM      6  C   LEU A   1      -7.795  -0.988 125.556  0.00  0.00    +0.000 C 
ATOM      7  O   LEU A   1      -7.606  -2.076 125.034  0.00  0.00    +0.000 OA
ATOM      8  CA  LEU A   1      -8.190  -0.716 127.060  0.00  0.00    +0.000 C 
ATOM      9  H   UNK A   2      -7.266  -0.049 123.852  0.00  0.00    +0.000 HD
ENDROOT
BRANCH   4  10
ATOM     10  C   UNK A   2      -8.098   2.393 124.150  0.00  0.00    +0.000 C 
ATOM     11  C   UNK A   2      -6.703   2.274 123.506  0.00  0.00    +0.000 C 
ATOM     12  C   UNK A   2      -6.928   2.968 122.205  0.00  0.00    +0.000 A 
ATOM     13  C   UNK A   2      -5.968   3.428 121.327  0.00  0.00    +0.000 A 
ATOM     14  C   UNK A   2      -6.396   4.075 120.168  0.00  0.00    +0.000 A 
ATOM     15  C   UNK A   2      -7.765   4.208 119.884  0.00  0.00    +0.000 A 
ATOM     16  C   UNK A   2      -8.726   3.697 120.754  0.00  0.00    +0.000 A 
ATOM     17  C   UNK A   2      -8.292   3.100 121.921  0.00  0.00    +0.000 A 
ATOM     18  C   UNK A   2      -9.135   2.489 122.991  0.00  0.00    +0.000 C 
ENDBRANCH   4  10
BRANCH   1  19
ATOM     19  C   UNK A   0      -7.618   1.057 129.125  0.00  0.00    +0.000 C 
BRANCH  19  23
ATOM     20  C   UNK A   0      -9.607   5.796 129.177  0.00  0.00    +0.000 C 
ATOM     21  C   UNK A   0      -8.891   4.527 129.573  0.00  0.00    +0.000 A 
ATOM     22  N   UNK A   0      -9.189   3.230 129.467  0.00  0.00    +0.000 NA
ATOM     23  C   UNK A   0      -7.944   2.542 129.653  0.00  0.00    +0.000 A 
ATOM     24  C   UNK A   0      -7.084   3.487 130.172  0.00  0.00    +0.000 A 
ATOM     25  O   UNK A   0      -7.620   4.729 130.028  0.00  0.00    +0.000 OA
ENDBRANCH  19  23
BRANCH  19  26
ATOM     26  C   UNK A   0      -6.070   0.780 129.299  0.00  0.00    +0.000 C 
ATOM     27  O   UNK A   0      -5.246   1.103 128.436  0.00  0.00    +0.000 OA
ATOM     28  N   UNK A   0      -5.620   0.039 130.388  0.00  0.00    +0.000 N 
ATOM     29  C   UNK A   0      -6.394  -0.228 131.576  0.00  0.00    +0.000 C 
BRANCH  28  30
ATOM     30  C   UNK A   0      -4.276  -0.533 130.337  0.00  0.00    +0.000 C 
BRANCH  30  31
ATOM     31  C   UNK A   0      -3.990  -1.550 131.450  0.00  0.00    +0.000 C 
BRANCH  31  32
ATOM     32  O   UNK A   0      -3.076  -2.547 131.042  0.00  0.00    +0.000 OA
ATOM     33  H   UNK A   0      -2.273  -2.429 131.574  0.00  0.00    +0.000 HD
ENDBRANCH  31  32
ENDBRANCH  30  31
ENDBRANCH  28  30
ENDBRANCH  19  26
ENDBRANCH   1  19
BRANCH   8  34
ATOM     34  CB  LEU A   1      -7.327  -1.673 127.838  0.00  0.00    +0.000 C 
BRANCH  34  35
ATOM     35  CG  LEU A   1      -7.921  -2.667 128.827  0.00  0.00    +0.000 C 
ATOM     36  CD1 LEU A   1      -8.722  -3.756 128.085  0.00  0.00    +0.000 C 
ATOM     37  CD2 LEU A   1      -6.878  -3.419 129.592  0.00  0.00    +0.000 C 
ENDBRANCH  34  35
ENDBRANCH   8  34
TORSDOF 9
ENDMDL
MODEL 3
REMARK VINA RESULT:      -7.7      2.649      5.499
REMARK  Name = CHEMBL256391
REMARK  13 active torsions:
REMARK  status: ('A' for Active; 'I' for Inactive)
REMARK    1  A    between atoms: C_1  and  C_2
REMARK    2  A    between atoms: C_4  and  C_5
REMARK    3  A    between atoms: C_5  and  C_6
REMARK    4  A    between atoms: C_5  and  N_13
REMARK    5  A    between atoms: N_8  and  C_9
REMARK    6  A    between atoms: N_8  and  C_10
REMARK    7  A    between atoms: C_10  and  C_11
REMARK    8  A    between atoms: C_11  and  O_12
REMARK    9  A    between atoms: C_16  and  C_17
REMARK   10  A    between atoms: CA_29  and  CB_30
REMARK   11  A    between atoms: CB_30  and  CG_31
REMARK   12  A    between atoms: CG_31  and  CD1_32
REMARK   13  A    between atoms: CG_31  and  CD2_33
REMARK                            x       y       z     vdW  Elec       q    Type
REMARK                         _______ _______ _______ _____ _____    ______ ____
ROOT
ATOM      1  N   LEU A   1      -7.529   3.030 128.971  0.00  0.00    +0.000 N 
ATOM      2  C   UNK A   2      -7.575   3.597 127.691  0.00  0.00    +0.000 C 
ATOM      3  O   UNK A   2      -7.556   4.782 127.503  0.00  0.00    +0.000 OA
ATOM      4  C   UNK A   2      -7.508   2.646 126.476  0.00  0.00    +0.000 C 
ATOM      5  N   UNK A   2      -6.235   2.030 126.614  0.00  0.00    +0.000 N 
ATOM      6  C   LEU A   1      -6.027   1.283 127.725  0.00  0.00    +0.000 C 
ATOM      7  O   LEU A   1      -5.183   0.402 127.660  0.00  0.00    +0.000 OA
ATOM      8  CA  LEU A   1      -6.898   1.668 128.983  0.00  0.00    +0.000 C 
ATOM      9  H   UNK A   2      -5.597   1.870 125.844  0.00  0.00    +0.000 HD
ENDROOT
BRANCH   4  10
ATOM     10  C   UNK A   2      -7.585   3.388 125.147  0.00  0.00    +0.000 C 
ATOM     11  C   UNK A   2      -6.225   3.398 124.424  0.00  0.00    +0.000 C 
ATOM     12  C   UNK A   2      -6.656   3.553 123.005  0.00  0.00    +0.000 A 
ATOM     13  C   UNK A   2      -5.872   3.914 121.928  0.00  0.00    +0.000 A 
ATOM     14  C   UNK A   2      -6.484   4.024 120.679  0.00  0.00    +0.000 A 
ATOM     15  C   UNK A   2      -7.847   3.728 120.520  0.00  0.00    +0.000 A 
ATOM     16  C   UNK A   2      -8.620   3.317 121.605  0.00  0.00    +0.000 A 
ATOM     17  C   UNK A   2      -8.015   3.257 122.845  0.00  0.00    +0.000 A 
ATOM     18  C   UNK A   2      -8.642   2.849 124.136  0.00  0.00    +0.000 C 
ENDBRANCH   4  10
BRANCH   1  19
ATOM     19  C   UNK A   0      -7.882   3.921 130.285  0.00  0.00    +0.000 C 
BRANCH  19  23
ATOM     20  C   UNK A   0      -6.036   1.668 134.520  0.00  0.00    +0.000 C 
ATOM     21  C   UNK A   0      -6.960   2.311 133.513  0.00  0.00    +0.000 A 
ATOM     22  N   UNK A   0      -6.863   3.389 132.731  0.00  0.00    +0.000 NA
ATOM     23  C   UNK A   0      -7.882   3.225 131.736  0.00  0.00    +0.000 A 
ATOM     24  C   UNK A   0      -8.697   2.221 132.217  0.00  0.00    +0.000 A 
ATOM     25  O   UNK A   0      -8.084   1.582 133.250  0.00  0.00    +0.000 OA
ENDBRANCH  19  23
BRANCH  19  26
ATOM     26  C   UNK A   0      -9.322   4.511 129.999  0.00  0.00    +0.000 C 
ATOM     27  O   UNK A   0     -10.253   3.802 129.599  0.00  0.00    +0.000 OA
ATOM     28  N   UNK A   0      -9.532   5.884 130.073  0.00  0.00    +0.000 N 
ATOM     29  C   UNK A   0      -8.641   6.818 130.717  0.00  0.00    +0.000 C 
BRANCH  28  30
ATOM     30  C   UNK A   0     -10.727   6.444 129.444  0.00  0.00    +0.000 C 
BRANCH  30  31
ATOM     31  C   UNK A   0     -10.440   7.243 128.165  0.00  0.00    +0.000 C 
BRANCH  31  32
ATOM     32  O   UNK A   0      -9.841   6.448 127.161  0.00  0.00    +0.000 OA
ATOM     33  H   UNK A   0     -10.552   6.164 126.564  0.00  0.00    +0.000 HD
ENDBRANCH  31  32
ENDBRANCH  30  31
ENDBRANCH  28  30
ENDBRANCH  19  26
ENDBRANCH   1  19
BRANCH   8  34
ATOM     34  CB  LEU A   1      -5.923   1.612 130.128  0.00  0.00    +0.000 C 
BRANCH  34  35
ATOM     35  CG  LEU A   1      -5.758   0.360 130.981  0.00  0.00    +0.000 C 
ATOM     36  CD1 LEU A   1      -6.810  -0.699 130.597  0.00  0.00    +0.000 C 
ATOM     37  CD2 LEU A   1      -4.441  -0.318 130.768  0.00  0.00    +0.000 C 
ENDBRANCH  34  35
ENDBRANCH   8  34
TORSDOF 9
ENDMDL
MODEL 4
REMARK VINA RESULT:      -7.6      4.715      7.550
REMARK  Name = CHEMBL256391
REMARK  13 active torsions:
REMARK  status: ('A' for Active; 'I' for Inactive)
REMARK    1  A    between atoms: C_1  and  C_2
REMARK    2  A    between atoms: C_4  and  C_5
REMARK    3  A    between atoms: C_5  and  C_6
REMARK    4  A    between atoms: C_5  and  N_13
REMARK    5  A    between atoms: N_8  and  C_9
REMARK    6  A    between atoms: N_8  and  C_10
REMARK    7  A    between atoms: C_10  and  C_11
REMARK    8  A    between atoms: C_11  and  O_12
REMARK    9  A    between atoms: C_16  and  C_17
REMARK   10  A    between atoms: CA_29  and  CB_30
REMARK   11  A    between atoms: CB_30  and  CG_31
REMARK   12  A    between atoms: CG_31  and  CD1_32
REMARK   13  A    between atoms: CG_31  and  CD2_33
REMARK                            x       y       z     vdW  Elec       q    Type
REMARK                         _______ _______ _______ _____ _____    ______ ____
ROOT
ATOM      1  N   LEU A   1      -7.152  -1.711 131.402  0.00  0.00    +0.000 N 
ATOM      2  C   UNK A   2      -7.137  -1.337 130.052  0.00  0.00    +0.000 C 
ATOM      3  O   UNK A   2      -6.790  -0.249 129.682  0.00  0.00    +0.000 OA
ATOM      4  C   UNK A   2      -7.452  -2.421 128.997  0.00  0.00    +0.000 C 
ATOM      5  N   UNK A   2      -6.406  -3.366 129.180  0.00  0.00    +0.000 N 
ATOM      6  C   LEU A   1      -6.332  -3.982 130.384  0.00  0.00    +0.000 C 
ATOM      7  O   LEU A   1      -5.790  -5.075 130.424  0.00  0.00    +0.000 OA
ATOM      8  CA  LEU A   1      -6.946  -3.185 131.601  0.00  0.00    +0.000 C 
ATOM      9  H   UNK A   2      -5.908  -3.814 128.420  0.00  0.00    +0.000 HD
ENDROOT
BRANCH   4  10
ATOM     10  C   UNK A   2      -7.420  -1.879 127.574  0.00  0.00    +0.000 C 
ATOM     11  C   UNK A   2      -6.064  -2.151 126.894  0.00  0.00    +0.000 C 
ATOM     12  C   UNK A   2      -6.461  -2.152 125.456  0.00  0.00    +0.000 A 
ATOM     13  C   UNK A   2      -5.627  -2.058 124.360  0.00  0.00    +0.000 A 
ATOM     14  C   UNK A   2      -6.210  -2.055 123.092  0.00  0.00    +0.000 A 
ATOM     15  C   UNK A   2      -7.599  -2.193 122.941  0.00  0.00    +0.000 A 
ATOM     16  C   UNK A   2      -8.427  -2.336 124.052  0.00  0.00    +0.000 A 
ATOM     17  C   UNK A   2      -7.845  -2.290 125.304  0.00  0.00    +0.000 A 
ATOM     18  C   UNK A   2      -8.530  -2.420 126.623  0.00  0.00    +0.000 C 
ENDBRANCH   4  10
BRANCH   1  19
ATOM     19  C   UNK A   0      -7.120  -0.585 132.574  0.00  0.00    +0.000 C 
BRANCH  19  23
ATOM     20  C   UNK A   0      -9.288   3.907 133.816  0.00  0.00    +0.000 C 
ATOM     21  C   UNK A   0      -8.837   2.684 133.053  0.00  0.00    +0.000 A 
ATOM     22  N   UNK A   0      -7.675   2.032 132.962  0.00  0.00    +0.000 NA
ATOM     23  C   UNK A   0      -8.007   0.748 132.414  0.00  0.00    +0.000 A 
ATOM     24  C   UNK A   0      -9.292   0.883 131.933  0.00  0.00    +0.000 A 
ATOM     25  O   UNK A   0      -9.848   2.028 132.413  0.00  0.00    +0.000 OA
ENDBRANCH  19  23
BRANCH  19  26
ATOM     26  C   UNK A   0      -5.598  -0.176 132.702  0.00  0.00    +0.000 C 
ATOM     27  O   UNK A   0      -4.917   0.131 131.717  0.00  0.00    +0.000 OA
ATOM     28  N   UNK A   0      -4.956  -0.281 133.932  0.00  0.00    +0.000 N 
ATOM     29  C   UNK A   0      -5.629  -0.412 135.202  0.00  0.00    +0.000 C 
BRANCH  28  30
ATOM     30  C   UNK A   0      -3.495  -0.279 133.962  0.00  0.00    +0.000 C 
BRANCH  30  31
ATOM     31  C   UNK A   0      -2.866  -1.661 133.737  0.00  0.00    +0.000 C 
BRANCH  31  32
ATOM     32  O   UNK A   0      -2.599  -1.912 132.372  0.00  0.00    +0.000 OA
ATOM     33  H   UNK A   0      -2.339  -1.066 131.974  0.00  0.00    +0.000 HD
ENDBRANCH  31  32
ENDBRANCH  30  31
ENDBRANCH  28  30
ENDBRANCH  19  26
ENDBRANCH   1  19
BRANCH   8  34
ATOM     34  CB  LEU A   1      -5.938  -3.374 132.702  0.00  0.00    +0.000 C 
BRANCH  34  35
ATOM     35  CG  LEU A   1      -6.325  -3.961 134.053  0.00  0.00    +0.000 C 
ATOM     36  CD1 LEU A   1      -7.839  -3.803 134.298  0.00  0.00    +0.000 C 
ATOM     37  CD2 LEU A   1      -6.080  -5.434 134.139  0.00  0.00    +0.000 C 
ENDBRANCH  34  35
ENDBRANCH   8  34
TORSDOF 9
ENDMDL
MODEL 5
REMARK VINA RESULT:      -7.6      1.740      4.928
REMARK  Name = CHEMBL256391
REMARK  13 active torsions:
REMARK  status: ('A' for Active; 'I' for Inactive)
REMARK    1  A    between atoms: C_1  and  C_2
REMARK    2  A    between atoms: C_4  and  C_5
REMARK    3  A    between atoms: C_5  and  C_6
REMARK    4  A    between atoms: C_5  and  N_13
REMARK    5  A    between atoms: N_8  and  C_9
REMARK    6  A    between atoms: N_8  and  C_10
REMARK    7  A    between atoms: C_10  and  C_11
REMARK    8  A    between atoms: C_11  and  O_12
REMARK    9  A    between atoms: C_16  and  C_17
REMARK   10  A    between atoms: CA_29  and  CB_30
REMARK   11  A    between atoms: CB_30  and  CG_31
REMARK   12  A    between atoms: CG_31  and  CD1_32
REMARK   13  A    between atoms: CG_31  and  CD2_33
REMARK                            x       y       z     vdW  Elec       q    Type
REMARK                         _______ _______ _______ _____ _____    ______ ____
ROOT
ATOM      1  N   LEU A   1      -6.982   1.420 126.960  0.00  0.00    +0.000 N 
ATOM      2  C   UNK A   2      -7.105   2.318 125.892  0.00  0.00    +0.000 C 
ATOM      3  O   UNK A   2      -6.728   3.456 125.952  0.00  0.00    +0.000 OA
ATOM      4  C   UNK A   2      -7.624   1.773 124.544  0.00  0.00    +0.000 C 
ATOM      5  N   UNK A   2      -6.636   0.820 124.175  0.00  0.00    +0.000 N 
ATOM      6  C   LEU A   1      -6.461  -0.240 125.001  0.00  0.00    +0.000 C 
ATOM      7  O   LEU A   1      -5.998  -1.260 124.516  0.00  0.00    +0.000 OA
ATOM      8  CA  LEU A   1      -6.861  -0.007 126.510  0.00  0.00    +0.000 C 
ATOM      9  H   UNK A   2      -6.269   0.718 123.237  0.00  0.00    +0.000 HD
ENDROOT
BRANCH   4  10
ATOM     10  C   UNK A   2      -7.728   2.854 123.475  0.00  0.00    +0.000 C 
ATOM     11  C   UNK A   2      -6.432   2.960 122.648  0.00  0.00    +0.000 C 
ATOM     12  C   UNK A   2      -6.952   3.529 121.373  0.00  0.00    +0.000 A 
ATOM     13  C   UNK A   2      -6.220   4.111 120.357  0.00  0.00    +0.000 A 
ATOM     14  C   UNK A   2      -6.911   4.605 119.251  0.00  0.00    +0.000 A 
ATOM     15  C   UNK A   2      -8.305   4.468 119.156  0.00  0.00    +0.000 A 
ATOM     16  C   UNK A   2      -9.030   3.836 120.164  0.00  0.00    +0.000 A 
ATOM     17  C   UNK A   2      -8.342   3.392 121.276  0.00  0.00    +0.000 A 
ATOM     18  C   UNK A   2      -8.907   2.695 122.469  0.00  0.00    +0.000 C 
ENDBRANCH   4  10
BRANCH   1  19
ATOM     19  C   UNK A   0      -6.725   1.961 128.472  0.00  0.00    +0.000 C 
BRANCH  19  23
ATOM     20  C   UNK A   0      -7.831  -0.891 132.602  0.00  0.00    +0.000 C 
ATOM     21  C   UNK A   0      -7.127  -0.295 131.406  0.00  0.00    +0.000 A 
ATOM     22  N   UNK A   0      -7.518   0.009 130.166  0.00  0.00    +0.000 NA
ATOM     23  C   UNK A   0      -6.513   0.902 129.665  0.00  0.00    +0.000 A 
ATOM     24  C   UNK A   0      -5.456   0.785 130.543  0.00  0.00    +0.000 A 
ATOM     25  O   UNK A   0      -5.860   0.138 131.670  0.00  0.00    +0.000 OA
ENDBRANCH  19  23
BRANCH  19  26
ATOM     26  C   UNK A   0      -7.985   2.858 128.801  0.00  0.00    +0.000 C 
ATOM     27  O   UNK A   0      -9.133   2.512 128.498  0.00  0.00    +0.000 OA
ATOM     28  N   UNK A   0      -7.806   4.133 129.330  0.00  0.00    +0.000 N 
ATOM     29  C   UNK A   0      -6.584   4.607 129.932  0.00  0.00    +0.000 C 
BRANCH  28  30
ATOM     30  C   UNK A   0      -8.918   5.079 129.267  0.00  0.00    +0.000 C 
BRANCH  30  31
ATOM     31  C   UNK A   0      -8.905   6.129 130.387  0.00  0.00    +0.000 C 
BRANCH  31  32
ATOM     32  O   UNK A   0      -9.005   7.447 129.886  0.00  0.00    +0.000 OA
ATOM     33  H   UNK A   0      -8.606   7.445 129.001  0.00  0.00    +0.000 HD
ENDBRANCH  31  32
ENDBRANCH  30  31
ENDBRANCH  28  30
ENDBRANCH  19  26
ENDBRANCH   1  19
BRANCH   8  34
ATOM     34  CB  LEU A   1      -5.742  -0.650 127.284  0.00  0.00    +0.000 C 
BRANCH  34  35
ATOM     35  CG  LEU A   1      -5.741  -2.139 127.605  0.00  0.00    +0.000 C 
ATOM     36  CD1 LEU A   1      -4.836  -2.431 128.818  0.00  0.00    +0.000 C 
ATOM     37  CD2 LEU A   1      -7.090  -2.648 128.007  0.00  0.00    +0.000 C 
ENDBRANCH  34  35
ENDBRANCH   8  34
TORSDOF 9
ENDMDL
MODEL 6
REMARK VINA RESULT:      -7.5      5.954      8.718
REMARK  Name = CHEMBL256391
REMARK  13 active torsions:
REMARK  status: ('A' for Active; 'I' for Inactive)
REMARK    1  A    between atoms: C_1  and  C_2
REMARK    2  A    between atoms: C_4  and  C_5
REMARK    3  A    between atoms: C_5  and  C_6
REMARK    4  A    between atoms: C_5  and  N_13
REMARK    5  A    between atoms: N_8  and  C_9
REMARK    6  A    between atoms: N_8  and  C_10
REMARK    7  A    between atoms: C_10  and  C_11
REMARK    8  A    between atoms: C_11  and  O_12
REMARK    9  A    between atoms: C_16  and  C_17
REMARK   10  A    between atoms: CA_29  and  CB_30
REMARK   11  A    between atoms: CB_30  and  CG_31
REMARK   12  A    between atoms: CG_31  and  CD1_32
REMARK   13  A    between atoms: CG_31  and  CD2_33
REMARK                            x       y       z     vdW  Elec       q    Type
REMARK                         _______ _______ _______ _____ _____    ______ ____
ROOT
ATOM      1  N   LEU A   1      -5.768   5.674 131.834  0.00  0.00    +0.000 N 
ATOM      2  C   UNK A   2      -6.888   5.750 130.998  0.00  0.00    +0.000 C 
ATOM      3  O   UNK A   2      -6.959   5.170 129.949  0.00  0.00    +0.000 OA
ATOM      4  C   UNK A   2      -8.132   6.505 131.519  0.00  0.00    +0.000 C 
ATOM      5  N   UNK A   2      -8.515   5.750 132.662  0.00  0.00    +0.000 N 
ATOM      6  C   LEU A   1      -7.626   5.679 133.682  0.00  0.00    +0.000 C 
ATOM      7  O   LEU A   1      -8.069   5.464 134.799  0.00  0.00    +0.000 OA
ATOM      8  CA  LEU A   1      -6.110   5.862 133.284  0.00  0.00    +0.000 C 
ATOM      9  H   UNK A   2      -9.473   5.514 132.889  0.00  0.00    +0.000 HD
ENDROOT
BRANCH   4  10
ATOM     10  C   UNK A   2      -9.269   6.529 130.507  0.00  0.00    +0.000 C 
ATOM     11  C   UNK A   2     -10.644   6.430 131.196  0.00  0.00    +0.000 C 
ATOM     12  C   UNK A   2     -11.519   7.093 130.187  0.00  0.00    +0.000 A 
ATOM     13  C   UNK A   2     -12.897   7.048 130.117  0.00  0.00    +0.000 A 
ATOM     14  C   UNK A   2     -13.522   7.726 129.071  0.00  0.00    +0.000 A 
ATOM     15  C   UNK A   2     -12.771   8.471 128.148  0.00  0.00    +0.000 A 
ATOM     16  C   UNK A   2     -11.384   8.550 128.256  0.00  0.00    +0.000 A 
ATOM     17  C   UNK A   2     -10.771   7.837 129.267  0.00  0.00    +0.000 A 
ATOM     18  C   UNK A   2      -9.311   7.774 129.570  0.00  0.00    +0.000 C 
ENDBRANCH   4  10
BRANCH   1  19
ATOM     19  C   UNK A   0      -4.338   5.159 131.259  0.00  0.00    +0.000 C 
BRANCH  19  23
ATOM     20  C   UNK A   0      -0.091   7.520 132.935  0.00  0.00    +0.000 C 
ATOM     21  C   UNK A   0      -1.234   6.545 132.778  0.00  0.00    +0.000 A 
ATOM     22  N   UNK A   0      -2.547   6.690 132.585  0.00  0.00    +0.000 NA
ATOM     23  C   UNK A   0      -3.001   5.411 132.119  0.00  0.00    +0.000 A 
ATOM     24  C   UNK A   0      -1.967   4.541 132.391  0.00  0.00    +0.000 A 
ATOM     25  O   UNK A   0      -0.841   5.241 132.695  0.00  0.00    +0.000 OA
ENDBRANCH  19  23
BRANCH  19  26
ATOM     26  C   UNK A   0      -4.185   5.872 129.855  0.00  0.00    +0.000 C 
ATOM     27  O   UNK A   0      -4.462   7.066 129.693  0.00  0.00    +0.000 OA
ATOM     28  N   UNK A   0      -3.854   5.120 128.731  0.00  0.00    +0.000 N 
ATOM     29  C   UNK A   0      -3.300   3.789 128.768  0.00  0.00    +0.000 C 
BRANCH  28  30
ATOM     30  C   UNK A   0      -4.094   5.695 127.409  0.00  0.00    +0.000 C 
BRANCH  30  31
ATOM     31  C   UNK A   0      -5.075   4.888 126.548  0.00  0.00    +0.000 C 
BRANCH  31  32
ATOM     32  O   UNK A   0      -6.345   4.764 127.158  0.00  0.00    +0.000 OA
ATOM     33  H   UNK A   0      -6.924   4.321 126.518  0.00  0.00    +0.000 HD
ENDBRANCH  31  32
ENDBRANCH  30  31
ENDBRANCH  28  30
ENDBRANCH  19  26
ENDBRANCH   1  19
BRANCH   8  34
ATOM     34  CB  LEU A   1      -5.398   4.799 134.077  0.00  0.00    +0.000 C 
BRANCH  34  35
ATOM     35  CG  LEU A   1      -4.603   5.132 135.333  0.00  0.00    +0.000 C 
ATOM     36  CD1 LEU A   1      -4.605   6.652 135.588  0.00  0.00    +0.000 C 
ATOM     37  CD2 LEU A   1      -5.199   4.539 136.571  0.00  0.00    +0.000 C 
ENDBRANCH  34  35
ENDBRANCH   8  34
TORSDOF 9
ENDMDL
MODEL 7
REMARK VINA RESULT:      -7.5      2.490      5.756
REMARK  Name = CHEMBL256391
REMARK  13 active torsions:
REMARK  status: ('A' for Active; 'I' for Inactive)
REMARK    1  A    between atoms: C_1  and  C_2
REMARK    2  A    between atoms: C_4  and  C_5
REMARK    3  A    between atoms: C_5  and  C_6
REMARK    4  A    between atoms: C_5  and  N_13
REMARK    5  A    between atoms: N_8  and  C_9
REMARK    6  A    between atoms: N_8  and  C_10
REMARK    7  A    between atoms: C_10  and  C_11
REMARK    8  A    between atoms: C_11  and  O_12
REMARK    9  A    between atoms: C_16  and  C_17
REMARK   10  A    between atoms: CA_29  and  CB_30
REMARK   11  A    between atoms: CB_30  and  CG_31
REMARK   12  A    between atoms: CG_31  and  CD1_32
REMARK   13  A    between atoms: CG_31  and  CD2_33
REMARK                            x       y       z     vdW  Elec       q    Type
REMARK                         _______ _______ _______ _____ _____    ______ ____
ROOT
ATOM      1  N   LEU A   1      -8.133   3.241 128.409  0.00  0.00    +0.000 N 
ATOM      2  C   UNK A   2      -7.847   3.808 127.161  0.00  0.00    +0.000 C 
ATOM      3  O   UNK A   2      -7.386   4.909 127.037  0.00  0.00    +0.000 OA
ATOM      4  C   UNK A   2      -8.008   2.919 125.908  0.00  0.00    +0.000 C 
ATOM      5  N   UNK A   2      -7.060   1.881 126.122  0.00  0.00    +0.000 N 
ATOM      6  C   LEU A   1      -7.244   1.090 127.206  0.00  0.00    +0.000 C 
ATOM      7  O   LEU A   1      -6.770  -0.035 127.168  0.00  0.00    +0.000 OA
ATOM      8  CA  LEU A   1      -8.037   1.743 128.405  0.00  0.00    +0.000 C 
ATOM      9  H   UNK A   2      -6.450   1.514 125.402  0.00  0.00    +0.000 HD
ENDROOT
BRANCH   4  10
ATOM     10  C   UNK A   2      -7.684   3.661 124.618  0.00  0.00    +0.000 C 
ATOM     11  C   UNK A   2      -6.166   3.703 124.354  0.00  0.00    +0.000 C 
ATOM     12  C   UNK A   2      -6.138   3.850 122.870  0.00  0.00    +0.000 A 
ATOM     13  C   UNK A   2      -5.065   4.230 122.088  0.00  0.00    +0.000 A 
ATOM     14  C   UNK A   2      -5.261   4.329 120.711  0.00  0.00    +0.000 A 
ATOM     15  C   UNK A   2      -6.500   4.004 120.137  0.00  0.00    +0.000 A 
ATOM     16  C   UNK A   2      -7.563   3.575 120.930  0.00  0.00    +0.000 A 
ATOM     17  C   UNK A   2      -7.373   3.525 122.297  0.00  0.00    +0.000 A 
ATOM     18  C   UNK A   2      -8.362   3.101 123.331  0.00  0.00    +0.000 C 
ENDBRANCH   4  10
BRANCH   1  19
ATOM     19  C   UNK A   0      -8.270   4.176 129.732  0.00  0.00    +0.000 C 
BRANCH  19  23
ATOM     20  C   UNK A   0     -10.827   8.118 127.650  0.00  0.00    +0.000 C 
ATOM     21  C   UNK A   0     -10.231   7.146 128.640  0.00  0.00    +0.000 A 
ATOM     22  N   UNK A   0     -10.149   5.814 128.687  0.00  0.00    +0.000 NA
ATOM     23  C   UNK A   0      -9.128   5.535 129.655  0.00  0.00    +0.000 A 
ATOM     24  C   UNK A   0      -8.931   6.724 130.324  0.00  0.00    +0.000 A 
ATOM     25  O   UNK A   0      -9.522   7.743 129.642  0.00  0.00    +0.000 OA
ENDBRANCH  19  23
BRANCH  19  26
ATOM     26  C   UNK A   0      -6.782   4.531 130.133  0.00  0.00    +0.000 C 
ATOM     27  O   UNK A   0      -6.000   5.068 129.340  0.00  0.00    +0.000 OA
ATOM     28  N   UNK A   0      -6.282   4.121 131.366  0.00  0.00    +0.000 N 
ATOM     29  C   UNK A   0      -7.093   3.685 132.477  0.00  0.00    +0.000 C 
BRANCH  28  30
ATOM     30  C   UNK A   0      -4.835   4.108 131.564  0.00  0.00    +0.000 C 
BRANCH  30  31
ATOM     31  C   UNK A   0      -4.244   2.702 131.740  0.00  0.00    +0.000 C 
BRANCH  31  32
ATOM     32  O   UNK A   0      -4.036   2.051 130.502  0.00  0.00    +0.000 OA
ATOM     33  H   UNK A   0      -4.874   1.624 130.263  0.00  0.00    +0.000 HD
ENDBRANCH  31  32
ENDBRANCH  30  31
ENDBRANCH  28  30
ENDBRANCH  19  26
ENDBRANCH   1  19
BRANCH   8  34
ATOM     34  CB  LEU A   1      -7.264   1.317 129.624  0.00  0.00    +0.000 C 
BRANCH  34  35
ATOM     35  CG  LEU A   1      -7.777   0.231 130.561  0.00  0.00    +0.000 C 
ATOM     36  CD1 LEU A   1      -6.697  -0.146 131.594  0.00  0.00    +0.000 C 
ATOM     37  CD2 LEU A   1      -8.947   0.677 131.381  0.00  0.00    +0.000 C 
ENDBRANCH  34  35
ENDBRANCH   8  34
TORSDOF 9
ENDMDL
MODEL 8
REMARK VINA RESULT:      -7.5      2.927      8.924
REMARK  Name = CHEMBL256391
REMARK  13 active torsions:
REMARK  status: ('A' for Active; 'I' for Inactive)
REMARK    1  A    between atoms: C_1  and  C_2
REMARK    2  A    between atoms: C_4  and  C_5
REMARK    3  A    between atoms: C_5  and  C_6
REMARK    4  A    between atoms: C_5  and  N_13
REMARK    5  A    between atoms: N_8  and  C_9
REMARK    6  A    between atoms: N_8  and  C_10
REMARK    7  A    between atoms: C_10  and  C_11
REMARK    8  A    between atoms: C_11  and  O_12
REMARK    9  A    between atoms: C_16  and  C_17
REMARK   10  A    between atoms: CA_29  and  CB_30
REMARK   11  A    between atoms: CB_30  and  CG_31
REMARK   12  A    between atoms: CG_31  and  CD1_32
REMARK   13  A    between atoms: CG_31  and  CD2_33
REMARK                            x       y       z     vdW  Elec       q    Type
REMARK                         _______ _______ _______ _____ _____    ______ ____
ROOT
ATOM      1  N   LEU A   1      -7.189  -0.150 126.509  0.00  0.00    +0.000 N 
ATOM      2  C   UNK A   2      -6.886  -0.594 127.802  0.00  0.00    +0.000 C 
ATOM      3  O   UNK A   2      -7.047   0.087 128.778  0.00  0.00    +0.000 OA
ATOM      4  C   UNK A   2      -6.458  -2.067 127.981  0.00  0.00    +0.000 C 
ATOM      5  N   UNK A   2      -7.600  -2.793 127.548  0.00  0.00    +0.000 N 
ATOM      6  C   LEU A   1      -7.981  -2.635 126.258  0.00  0.00    +0.000 C 
ATOM      7  O   LEU A   1      -8.618  -3.542 125.744  0.00  0.00    +0.000 OA
ATOM      8  CA  LEU A   1      -7.566  -1.270 125.582  0.00  0.00    +0.000 C 
ATOM      9  H   UNK A   2      -7.966  -3.609 128.023  0.00  0.00    +0.000 HD
ENDROOT
BRANCH   4  10
ATOM     10  C   UNK A   2      -6.140  -2.413 129.430  0.00  0.00    +0.000 C 
ATOM     11  C   UNK A   2      -6.536  -3.864 129.766  0.00  0.00    +0.000 C 
ATOM     12  C   UNK A   2      -5.607  -4.160 130.894  0.00  0.00    +0.000 A 
ATOM     13  C   UNK A   2      -5.691  -5.204 131.794  0.00  0.00    +0.000 A 
ATOM     14  C   UNK A   2      -4.724  -5.285 132.796  0.00  0.00    +0.000 A 
ATOM     15  C   UNK A   2      -3.672  -4.357 132.854  0.00  0.00    +0.000 A 
ATOM     16  C   UNK A   2      -3.569  -3.335 131.912  0.00  0.00    +0.000 A 
ATOM     17  C   UNK A   2      -4.557  -3.236 130.953  0.00  0.00    +0.000 A 
ATOM     18  C   UNK A   2      -4.652  -2.230 129.855  0.00  0.00    +0.000 C 
ENDBRANCH   4  10
BRANCH   1  19
ATOM     19  C   UNK A   0      -7.363   1.436 126.196  0.00  0.00    +0.000 C 
BRANCH  19  23
ATOM     20  C   UNK A   0      -6.783   3.396 121.480  0.00  0.00    +0.000 C 
ATOM     21  C   UNK A   0      -7.364   2.731 122.706  0.00  0.00    +0.000 A 
ATOM     22  N   UNK A   0      -6.906   1.811 123.559  0.00  0.00    +0.000 NA
ATOM     23  C   UNK A   0      -7.756   1.911 124.710  0.00  0.00    +0.000 A 
ATOM     24  C   UNK A   0      -8.838   2.659 124.296  0.00  0.00    +0.000 A 
ATOM     25  O   UNK A   0      -8.559   3.256 123.105  0.00  0.00    +0.000 OA
ENDBRANCH  19  23
BRANCH  19  26
ATOM     26  C   UNK A   0      -5.974   2.081 126.590  0.00  0.00    +0.000 C 
ATOM     27  O   UNK A   0      -4.904   1.660 126.137  0.00  0.00    +0.000 OA
ATOM     28  N   UNK A   0      -5.924   3.068 127.570  0.00  0.00    +0.000 N 
ATOM     29  C   UNK A   0      -7.065   3.815 128.042  0.00  0.00    +0.000 C 
BRANCH  28  30
ATOM     30  C   UNK A   0      -4.637   3.372 128.192  0.00  0.00    +0.000 C 
BRANCH  30  31
ATOM     31  C   UNK A   0      -4.331   2.525 129.435  0.00  0.00    +0.000 C 
BRANCH  31  32
ATOM     32  O   UNK A   0      -4.081   1.172 129.112  0.00  0.00    +0.000 OA
ATOM     33  H   UNK A   0      -4.521   0.997 128.265  0.00  0.00    +0.000 HD
ENDBRANCH  31  32
ENDBRANCH  30  31
ENDBRANCH  28  30
ENDBRANCH  19  26
ENDBRANCH   1  19
BRANCH   8  34
ATOM     34  CB  LEU A   1      -8.796  -0.855 124.821  0.00  0.00    +0.000 C 
BRANCH  34  35
ATOM     35  CG  LEU A   1      -9.097  -1.394 123.428  0.00  0.00    +0.000 C 
ATOM     36  CD1 LEU A   1      -9.812  -0.325 122.577  0.00  0.00    +0.000 C 
ATOM     37  CD2 LEU A   1      -7.861  -1.728 122.655  0.00  0.00    +0.000 C 
ENDBRANCH  34  35
ENDBRANCH   8  34
TORSDOF 9
ENDMDL
MODEL 9
REMARK VINA RESULT:      -7.4      3.859      7.112
REMARK  Name = CHEMBL256391
REMARK  13 active torsions:
REMARK  status: ('A' for Active; 'I' for Inactive)
REMARK    1  A    between atoms: C_1  and  C_2
REMARK    2  A    between atoms: C_4  and  C_5
REMARK    3  A    between atoms: C_5  and  C_6
REMARK    4  A    between atoms: C_5  and  N_13
REMARK    5  A    between atoms: N_8  and  C_9
REMARK    6  A    between atoms: N_8  and  C_10
REMARK    7  A    between atoms: C_10  and  C_11
REMARK    8  A    between atoms: C_11  and  O_12
REMARK    9  A    between atoms: C_16  and  C_17
REMARK   10  A    between atoms: CA_29  and  CB_30
REMARK   11  A    between atoms: CB_30  and  CG_31
REMARK   12  A    between atoms: CG_31  and  CD1_32
REMARK   13  A    between atoms: CG_31  and  CD2_33
REMARK                            x       y       z     vdW  Elec       q    Type
REMARK                         _______ _______ _______ _____ _____    ______ ____
ROOT
ATOM      1  N   LEU A   1      -8.569   3.383 129.242  0.00  0.00    +0.000 N 
ATOM      2  C   UNK A   2      -8.255   2.872 127.976  0.00  0.00    +0.000 C 
ATOM      3  O   UNK A   2      -7.752   3.536 127.113  0.00  0.00    +0.000 OA
ATOM      4  C   UNK A   2      -8.443   1.357 127.740  0.00  0.00    +0.000 C 
ATOM      5  N   UNK A   2      -7.538   0.768 128.664  0.00  0.00    +0.000 N 
ATOM      6  C   LEU A   1      -7.757   1.003 129.979  0.00  0.00    +0.000 C 
ATOM      7  O   LEU A   1      -7.326   0.184 130.776  0.00  0.00    +0.000 OA
ATOM      8  CA  LEU A   1      -8.531   2.337 130.318  0.00  0.00    +0.000 C 
ATOM      9  H   UNK A   2      -6.938  -0.018 128.446  0.00  0.00    +0.000 HD
ENDROOT
BRANCH   4  10
ATOM     10  C   UNK A   2      -8.084   0.937 126.320  0.00  0.00    +0.000 C 
ATOM     11  C   UNK A   2      -6.792   0.097 126.287  0.00  0.00    +0.000 C 
ATOM     12  C   UNK A   2      -6.994  -0.689 125.037  0.00  0.00    +0.000 A 
ATOM     13  C   UNK A   2      -6.043  -1.401 124.334  0.00  0.00    +0.000 A 
ATOM     14  C   UNK A   2      -6.441  -2.053 123.167  0.00  0.00    +0.000 A 
ATOM     15  C   UNK A   2      -7.782  -2.024 122.751  0.00  0.00    +0.000 A 
ATOM     16  C   UNK A   2      -8.744  -1.343 123.494  0.00  0.00    +0.000 A 
ATOM     17  C   UNK A   2      -8.331  -0.662 124.621  0.00  0.00    +0.000 A 
ATOM     18  C   UNK A   2      -9.179   0.129 125.560  0.00  0.00    +0.000 C 
ENDBRANCH   4  10
BRANCH   1  19
ATOM     19  C   UNK A   0      -8.677   4.986 129.485  0.00  0.00    +0.000 C 
BRANCH  19  23
ATOM     20  C   UNK A   0      -4.472   5.779 132.332  0.00  0.00    +0.000 C 
ATOM     21  C   UNK A   0      -5.821   5.943 131.673  0.00  0.00    +0.000 A 
ATOM     22  N   UNK A   0      -6.265   5.761 130.426  0.00  0.00    +0.000 NA
ATOM     23  C   UNK A   0      -7.693   5.694 130.543  0.00  0.00    +0.000 A 
ATOM     24  C   UNK A   0      -7.974   6.168 131.807  0.00  0.00    +0.000 A 
ATOM     25  O   UNK A   0      -6.832   6.222 132.545  0.00  0.00    +0.000 OA
ENDBRANCH  19  23
BRANCH  19  26
ATOM     26  C   UNK A   0     -10.174   5.228 129.936  0.00  0.00    +0.000 C 
ATOM     27  O   UNK A   0     -10.822   4.368 130.544  0.00  0.00    +0.000 OA
ATOM     28  N   UNK A   0     -10.838   6.384 129.536  0.00  0.00    +0.000 N 
ATOM     29  C   UNK A   0     -10.190   7.565 129.019  0.00  0.00    +0.000 C 
BRANCH  28  30
ATOM     30  C   UNK A   0     -12.296   6.418 129.621  0.00  0.00    +0.000 C 
BRANCH  30  31
ATOM     31  C   UNK A   0     -12.830   7.133 130.870  0.00  0.00    +0.000 C 
BRANCH  31  32
ATOM     32  O   UNK A   0     -12.442   6.484 132.064  0.00  0.00    +0.000 OA
ATOM     33  H   UNK A   0     -12.117   5.604 131.815  0.00  0.00    +0.000 HD
ENDBRANCH  31  32
ENDBRANCH  30  31
ENDBRANCH  28  30
ENDBRANCH  19  26
ENDBRANCH   1  19
BRANCH   8  34
ATOM     34  CB  LEU A   1      -7.781   2.900 131.495  0.00  0.00    +0.000 C 
BRANCH  34  35
ATOM     35  CG  LEU A   1      -8.127   2.513 132.927  0.00  0.00    +0.000 C 
ATOM     36  CD1 LEU A   1      -6.987   2.911 133.885  0.00  0.00    +0.000 C 
ATOM     37  CD2 LEU A   1      -9.329   3.234 133.450  0.00  0.00    +0.000 C 
ENDBRANCH  34  35
ENDBRANCH   8  34
TORSDOF 9
ENDMDL
