MODEL 1
REMARK VINA RESULT:      -9.9      0.000      0.000
REMARK  Name = CHEMBL80877
REMARK  17 active torsions:
REMARK  status: ('A' for Active; 'I' for Inactive)
REMARK    1  A    between atoms: C_2  and  C_4
REMARK    2  A    between atoms: C_4  and  N_5
REMARK    3  A    between atoms: C_6  and  C_8
REMARK    4  A    between atoms: C_8  and  C_9
REMARK    5  A    between atoms: C_8  and  N_16
REMARK    6  A    between atoms: C_9  and  C_10
REMARK    7  A    between atoms: C_10  and  C_11
REMARK    8  A    between atoms: C_11  and  N_12
REMARK    9  A    between atoms: C_17  and  C_19
REMARK   10  A    between atoms: C_24  and  C_26
REMARK   11  A    between atoms: C_35  and  C_36
REMARK   12  A    between atoms: C_36  and  C_37
REMARK   13  A    between atoms: C_40  and  O_41
REMARK   14  A    between atoms: C_47  and  C_48
REMARK   15  A    between atoms: C_48  and  C_49
REMARK   16  A    between atoms: C_62  and  C_63
REMARK   17  A    between atoms: C_63  and  C_64
REMARK                            x       y       z     vdW  Elec       q    Type
REMARK                         _______ _______ _______ _____ _____    ______ ____
ROOT
ATOM      1  C   UNL     1      -6.566   0.968 133.765  0.00  0.00    +0.000 C 
ATOM      2  C   UNL     1      -5.479   0.545 135.297  0.00  0.00    +0.000 C 
ATOM      3  S   UNL     1      -4.187   1.855 136.425  0.00  0.00    +0.000 S 
ATOM      4  S   UNL     1      -3.873   1.635 138.671  0.00  0.00    +0.000 S 
ATOM      5  C   UNL     1      -4.252   3.372 139.269  0.00  0.00    +0.000 C 
ATOM      6  C   UNL     1      -3.804   4.312 140.444  0.00  0.00    +0.000 C 
ATOM      7  C   UNL     1      -4.216   5.831 140.406  0.00  0.00    +0.000 C 
ATOM      8  O   UNL     1      -4.161   6.531 141.424  0.00  0.00    +0.000 OA
ATOM      9  N   UNL     1      -4.603   6.479 139.277  0.00  0.00    +0.000 N 
ATOM     10  C   UNL     1      -4.670   5.937 137.952  0.00  0.00    +0.000 C 
ATOM     11  C   UNL     1      -3.158   5.605 137.493  0.00  0.00    +0.000 C 
ATOM     12  O   UNL     1      -2.245   5.270 138.253  0.00  0.00    +0.000 OA
ATOM     13  N   UNL     1      -2.827   5.520 136.192  0.00  0.00    +0.000 N 
ATOM     14  C   UNL     1      -3.387   6.420 135.260  0.00  0.00    +0.000 C 
ATOM     15  C   UNL     1      -4.505   5.604 134.764  0.00  0.00    +0.000 C 
ATOM     16  O   UNL     1      -5.121   4.676 135.289  0.00  0.00    +0.000 OA
ATOM     17  N   UNL     1      -4.889   5.942 133.554  0.00  0.00    +0.000 N 
ATOM     18  C   UNL     1      -4.022   5.915 132.419  0.00  0.00    +0.000 C 
ATOM     19  C   UNL     1      -4.706   5.357 131.195  0.00  0.00    +0.000 C 
ATOM     20  O   UNL     1      -4.162   5.327 130.112  0.00  0.00    +0.000 OA
ATOM     21  N   UNL     1      -5.865   4.659 131.326  0.00  0.00    +0.000 N 
ATOM     22  C   UNL     1      -6.825   4.378 132.417  0.00  0.00    +0.000 C 
ATOM     23  C   UNL     1      -5.992   3.264 133.189  0.00  0.00    +0.000 C 
ATOM     24  O   UNL     1      -4.721   3.213 133.118  0.00  0.00    +0.000 OA
ATOM     25  N   UNL     1      -6.469   2.414 134.079  0.00  0.00    +0.000 N 
ATOM     26  H   UNL     1      -4.887   7.444 139.406  0.00  0.00    +0.000 HD
ATOM     27  H   UNL     1      -1.900   5.160 136.015  0.00  0.00    +0.000 HD
ATOM     28  H   UNL     1      -5.500   5.175 133.521  0.00  0.00    +0.000 HD
ATOM     29  H   UNL     1      -5.634   3.864 130.758  0.00  0.00    +0.000 HD
ATOM     30  H   UNL     1      -5.612   2.393 134.623  0.00  0.00    +0.000 HD
ENDROOT
BRANCH   1  36
ATOM     31  C   UNL     1      -7.233   1.088 130.165  0.00  0.00    +0.000 C 
ATOM     32  C   UNL     1      -7.271   1.980 128.839  0.00  0.00    +0.000 C 
ATOM     33  C   UNL     1      -8.729   2.208 128.561  0.00  0.00    +0.000 C 
ATOM     34  C   UNL     1      -9.353   2.238 130.051  0.00  0.00    +0.000 C 
ATOM     35  N   UNL     1      -8.229   1.587 131.094  0.00  0.00    +0.000 N 
ATOM     36  C   UNL     1      -8.066   1.600 132.707  0.00  0.00    +0.000 C 
ATOM     37  O   UNL     1      -8.867   2.341 133.268  0.00  0.00    +0.000 OA
BRANCH  31  39
ATOM     38  N   UNL     1      -7.487  -0.662 128.475  0.00  0.00    +0.000 N 
ATOM     39  C   UNL     1      -7.616  -0.343 129.813  0.00  0.00    +0.000 C 
ATOM     40  O   UNL     1      -7.932  -1.151 130.680  0.00  0.00    +0.000 OA
ATOM     41  H   UNL     1      -7.412   0.029 127.748  0.00  0.00    +0.000 HD
BRANCH  38  42
ATOM     42  C   UNL     1      -7.353  -2.028 128.033  0.00  0.00    +0.000 C 
BRANCH  42  44
ATOM     43  N   UNL     1      -5.719  -3.232 129.491  0.00  0.00    +0.000 N 
ATOM     44  C   UNL     1      -5.886  -2.462 128.370  0.00  0.00    +0.000 C 
ATOM     45  O   UNL     1      -4.912  -2.149 127.675  0.00  0.00    +0.000 OA
ATOM     46  H   UNL     1      -6.495  -3.496 130.089  0.00  0.00    +0.000 HD
BRANCH  43  47
ATOM     47  C   UNL     1      -4.447  -3.817 129.838  0.00  0.00    +0.000 C 
BRANCH  47  49
ATOM     48  N   UNL     1      -2.603  -2.200 129.846  0.00  0.00    +0.000 N 
ATOM     49  C   UNL     1      -3.580  -2.801 130.585  0.00  0.00    +0.000 C 
ATOM     50  O   UNL     1      -3.730  -2.518 131.770  0.00  0.00    +0.000 OA
ATOM     51  H   UNL     1      -2.022  -1.510 130.308  0.00  0.00    +0.000 HD
ATOM     52  H   UNL     1      -2.447  -2.385 128.866  0.00  0.00    +0.000 HD
ENDBRANCH  47  49
ENDBRANCH  43  47
ENDBRANCH  42  44
BRANCH  42  53
ATOM     53  C   UNL     1      -7.667  -2.066 126.520  0.00  0.00    +0.000 C 
BRANCH  53  54
ATOM     54  C   UNL     1      -8.501  -3.280 126.164  0.00  0.00    +0.000 C 
BRANCH  54  55
ATOM     55  C   UNL     1      -8.646  -3.545 124.694  0.00  0.00    +0.000 C 
BRANCH  55  56
ATOM     56  N   UNL     1      -9.461  -2.462 124.148  0.00  0.00    +0.000 NA
ATOM     57  C   UNL     1      -8.950  -1.797 123.178  0.00  0.00    +0.000 C 
ATOM     58  N   UNL     1      -7.740  -2.002 122.630  0.00  0.00    +0.000 N 
ATOM     59  N   UNL     1      -9.633  -0.790 122.614  0.00  0.00    +0.000 N 
ATOM     60  H   UNL     1      -7.158  -2.745 122.988  0.00  0.00    +0.000 HD
ATOM     61  H   UNL     1      -7.367  -1.439 121.889  0.00  0.00    +0.000 HD
ATOM     62  H   UNL     1     -10.558  -0.595 122.978  0.00  0.00    +0.000 HD
ATOM     63  H   UNL     1      -9.281  -0.213 121.871  0.00  0.00    +0.000 HD
ENDBRANCH  55  56
ENDBRANCH  54  55
ENDBRANCH  53  54
ENDBRANCH  42  53
ENDBRANCH  38  42
ENDBRANCH  31  39
ENDBRANCH   1  36
BRANCH  10  64
ATOM     64  C   UNL     1      -5.664   6.664 137.062  0.00  0.00    +0.000 C 
BRANCH  64  65
ATOM     65  C   UNL     1      -6.762   7.487 137.520  0.00  0.00    +0.000 A 
ATOM     66  C   UNL     1      -6.535   8.863 137.598  0.00  0.00    +0.000 A 
ATOM     67  C   UNL     1      -7.609   9.663 137.849  0.00  0.00    +0.000 A 
ATOM     68  C   UNL     1      -8.858   9.051 137.985  0.00  0.00    +0.000 A 
ATOM     69  C   UNL     1      -9.070   7.682 137.816  0.00  0.00    +0.000 A 
ATOM     70  C   UNL     1      -8.006   6.880 137.548  0.00  0.00    +0.000 A 
BRANCH  68  71
ATOM     71  O   UNL     1      -9.952   9.788 138.310  0.00  0.00    +0.000 OA
ATOM     72  H   UNL     1     -10.599   9.172 138.684  0.00  0.00    +0.000 HD
ENDBRANCH  68  71
ENDBRANCH  64  65
ENDBRANCH  10  64
BRANCH  14  73
ATOM     73  C   UNL     1      -3.588   7.870 135.743  0.00  0.00    +0.000 C 
BRANCH  73  74
ATOM     74  C   UNL     1      -2.790   8.884 135.042  0.00  0.00    +0.000 A 
ATOM     75  C   UNL     1      -2.933  10.211 135.418  0.00  0.00    +0.000 A 
ATOM     76  C   UNL     1      -2.548  11.192 134.558  0.00  0.00    +0.000 A 
ATOM     77  C   UNL     1      -1.863  10.837 133.405  0.00  0.00    +0.000 A 
ATOM     78  C   UNL     1      -1.695   9.501 133.028  0.00  0.00    +0.000 A 
ATOM     79  C   UNL     1      -2.194   8.506 133.836  0.00  0.00    +0.000 A 
ENDBRANCH  73  74
ENDBRANCH  14  73
BRANCH  22  80
ATOM     80  C   UNL     1      -7.432   5.696 132.959  0.00  0.00    +0.000 C 
BRANCH  80  81
ATOM     81  C   UNL     1      -8.891   5.991 132.702  0.00  0.00    +0.000 C 
ATOM     82  N   UNL     1      -9.795   5.247 133.375  0.00  0.00    +0.000 N 
ATOM     83  O   UNL     1      -9.253   6.753 131.827  0.00  0.00    +0.000 OA
ATOM     84  H   UNL     1      -9.507   4.529 134.005  0.00  0.00    +0.000 HD
ATOM     85  H   UNL     1     -10.779   5.428 133.253  0.00  0.00    +0.000 HD
ENDBRANCH  80  81
ENDBRANCH  22  80
TORSDOF 17
ENDMDL
MODEL 2
REMARK VINA RESULT:      -9.9      3.425      7.100
REMARK  Name = CHEMBL80877
REMARK  17 active torsions:
REMARK  status: ('A' for Active; 'I' for Inactive)
REMARK    1  A    between atoms: C_2  and  C_4
REMARK    2  A    between atoms: C_4  and  N_5
REMARK    3  A    between atoms: C_6  and  C_8
REMARK    4  A    between atoms: C_8  and  C_9
REMARK    5  A    between atoms: C_8  and  N_16
REMARK    6  A    between atoms: C_9  and  C_10
REMARK    7  A    between atoms: C_10  and  C_11
REMARK    8  A    between atoms: C_11  and  N_12
REMARK    9  A    between atoms: C_17  and  C_19
REMARK   10  A    between atoms: C_24  and  C_26
REMARK   11  A    between atoms: C_35  and  C_36
REMARK   12  A    between atoms: C_36  and  C_37
REMARK   13  A    between atoms: C_40  and  O_41
REMARK   14  A    between atoms: C_47  and  C_48
REMARK   15  A    between atoms: C_48  and  C_49
REMARK   16  A    between atoms: C_62  and  C_63
REMARK   17  A    between atoms: C_63  and  C_64
REMARK                            x       y       z     vdW  Elec       q    Type
REMARK                         _______ _______ _______ _____ _____    ______ ____
ROOT
ATOM      1  C   UNL     1      -8.859  -0.531 132.269  0.00  0.00    +0.000 C 
ATOM      2  C   UNL     1      -9.716   1.192 132.328  0.00  0.00    +0.000 C 
ATOM      3  S   UNL     1      -8.835   3.113 132.767  0.00  0.00    +0.000 S 
ATOM      4  S   UNL     1      -9.544   5.043 131.785  0.00  0.00    +0.000 S 
ATOM      5  C   UNL     1      -7.931   5.734 131.123  0.00  0.00    +0.000 C 
ATOM      6  C   UNL     1      -7.312   7.148 130.837  0.00  0.00    +0.000 C 
ATOM      7  C   UNL     1      -5.777   7.258 130.502  0.00  0.00    +0.000 C 
ATOM      8  O   UNL     1      -5.311   8.276 129.978  0.00  0.00    +0.000 OA
ATOM      9  N   UNL     1      -4.870   6.292 130.802  0.00  0.00    +0.000 N 
ATOM     10  C   UNL     1      -5.120   5.057 131.485  0.00  0.00    +0.000 C 
ATOM     11  C   UNL     1      -5.539   5.425 133.000  0.00  0.00    +0.000 C 
ATOM     12  O   UNL     1      -6.134   6.451 133.341  0.00  0.00    +0.000 OA
ATOM     13  N   UNL     1      -5.400   4.532 133.998  0.00  0.00    +0.000 N 
ATOM     14  C   UNL     1      -4.267   3.692 134.041  0.00  0.00    +0.000 C 
ATOM     15  C   UNL     1      -4.818   2.494 133.393  0.00  0.00    +0.000 C 
ATOM     16  O   UNL     1      -5.748   2.364 132.597  0.00  0.00    +0.000 OA
ATOM     17  N   UNL     1      -4.196   1.390 133.742  0.00  0.00    +0.000 N 
ATOM     18  C   UNL     1      -4.101   0.936 135.093  0.00  0.00    +0.000 C 
ATOM     19  C   UNL     1      -4.309  -0.554 135.207  0.00  0.00    +0.000 C 
ATOM     20  O   UNL     1      -4.187  -1.141 136.260  0.00  0.00    +0.000 OA
ATOM     21  N   UNL     1      -4.868  -1.240 134.176  0.00  0.00    +0.000 N 
ATOM     22  C   UNL     1      -5.241  -0.946 132.774  0.00  0.00    +0.000 C 
ATOM     23  C   UNL     1      -6.584  -0.138 133.048  0.00  0.00    +0.000 C 
ATOM     24  O   UNL     1      -6.779   0.479 134.145  0.00  0.00    +0.000 OA
ATOM     25  N   UNL     1      -7.530   0.120 132.164  0.00  0.00    +0.000 N 
ATOM     26  H   UNL     1      -3.924   6.473 130.486  0.00  0.00    +0.000 HD
ATOM     27  H   UNL     1      -5.830   4.805 134.871  0.00  0.00    +0.000 HD
ATOM     28  H   UNL     1      -4.858   0.851 133.258  0.00  0.00    +0.000 HD
ATOM     29  H   UNL     1      -5.553  -1.764 134.690  0.00  0.00    +0.000 HD
ATOM     30  H   UNL     1      -7.769   1.016 132.576  0.00  0.00    +0.000 HD
ENDROOT
BRANCH   1  36
ATOM     31  C   UNL     1      -8.063  -1.744 128.906  0.00  0.00    +0.000 C 
ATOM     32  C   UNL     1      -8.395  -2.796 127.748  0.00  0.00    +0.000 C 
ATOM     33  C   UNL     1      -7.263  -3.782 127.777  0.00  0.00    +0.000 C 
ATOM     34  C   UNL     1      -6.874  -3.799 129.345  0.00  0.00    +0.000 C 
ATOM     35  N   UNL     1      -7.563  -2.463 130.062  0.00  0.00    +0.000 N 
ATOM     36  C   UNL     1      -7.841  -2.044 131.603  0.00  0.00    +0.000 C 
ATOM     37  O   UNL     1      -7.604  -2.947 132.401  0.00  0.00    +0.000 OA
BRANCH  31  39
ATOM     38  N   UNL     1      -7.018  -0.472 127.097  0.00  0.00    +0.000 N 
ATOM     39  C   UNL     1      -6.951  -0.817 128.433  0.00  0.00    +0.000 C 
ATOM     40  O   UNL     1      -6.123  -0.361 129.215  0.00  0.00    +0.000 OA
ATOM     41  H   UNL     1      -7.568  -0.978 126.423  0.00  0.00    +0.000 HD
BRANCH  38  42
ATOM     42  C   UNL     1      -6.368   0.710 126.588  0.00  0.00    +0.000 C 
BRANCH  42  44
ATOM     43  N   UNL     1      -6.739   3.117 127.146  0.00  0.00    +0.000 N 
ATOM     44  C   UNL     1      -7.331   1.909 126.887  0.00  0.00    +0.000 C 
ATOM     45  O   UNL     1      -8.563   1.803 126.889  0.00  0.00    +0.000 OA
ATOM     46  H   UNL     1      -5.731   3.236 127.164  0.00  0.00    +0.000 HD
BRANCH  43  47
ATOM     47  C   UNL     1      -7.504   4.330 127.298  0.00  0.00    +0.000 C 
BRANCH  47  49
ATOM     48  N   UNL     1      -6.868   5.293 125.133  0.00  0.00    +0.000 N 
ATOM     49  C   UNL     1      -7.900   4.885 125.928  0.00  0.00    +0.000 C 
ATOM     50  O   UNL     1      -9.060   4.967 125.535  0.00  0.00    +0.000 OA
ATOM     51  H   UNL     1      -7.097   5.650 124.213  0.00  0.00    +0.000 HD
ATOM     52  H   UNL     1      -5.896   5.233 125.401  0.00  0.00    +0.000 HD
ENDBRANCH  47  49
ENDBRANCH  43  47
ENDBRANCH  42  44
BRANCH  42  53
ATOM     53  C   UNL     1      -6.115   0.495 125.078  0.00  0.00    +0.000 C 
BRANCH  53  54
ATOM     54  C   UNL     1      -7.043  -0.560 124.511  0.00  0.00    +0.000 C 
BRANCH  54  55
ATOM     55  C   UNL     1      -8.295  -0.033 123.873  0.00  0.00    +0.000 C 
BRANCH  55  56
ATOM     56  N   UNL     1      -7.919   1.174 123.140  0.00  0.00    +0.000 NA
ATOM     57  C   UNL     1      -8.652   2.208 123.330  0.00  0.00    +0.000 C 
ATOM     58  N   UNL     1      -9.729   2.277 124.131  0.00  0.00    +0.000 N 
ATOM     59  N   UNL     1      -8.374   3.360 122.702  0.00  0.00    +0.000 N 
ATOM     60  H   UNL     1     -10.008   1.458 124.650  0.00  0.00    +0.000 HD
ATOM     61  H   UNL     1     -10.292   3.101 124.230  0.00  0.00    +0.000 HD
ATOM     62  H   UNL     1      -7.565   3.373 122.091  0.00  0.00    +0.000 HD
ATOM     63  H   UNL     1      -8.922   4.197 122.785  0.00  0.00    +0.000 HD
ENDBRANCH  55  56
ENDBRANCH  54  55
ENDBRANCH  53  54
ENDBRANCH  42  53
ENDBRANCH  38  42
ENDBRANCH  31  39
ENDBRANCH   1  36
BRANCH  10  64
ATOM     64  C   UNL     1      -4.109   3.975 131.145  0.00  0.00    +0.000 C 
BRANCH  64  65
ATOM     65  C   UNL     1      -3.432   3.820 129.876  0.00  0.00    +0.000 A 
ATOM     66  C   UNL     1      -3.763   2.700 129.111  0.00  0.00    +0.000 A 
ATOM     67  C   UNL     1      -3.273   2.639 127.841  0.00  0.00    +0.000 A 
ATOM     68  C   UNL     1      -2.497   3.711 127.393  0.00  0.00    +0.000 A 
ATOM     69  C   UNL     1      -2.253   4.858 128.148  0.00  0.00    +0.000 A 
ATOM     70  C   UNL     1      -2.754   4.934 129.410  0.00  0.00    +0.000 A 
BRANCH  68  71
ATOM     71  O   UNL     1      -1.919   3.673 126.164  0.00  0.00    +0.000 OA
ATOM     72  H   UNL     1      -2.521   4.136 125.561  0.00  0.00    +0.000 HD
ENDBRANCH  68  71
ENDBRANCH  64  65
ENDBRANCH  10  64
BRANCH  14  73
ATOM     73  C   UNL     1      -2.930   4.319 133.595  0.00  0.00    +0.000 C 
BRANCH  73  74
ATOM     74  C   UNL     1      -2.623   5.631 134.179  0.00  0.00    +0.000 A 
ATOM     75  C   UNL     1      -2.993   5.870 135.494  0.00  0.00    +0.000 A 
ATOM     76  C   UNL     1      -3.104   7.154 135.931  0.00  0.00    +0.000 A 
ATOM     77  C   UNL     1      -2.674   8.180 135.102  0.00  0.00    +0.000 A 
ATOM     78  C   UNL     1      -2.279   7.946 133.781  0.00  0.00    +0.000 A 
ATOM     79  C   UNL     1      -2.285   6.660 133.295  0.00  0.00    +0.000 A 
ENDBRANCH  73  74
ENDBRANCH  14  73
BRANCH  22  80
ATOM     80  C   UNL     1      -3.994  -0.522 131.958  0.00  0.00    +0.000 C 
BRANCH  80  81
ATOM     81  C   UNL     1      -3.334  -1.533 131.051  0.00  0.00    +0.000 C 
ATOM     82  N   UNL     1      -3.506  -1.371 129.721  0.00  0.00    +0.000 N 
ATOM     83  O   UNL     1      -2.795  -2.535 131.482  0.00  0.00    +0.000 OA
ATOM     84  H   UNL     1      -4.055  -0.620 129.359  0.00  0.00    +0.000 HD
ATOM     85  H   UNL     1      -3.062  -2.009 129.080  0.00  0.00    +0.000 HD
ENDBRANCH  80  81
ENDBRANCH  22  80
TORSDOF 17
ENDMDL
MODEL 3
REMARK VINA RESULT:      -9.9      3.402      7.102
REMARK  Name = CHEMBL80877
REMARK  17 active torsions:
REMARK  status: ('A' for Active; 'I' for Inactive)
REMARK    1  A    between atoms: C_2  and  C_4
REMARK    2  A    between atoms: C_4  and  N_5
REMARK    3  A    between atoms: C_6  and  C_8
REMARK    4  A    between atoms: C_8  and  C_9
REMARK    5  A    between atoms: C_8  and  N_16
REMARK    6  A    between atoms: C_9  and  C_10
REMARK    7  A    between atoms: C_10  and  C_11
REMARK    8  A    between atoms: C_11  and  N_12
REMARK    9  A    between atoms: C_17  and  C_19
REMARK   10  A    between atoms: C_24  and  C_26
REMARK   11  A    between atoms: C_35  and  C_36
REMARK   12  A    between atoms: C_36  and  C_37
REMARK   13  A    between atoms: C_40  and  O_41
REMARK   14  A    between atoms: C_47  and  C_48
REMARK   15  A    between atoms: C_48  and  C_49
REMARK   16  A    between atoms: C_62  and  C_63
REMARK   17  A    between atoms: C_63  and  C_64
REMARK                            x       y       z     vdW  Elec       q    Type
REMARK                         _______ _______ _______ _____ _____    ______ ____
ROOT
ATOM      1  C   UNL     1      -8.829  -0.472 132.231  0.00  0.00    +0.000 C 
ATOM      2  C   UNL     1      -9.681   1.252 132.341  0.00  0.00    +0.000 C 
ATOM      3  S   UNL     1      -8.783   3.164 132.787  0.00  0.00    +0.000 S 
ATOM      4  S   UNL     1      -9.515   5.110 131.856  0.00  0.00    +0.000 S 
ATOM      5  C   UNL     1      -7.919   5.810 131.162  0.00  0.00    +0.000 C 
ATOM      6  C   UNL     1      -7.305   7.227 130.882  0.00  0.00    +0.000 C 
ATOM      7  C   UNL     1      -5.779   7.339 130.507  0.00  0.00    +0.000 C 
ATOM      8  O   UNL     1      -5.326   8.365 129.987  0.00  0.00    +0.000 OA
ATOM      9  N   UNL     1      -4.867   6.367 130.766  0.00  0.00    +0.000 N 
ATOM     10  C   UNL     1      -5.101   5.122 131.435  0.00  0.00    +0.000 C 
ATOM     11  C   UNL     1      -5.477   5.465 132.968  0.00  0.00    +0.000 C 
ATOM     12  O   UNL     1      -6.060   6.487 133.341  0.00  0.00    +0.000 OA
ATOM     13  N   UNL     1      -5.313   4.556 133.946  0.00  0.00    +0.000 N 
ATOM     14  C   UNL     1      -4.180   3.713 133.945  0.00  0.00    +0.000 C 
ATOM     15  C   UNL     1      -4.752   2.527 133.292  0.00  0.00    +0.000 C 
ATOM     16  O   UNL     1      -5.704   2.411 132.520  0.00  0.00    +0.000 OA
ATOM     17  N   UNL     1      -4.123   1.416 133.606  0.00  0.00    +0.000 N 
ATOM     18  C   UNL     1      -3.993   0.940 134.946  0.00  0.00    +0.000 C 
ATOM     19  C   UNL     1      -4.201  -0.551 135.042  0.00  0.00    +0.000 C 
ATOM     20  O   UNL     1      -4.051  -1.156 136.082  0.00  0.00    +0.000 OA
ATOM     21  N   UNL     1      -4.789  -1.220 134.015  0.00  0.00    +0.000 N 
ATOM     22  C   UNL     1      -5.200  -0.902 132.630  0.00  0.00    +0.000 C 
ATOM     23  C   UNL     1      -6.533  -0.096 132.954  0.00  0.00    +0.000 C 
ATOM     24  O   UNL     1      -6.696   0.504 134.065  0.00  0.00    +0.000 OA
ATOM     25  N   UNL     1      -7.502   0.178 132.100  0.00  0.00    +0.000 N 
ATOM     26  H   UNL     1      -3.929   6.551 130.427  0.00  0.00    +0.000 HD
ATOM     27  H   UNL     1      -5.718   4.815 134.835  0.00  0.00    +0.000 HD
ATOM     28  H   UNL     1      -4.799   0.887 133.132  0.00  0.00    +0.000 HD
ATOM     29  H   UNL     1      -5.461  -1.750 134.539  0.00  0.00    +0.000 HD
ATOM     30  H   UNL     1      -7.728   1.068 132.533  0.00  0.00    +0.000 HD
ENDROOT
BRANCH   1  36
ATOM     31  C   UNL     1      -8.213  -1.689 128.831  0.00  0.00    +0.000 C 
ATOM     32  C   UNL     1      -8.598  -2.748 127.698  0.00  0.00    +0.000 C 
ATOM     33  C   UNL     1      -7.455  -3.721 127.665  0.00  0.00    +0.000 C 
ATOM     34  C   UNL     1      -6.978  -3.728 129.208  0.00  0.00    +0.000 C 
ATOM     35  N   UNL     1      -7.639  -2.398 129.960  0.00  0.00    +0.000 N 
ATOM     36  C   UNL     1      -7.834  -1.976 131.513  0.00  0.00    +0.000 C 
ATOM     37  O   UNL     1      -7.542  -2.872 132.298  0.00  0.00    +0.000 OA
BRANCH  31  39
ATOM     38  N   UNL     1      -7.247  -0.468 126.945  0.00  0.00    +0.000 N 
ATOM     39  C   UNL     1      -7.141  -0.750 128.293  0.00  0.00    +0.000 C 
ATOM     40  O   UNL     1      -6.311  -0.236 129.035  0.00  0.00    +0.000 OA
ATOM     41  H   UNL     1      -7.796  -1.019 126.307  0.00  0.00    +0.000 HD
BRANCH  38  42
ATOM     42  C   UNL     1      -6.646   0.710 126.370  0.00  0.00    +0.000 C 
BRANCH  42  44
ATOM     43  N   UNL     1      -8.873   0.687 125.238  0.00  0.00    +0.000 N 
ATOM     44  C   UNL     1      -7.776   1.439 125.566  0.00  0.00    +0.000 C 
ATOM     45  O   UNL     1      -7.712   2.630 125.239  0.00  0.00    +0.000 OA
ATOM     46  H   UNL     1      -8.951  -0.295 125.480  0.00  0.00    +0.000 HD
BRANCH  43  47
ATOM     47  C   UNL     1     -10.044   1.265 124.626  0.00  0.00    +0.000 C 
BRANCH  47  49
ATOM     48  N   UNL     1      -9.287   2.063 122.433  0.00  0.00    +0.000 N 
ATOM     49  C   UNL     1      -9.986   1.102 123.106  0.00  0.00    +0.000 C 
ATOM     50  O   UNL     1     -10.516   0.177 122.499  0.00  0.00    +0.000 OA
ATOM     51  H   UNL     1      -9.216   1.973 121.426  0.00  0.00    +0.000 HD
ATOM     52  H   UNL     1      -8.819   2.835 122.885  0.00  0.00    +0.000 HD
ENDBRANCH  47  49
ENDBRANCH  43  47
ENDBRANCH  42  44
BRANCH  42  53
ATOM     53  C   UNL     1      -5.467   0.250 125.482  0.00  0.00    +0.000 C 
BRANCH  53  54
ATOM     54  C   UNL     1      -5.456  -1.256 125.321  0.00  0.00    +0.000 C 
BRANCH  54  55
ATOM     55  C   UNL     1      -5.797  -1.754 123.946  0.00  0.00    +0.000 C 
BRANCH  55  56
ATOM     56  N   UNL     1      -7.233  -1.549 123.768  0.00  0.00    +0.000 NA
ATOM     57  C   UNL     1      -7.979  -2.580 123.920  0.00  0.00    +0.000 C 
ATOM     58  N   UNL     1      -7.560  -3.821 124.218  0.00  0.00    +0.000 N 
ATOM     59  N   UNL     1      -9.309  -2.480 123.781  0.00  0.00    +0.000 N 
ATOM     60  H   UNL     1      -6.573  -3.989 124.348  0.00  0.00    +0.000 HD
ATOM     61  H   UNL     1      -8.177  -4.608 124.302  0.00  0.00    +0.000 HD
ATOM     62  H   UNL     1      -9.686  -1.564 123.566  0.00  0.00    +0.000 HD
ATOM     63  H   UNL     1      -9.947  -3.252 123.860  0.00  0.00    +0.000 HD
ENDBRANCH  55  56
ENDBRANCH  54  55
ENDBRANCH  53  54
ENDBRANCH  42  53
ENDBRANCH  38  42
ENDBRANCH  31  39
ENDBRANCH   1  36
BRANCH  10  64
ATOM     64  C   UNL     1      -4.102   4.043 131.050  0.00  0.00    +0.000 C 
BRANCH  64  65
ATOM     65  C   UNL     1      -3.730   3.680 129.701  0.00  0.00    +0.000 A 
ATOM     66  C   UNL     1      -2.849   4.534 129.032  0.00  0.00    +0.000 A 
ATOM     67  C   UNL     1      -2.350   4.111 127.837  0.00  0.00    +0.000 A 
ATOM     68  C   UNL     1      -2.736   2.847 127.382  0.00  0.00    +0.000 A 
ATOM     69  C   UNL     1      -3.549   1.978 128.112  0.00  0.00    +0.000 A 
ATOM     70  C   UNL     1      -4.037   2.387 129.313  0.00  0.00    +0.000 A 
BRANCH  68  71
ATOM     71  O   UNL     1      -2.331   2.402 126.164  0.00  0.00    +0.000 OA
ATOM     72  H   UNL     1      -1.380   2.234 126.234  0.00  0.00    +0.000 HD
ENDBRANCH  68  71
ENDBRANCH  64  65
ENDBRANCH  10  64
BRANCH  14  73
ATOM     73  C   UNL     1      -2.856   4.345 133.472  0.00  0.00    +0.000 C 
BRANCH  73  74
ATOM     74  C   UNL     1      -2.532   5.649 134.066  0.00  0.00    +0.000 A 
ATOM     75  C   UNL     1      -2.890   5.879 135.385  0.00  0.00    +0.000 A 
ATOM     76  C   UNL     1      -2.985   7.160 135.834  0.00  0.00    +0.000 A 
ATOM     77  C   UNL     1      -2.550   8.190 135.011  0.00  0.00    +0.000 A 
ATOM     78  C   UNL     1      -2.166   7.963 133.687  0.00  0.00    +0.000 A 
ATOM     79  C   UNL     1      -2.188   6.681 133.189  0.00  0.00    +0.000 A 
ENDBRANCH  73  74
ENDBRANCH  14  73
BRANCH  22  80
ATOM     80  C   UNL     1      -3.975  -0.467 131.786  0.00  0.00    +0.000 C 
BRANCH  80  81
ATOM     81  C   UNL     1      -3.360  -1.456 130.825  0.00  0.00    +0.000 C 
ATOM     82  N   UNL     1      -3.693  -1.334 129.521  0.00  0.00    +0.000 N 
ATOM     83  O   UNL     1      -2.712  -2.412 131.205  0.00  0.00    +0.000 OA
ATOM     84  H   UNL     1      -4.327  -0.627 129.214  0.00  0.00    +0.000 HD
ATOM     85  H   UNL     1      -3.285  -1.957 128.842  0.00  0.00    +0.000 HD
ENDBRANCH  80  81
ENDBRANCH  22  80
TORSDOF 17
ENDMDL
MODEL 4
REMARK VINA RESULT:      -9.8      1.093      3.420
REMARK  Name = CHEMBL80877
REMARK  17 active torsions:
REMARK  status: ('A' for Active; 'I' for Inactive)
REMARK    1  A    between atoms: C_2  and  C_4
REMARK    2  A    between atoms: C_4  and  N_5
REMARK    3  A    between atoms: C_6  and  C_8
REMARK    4  A    between atoms: C_8  and  C_9
REMARK    5  A    between atoms: C_8  and  N_16
REMARK    6  A    between atoms: C_9  and  C_10
REMARK    7  A    between atoms: C_10  and  C_11
REMARK    8  A    between atoms: C_11  and  N_12
REMARK    9  A    between atoms: C_17  and  C_19
REMARK   10  A    between atoms: C_24  and  C_26
REMARK   11  A    between atoms: C_35  and  C_36
REMARK   12  A    between atoms: C_36  and  C_37
REMARK   13  A    between atoms: C_40  and  O_41
REMARK   14  A    between atoms: C_47  and  C_48
REMARK   15  A    between atoms: C_48  and  C_49
REMARK   16  A    between atoms: C_62  and  C_63
REMARK   17  A    between atoms: C_63  and  C_64
REMARK                            x       y       z     vdW  Elec       q    Type
REMARK                         _______ _______ _______ _____ _____    ______ ____
ROOT
ATOM      1  C   UNL     1      -6.447   0.979 133.841  0.00  0.00    +0.000 C 
ATOM      2  C   UNL     1      -5.361   0.585 135.382  0.00  0.00    +0.000 C 
ATOM      3  S   UNL     1      -4.093   1.923 136.504  0.00  0.00    +0.000 S 
ATOM      4  S   UNL     1      -3.786   1.728 138.753  0.00  0.00    +0.000 S 
ATOM      5  C   UNL     1      -4.192   3.465 139.333  0.00  0.00    +0.000 C 
ATOM      6  C   UNL     1      -3.763   4.422 140.501  0.00  0.00    +0.000 C 
ATOM      7  C   UNL     1      -4.196   5.935 140.447  0.00  0.00    +0.000 C 
ATOM      8  O   UNL     1      -4.155   6.645 141.459  0.00  0.00    +0.000 OA
ATOM      9  N   UNL     1      -4.586   6.568 139.310  0.00  0.00    +0.000 N 
ATOM     10  C   UNL     1      -4.639   6.012 137.990  0.00  0.00    +0.000 C 
ATOM     11  C   UNL     1      -3.120   5.697 137.542  0.00  0.00    +0.000 C 
ATOM     12  O   UNL     1      -2.207   5.381 138.309  0.00  0.00    +0.000 OA
ATOM     13  N   UNL     1      -2.782   5.604 136.242  0.00  0.00    +0.000 N 
ATOM     14  C   UNL     1      -3.350   6.487 135.299  0.00  0.00    +0.000 C 
ATOM     15  C   UNL     1      -4.454   5.652 134.807  0.00  0.00    +0.000 C 
ATOM     16  O   UNL     1      -5.060   4.720 135.337  0.00  0.00    +0.000 OA
ATOM     17  N   UNL     1      -4.837   5.973 133.591  0.00  0.00    +0.000 N 
ATOM     18  C   UNL     1      -3.964   5.947 132.461  0.00  0.00    +0.000 C 
ATOM     19  C   UNL     1      -4.634   5.369 131.239  0.00  0.00    +0.000 C 
ATOM     20  O   UNL     1      -4.085   5.337 130.159  0.00  0.00    +0.000 OA
ATOM     21  N   UNL     1      -5.784   4.656 131.371  0.00  0.00    +0.000 N 
ATOM     22  C   UNL     1      -6.746   4.372 132.460  0.00  0.00    +0.000 C 
ATOM     23  C   UNL     1      -5.901   3.277 133.246  0.00  0.00    +0.000 C 
ATOM     24  O   UNL     1      -4.630   3.243 133.182  0.00  0.00    +0.000 OA
ATOM     25  N   UNL     1      -6.371   2.429 134.142  0.00  0.00    +0.000 N 
ATOM     26  H   UNL     1      -4.884   7.529 139.429  0.00  0.00    +0.000 HD
ATOM     27  H   UNL     1      -1.849   5.255 136.073  0.00  0.00    +0.000 HD
ATOM     28  H   UNL     1      -5.437   5.197 133.563  0.00  0.00    +0.000 HD
ATOM     29  H   UNL     1      -5.540   3.860 130.811  0.00  0.00    +0.000 HD
ATOM     30  H   UNL     1      -5.517   2.424 134.690  0.00  0.00    +0.000 HD
ENDROOT
BRANCH   1  36
ATOM     31  C   UNL     1      -7.136   0.972 130.243  0.00  0.00    +0.000 C 
ATOM     32  C   UNL     1      -7.178   1.816 128.886  0.00  0.00    +0.000 C 
ATOM     33  C   UNL     1      -8.636   2.042 128.609  0.00  0.00    +0.000 C 
ATOM     34  C   UNL     1      -9.250   2.128 130.101  0.00  0.00    +0.000 C 
ATOM     35  N   UNL     1      -8.124   1.509 131.159  0.00  0.00    +0.000 N 
ATOM     36  C   UNL     1      -7.950   1.581 132.770  0.00  0.00    +0.000 C 
ATOM     37  O   UNL     1      -8.744   2.345 133.309  0.00  0.00    +0.000 OA
BRANCH  31  39
ATOM     38  N   UNL     1      -6.898  -1.024 128.849  0.00  0.00    +0.000 N 
ATOM     39  C   UNL     1      -7.529  -0.469 129.946  0.00  0.00    +0.000 C 
ATOM     40  O   UNL     1      -8.285  -1.091 130.685  0.00  0.00    +0.000 OA
ATOM     41  H   UNL     1      -6.433  -0.476 128.144  0.00  0.00    +0.000 HD
BRANCH  38  42
ATOM     42  C   UNL     1      -6.780  -2.451 128.687  0.00  0.00    +0.000 C 
BRANCH  42  44
ATOM     43  N   UNL     1      -8.324  -2.431 126.724  0.00  0.00    +0.000 N 
ATOM     44  C   UNL     1      -8.093  -2.928 127.978  0.00  0.00    +0.000 C 
ATOM     45  O   UNL     1      -8.893  -3.717 128.497  0.00  0.00    +0.000 OA
ATOM     46  H   UNL     1      -7.695  -1.773 126.275  0.00  0.00    +0.000 HD
BRANCH  43  47
ATOM     47  C   UNL     1      -9.418  -2.893 125.904  0.00  0.00    +0.000 C 
BRANCH  47  49
ATOM     48  N   UNL     1      -9.781  -3.449 123.543  0.00  0.00    +0.000 N 
ATOM     49  C   UNL     1      -8.892  -3.449 124.579  0.00  0.00    +0.000 C 
ATOM     50  O   UNL     1      -7.751  -3.870 124.421  0.00  0.00    +0.000 OA
ATOM     51  H   UNL     1      -9.458  -3.796 122.647  0.00  0.00    +0.000 HD
ATOM     52  H   UNL     1     -10.726  -3.100 123.615  0.00  0.00    +0.000 HD
ENDBRANCH  47  49
ENDBRANCH  43  47
ENDBRANCH  42  44
BRANCH  42  53
ATOM     53  C   UNL     1      -6.587  -3.070 130.090  0.00  0.00    +0.000 C 
BRANCH  53  54
ATOM     54  C   UNL     1      -5.440  -4.060 130.100  0.00  0.00    +0.000 C 
BRANCH  54  55
ATOM     55  C   UNL     1      -4.108  -3.498 129.697  0.00  0.00    +0.000 C 
BRANCH  55  56
ATOM     56  N   UNL     1      -3.368  -3.241 130.931  0.00  0.00    +0.000 NA
ATOM     57  C   UNL     1      -3.265  -2.013 131.288  0.00  0.00    +0.000 C 
ATOM     58  N   UNL     1      -3.765  -0.954 130.631  0.00  0.00    +0.000 N 
ATOM     59  N   UNL     1      -2.609  -1.688 132.412  0.00  0.00    +0.000 N 
ATOM     60  H   UNL     1      -4.281  -1.105 129.777  0.00  0.00    +0.000 HD
ATOM     61  H   UNL     1      -3.637  -0.006 130.932  0.00  0.00    +0.000 HD
ATOM     62  H   UNL     1      -2.218  -2.448 132.958  0.00  0.00    +0.000 HD
ATOM     63  H   UNL     1      -2.468  -0.748 132.734  0.00  0.00    +0.000 HD
ENDBRANCH  55  56
ENDBRANCH  54  55
ENDBRANCH  53  54
ENDBRANCH  42  53
ENDBRANCH  38  42
ENDBRANCH  31  39
ENDBRANCH   1  36
BRANCH  10  64
ATOM     64  C   UNL     1      -5.639   6.717 137.089  0.00  0.00    +0.000 C 
BRANCH  64  65
ATOM     65  C   UNL     1      -6.756   7.521 137.534  0.00  0.00    +0.000 A 
ATOM     66  C   UNL     1      -6.553   8.900 137.617  0.00  0.00    +0.000 A 
ATOM     67  C   UNL     1      -7.643   9.682 137.856  0.00  0.00    +0.000 A 
ATOM     68  C   UNL     1      -8.883   9.049 137.974  0.00  0.00    +0.000 A 
ATOM     69  C   UNL     1      -9.071   7.677 137.801  0.00  0.00    +0.000 A 
ATOM     70  C   UNL     1      -7.990   6.893 137.545  0.00  0.00    +0.000 A 
BRANCH  68  71
ATOM     71  O   UNL     1      -9.993   9.767 138.287  0.00  0.00    +0.000 OA
ATOM     72  H   UNL     1     -10.151   9.634 139.233  0.00  0.00    +0.000 HD
ENDBRANCH  68  71
ENDBRANCH  64  65
ENDBRANCH  10  64
BRANCH  14  73
ATOM     73  C   UNL     1      -3.573   7.939 135.768  0.00  0.00    +0.000 C 
BRANCH  73  74
ATOM     74  C   UNL     1      -2.789   8.958 135.059  0.00  0.00    +0.000 A 
ATOM     75  C   UNL     1      -2.940  10.285 135.433  0.00  0.00    +0.000 A 
ATOM     76  C   UNL     1      -2.569  11.267 134.567  0.00  0.00    +0.000 A 
ATOM     77  C   UNL     1      -1.889  10.914 133.410  0.00  0.00    +0.000 A 
ATOM     78  C   UNL     1      -1.713   9.578 133.036  0.00  0.00    +0.000 A 
ATOM     79  C   UNL     1      -2.198   8.582 133.849  0.00  0.00    +0.000 A 
ENDBRANCH  73  74
ENDBRANCH  14  73
BRANCH  22  80
ATOM     80  C   UNL     1      -7.373   5.687 132.986  0.00  0.00    +0.000 C 
BRANCH  80  81
ATOM     81  C   UNL     1      -8.834   5.960 132.719  0.00  0.00    +0.000 C 
ATOM     82  N   UNL     1      -9.732   5.173 133.352  0.00  0.00    +0.000 N 
ATOM     83  O   UNL     1      -9.201   6.745 131.866  0.00  0.00    +0.000 OA
ATOM     84  H   UNL     1      -9.437   4.439 133.961  0.00  0.00    +0.000 HD
ATOM     85  H   UNL     1     -10.718   5.338 133.222  0.00  0.00    +0.000 HD
ENDBRANCH  80  81
ENDBRANCH  22  80
TORSDOF 17
ENDMDL
MODEL 5
REMARK VINA RESULT:      -9.7      1.183      1.868
REMARK  Name = CHEMBL80877
REMARK  17 active torsions:
REMARK  status: ('A' for Active; 'I' for Inactive)
REMARK    1  A    between atoms: C_2  and  C_4
REMARK    2  A    between atoms: C_4  and  N_5
REMARK    3  A    between atoms: C_6  and  C_8
REMARK    4  A    between atoms: C_8  and  C_9
REMARK    5  A    between atoms: C_8  and  N_16
REMARK    6  A    between atoms: C_9  and  C_10
REMARK    7  A    between atoms: C_10  and  C_11
REMARK    8  A    between atoms: C_11  and  N_12
REMARK    9  A    between atoms: C_17  and  C_19
REMARK   10  A    between atoms: C_24  and  C_26
REMARK   11  A    between atoms: C_35  and  C_36
REMARK   12  A    between atoms: C_36  and  C_37
REMARK   13  A    between atoms: C_40  and  O_41
REMARK   14  A    between atoms: C_47  and  C_48
REMARK   15  A    between atoms: C_48  and  C_49
REMARK   16  A    between atoms: C_62  and  C_63
REMARK   17  A    between atoms: C_63  and  C_64
REMARK                            x       y       z     vdW  Elec       q    Type
REMARK                         _______ _______ _______ _____ _____    ______ ____
ROOT
ATOM      1  C   UNL     1      -6.399   1.068 133.943  0.00  0.00    +0.000 C 
ATOM      2  C   UNL     1      -5.278   0.716 135.468  0.00  0.00    +0.000 C 
ATOM      3  S   UNL     1      -4.004   2.091 136.539  0.00  0.00    +0.000 S 
ATOM      4  S   UNL     1      -3.649   1.941 138.785  0.00  0.00    +0.000 S 
ATOM      5  C   UNL     1      -4.065   3.684 139.341  0.00  0.00    +0.000 C 
ATOM      6  C   UNL     1      -3.625   4.668 140.482  0.00  0.00    +0.000 C 
ATOM      7  C   UNL     1      -4.078   6.174 140.409  0.00  0.00    +0.000 C 
ATOM      8  O   UNL     1      -4.026   6.903 141.407  0.00  0.00    +0.000 OA
ATOM      9  N   UNL     1      -4.499   6.780 139.269  0.00  0.00    +0.000 N 
ATOM     10  C   UNL     1      -4.572   6.200 137.961  0.00  0.00    +0.000 C 
ATOM     11  C   UNL     1      -3.059   5.895 137.487  0.00  0.00    +0.000 C 
ATOM     12  O   UNL     1      -2.126   5.605 138.241  0.00  0.00    +0.000 OA
ATOM     13  N   UNL     1      -2.746   5.782 136.183  0.00  0.00    +0.000 N 
ATOM     14  C   UNL     1      -3.344   6.640 135.235  0.00  0.00    +0.000 C 
ATOM     15  C   UNL     1      -4.447   5.782 134.781  0.00  0.00    +0.000 C 
ATOM     16  O   UNL     1      -5.030   4.854 135.341  0.00  0.00    +0.000 OA
ATOM     17  N   UNL     1      -4.859   6.076 133.568  0.00  0.00    +0.000 N 
ATOM     18  C   UNL     1      -4.009   6.040 132.421  0.00  0.00    +0.000 C 
ATOM     19  C   UNL     1      -4.696   5.430 131.223  0.00  0.00    +0.000 C 
ATOM     20  O   UNL     1      -4.168   5.385 130.133  0.00  0.00    +0.000 OA
ATOM     21  N   UNL     1      -5.834   4.706 131.392  0.00  0.00    +0.000 N 
ATOM     22  C   UNL     1      -6.769   4.430 132.505  0.00  0.00    +0.000 C 
ATOM     23  C   UNL     1      -5.895   3.361 133.295  0.00  0.00    +0.000 C 
ATOM     24  O   UNL     1      -4.625   3.342 133.205  0.00  0.00    +0.000 OA
ATOM     25  N   UNL     1      -6.336   2.524 134.215  0.00  0.00    +0.000 N 
ATOM     26  H   UNL     1      -4.807   7.740 139.376  0.00  0.00    +0.000 HD
ATOM     27  H   UNL     1      -1.812   5.442 136.001  0.00  0.00    +0.000 HD
ATOM     28  H   UNL     1      -5.449   5.292 133.566  0.00  0.00    +0.000 HD
ATOM     29  H   UNL     1      -5.590   3.902 130.842  0.00  0.00    +0.000 HD
ATOM     30  H   UNL     1      -5.471   2.540 134.745  0.00  0.00    +0.000 HD
ENDROOT
BRANCH   1  36
ATOM     31  C   UNL     1      -7.113   1.095 130.350  0.00  0.00    +0.000 C 
ATOM     32  C   UNL     1      -7.196   1.959 129.008  0.00  0.00    +0.000 C 
ATOM     33  C   UNL     1      -8.664   2.135 128.744  0.00  0.00    +0.000 C 
ATOM     34  C   UNL     1      -9.270   2.174 130.241  0.00  0.00    +0.000 C 
ATOM     35  N   UNL     1      -8.114   1.580 131.281  0.00  0.00    +0.000 N 
ATOM     36  C   UNL     1      -7.931   1.631 132.892  0.00  0.00    +0.000 C 
ATOM     37  O   UNL     1      -8.749   2.356 133.449  0.00  0.00    +0.000 OA
BRANCH  31  39
ATOM     38  N   UNL     1      -7.153  -0.747 128.741  0.00  0.00    +0.000 N 
ATOM     39  C   UNL     1      -7.454  -0.355 130.031  0.00  0.00    +0.000 C 
ATOM     40  O   UNL     1      -7.885  -1.114 130.892  0.00  0.00    +0.000 OA
ATOM     41  H   UNL     1      -6.981  -0.097 127.992  0.00  0.00    +0.000 HD
BRANCH  38  42
ATOM     42  C   UNL     1      -6.970  -2.135 128.397  0.00  0.00    +0.000 C 
BRANCH  42  44
ATOM     43  N   UNL     1      -6.261  -1.383 126.122  0.00  0.00    +0.000 N 
ATOM     44  C   UNL     1      -5.956  -2.166 127.203  0.00  0.00    +0.000 C 
ATOM     45  O   UNL     1      -4.922  -2.845 127.212  0.00  0.00    +0.000 OA
ATOM     46  H   UNL     1      -7.107  -0.823 126.077  0.00  0.00    +0.000 HD
BRANCH  43  47
ATOM     47  C   UNL     1      -5.350  -1.208 125.018  0.00  0.00    +0.000 C 
BRANCH  47  49
ATOM     48  N   UNL     1      -5.428  -3.518 124.198  0.00  0.00    +0.000 N 
ATOM     49  C   UNL     1      -5.666  -2.207 123.903  0.00  0.00    +0.000 C 
ATOM     50  O   UNL     1      -6.111  -1.885 122.805  0.00  0.00    +0.000 OA
ATOM     51  H   UNL     1      -5.643  -4.206 123.485  0.00  0.00    +0.000 HD
ATOM     52  H   UNL     1      -5.078  -3.838 125.089  0.00  0.00    +0.000 HD
ENDBRANCH  47  49
ENDBRANCH  43  47
ENDBRANCH  42  44
BRANCH  42  53
ATOM     53  C   UNL     1      -8.355  -2.717 128.034  0.00  0.00    +0.000 C 
BRANCH  53  54
ATOM     54  C   UNL     1      -8.336  -3.364 126.664  0.00  0.00    +0.000 C 
BRANCH  54  55
ATOM     55  C   UNL     1      -9.528  -3.068 125.802  0.00  0.00    +0.000 C 
BRANCH  55  56
ATOM     56  N   UNL     1      -9.310  -1.745 125.221  0.00  0.00    +0.000 NA
ATOM     57  C   UNL     1      -9.148  -1.701 123.950  0.00  0.00    +0.000 C 
ATOM     58  N   UNL     1      -9.153  -2.754 123.115  0.00  0.00    +0.000 N 
ATOM     59  N   UNL     1      -8.949  -0.526 123.333  0.00  0.00    +0.000 N 
ATOM     60  H   UNL     1      -9.304  -3.678 123.491  0.00  0.00    +0.000 HD
ATOM     61  H   UNL     1      -8.995  -2.677 122.128  0.00  0.00    +0.000 HD
ATOM     62  H   UNL     1      -8.945   0.306 123.910  0.00  0.00    +0.000 HD
ATOM     63  H   UNL     1      -8.788  -0.424 122.347  0.00  0.00    +0.000 HD
ENDBRANCH  55  56
ENDBRANCH  54  55
ENDBRANCH  53  54
ENDBRANCH  42  53
ENDBRANCH  38  42
ENDBRANCH  31  39
ENDBRANCH   1  36
BRANCH  10  64
ATOM     64  C   UNL     1      -5.599   6.875 137.067  0.00  0.00    +0.000 C 
BRANCH  64  65
ATOM     65  C   UNL     1      -6.748   7.628 137.521  0.00  0.00    +0.000 A 
ATOM     66  C   UNL     1      -6.607   9.015 137.603  0.00  0.00    +0.000 A 
ATOM     67  C   UNL     1      -7.730   9.746 137.851  0.00  0.00    +0.000 A 
ATOM     68  C   UNL     1      -8.939   9.057 137.978  0.00  0.00    +0.000 A 
ATOM     69  C   UNL     1      -9.065   7.679 137.805  0.00  0.00    +0.000 A 
ATOM     70  C   UNL     1      -7.952   6.944 137.541  0.00  0.00    +0.000 A 
BRANCH  68  71
ATOM     71  O   UNL     1     -10.078   9.724 138.299  0.00  0.00    +0.000 OA
ATOM     72  H   UNL     1      -9.818  10.636 138.496  0.00  0.00    +0.000 HD
ENDBRANCH  68  71
ENDBRANCH  64  65
ENDBRANCH  10  64
BRANCH  14  73
ATOM     73  C   UNL     1      -3.576   8.098 135.682  0.00  0.00    +0.000 C 
BRANCH  73  74
ATOM     74  C   UNL     1      -2.773   9.108 134.980  0.00  0.00    +0.000 A 
ATOM     75  C   UNL     1      -2.844  10.423 135.413  0.00  0.00    +0.000 A 
ATOM     76  C   UNL     1      -2.462  11.422 134.571  0.00  0.00    +0.000 A 
ATOM     77  C   UNL     1      -1.849  11.086 133.372  0.00  0.00    +0.000 A 
ATOM     78  C   UNL     1      -1.754   9.761 132.938  0.00  0.00    +0.000 A 
ATOM     79  C   UNL     1      -2.253   8.755 133.731  0.00  0.00    +0.000 A 
ENDBRANCH  73  74
ENDBRANCH  14  73
BRANCH  22  80
ATOM     80  C   UNL     1      -7.403   5.747 133.021  0.00  0.00    +0.000 C 
BRANCH  80  81
ATOM     81  C   UNL     1      -8.866   6.009 132.754  0.00  0.00    +0.000 C 
ATOM     82  N   UNL     1      -9.759   5.248 133.423  0.00  0.00    +0.000 N 
ATOM     83  O   UNL     1      -9.240   6.762 131.875  0.00  0.00    +0.000 OA
ATOM     84  H   UNL     1      -9.459   4.537 134.057  0.00  0.00    +0.000 HD
ATOM     85  H   UNL     1     -10.745   5.407 133.294  0.00  0.00    +0.000 HD
ENDBRANCH  80  81
ENDBRANCH  22  80
TORSDOF 17
ENDMDL
MODEL 6
REMARK VINA RESULT:      -9.2      3.979     11.997
REMARK  Name = CHEMBL80877
REMARK  17 active torsions:
REMARK  status: ('A' for Active; 'I' for Inactive)
REMARK    1  A    between atoms: C_2  and  C_4
REMARK    2  A    between atoms: C_4  and  N_5
REMARK    3  A    between atoms: C_6  and  C_8
REMARK    4  A    between atoms: C_8  and  C_9
REMARK    5  A    between atoms: C_8  and  N_16
REMARK    6  A    between atoms: C_9  and  C_10
REMARK    7  A    between atoms: C_10  and  C_11
REMARK    8  A    between atoms: C_11  and  N_12
REMARK    9  A    between atoms: C_17  and  C_19
REMARK   10  A    between atoms: C_24  and  C_26
REMARK   11  A    between atoms: C_35  and  C_36
REMARK   12  A    between atoms: C_36  and  C_37
REMARK   13  A    between atoms: C_40  and  O_41
REMARK   14  A    between atoms: C_47  and  C_48
REMARK   15  A    between atoms: C_48  and  C_49
REMARK   16  A    between atoms: C_62  and  C_63
REMARK   17  A    between atoms: C_63  and  C_64
REMARK                            x       y       z     vdW  Elec       q    Type
REMARK                         _______ _______ _______ _____ _____    ______ ____
ROOT
ATOM      1  C   UNL     1      -3.738   6.289 129.518  0.00  0.00    +0.000 C 
ATOM      2  C   UNL     1      -3.810   5.843 127.647  0.00  0.00    +0.000 C 
ATOM      3  S   UNL     1      -4.516   4.021 126.730  0.00  0.00    +0.000 S 
ATOM      4  S   UNL     1      -5.565   3.990 124.707  0.00  0.00    +0.000 S 
ATOM      5  C   UNL     1      -7.129   3.040 125.117  0.00  0.00    +0.000 C 
ATOM      6  C   UNL     1      -8.123   2.077 124.376  0.00  0.00    +0.000 C 
ATOM      7  C   UNL     1      -9.199   1.293 125.217  0.00  0.00    +0.000 C 
ATOM      8  O   UNL     1     -10.180   0.776 124.671  0.00  0.00    +0.000 OA
ATOM      9  N   UNL     1      -9.106   1.090 126.557  0.00  0.00    +0.000 N 
ATOM     10  C   UNL     1      -8.037   1.501 127.418  0.00  0.00    +0.000 C 
ATOM     11  C   UNL     1      -6.727   0.659 126.990  0.00  0.00    +0.000 C 
ATOM     12  O   UNL     1      -6.483   0.263 125.848  0.00  0.00    +0.000 OA
ATOM     13  N   UNL     1      -5.711   0.465 127.851  0.00  0.00    +0.000 N 
ATOM     14  C   UNL     1      -5.978   0.210 129.214  0.00  0.00    +0.000 C 
ATOM     15  C   UNL     1      -5.838   1.569 129.755  0.00  0.00    +0.000 C 
ATOM     16  O   UNL     1      -5.967   2.669 129.217  0.00  0.00    +0.000 OA
ATOM     17  N   UNL     1      -5.518   1.583 131.030  0.00  0.00    +0.000 N 
ATOM     18  C   UNL     1      -4.336   0.971 131.549  0.00  0.00    +0.000 C 
ATOM     19  C   UNL     1      -3.663   1.830 132.591  0.00  0.00    +0.000 C 
ATOM     20  O   UNL     1      -2.691   1.449 133.208  0.00  0.00    +0.000 OA
ATOM     21  N   UNL     1      -3.990   3.144 132.699  0.00  0.00    +0.000 N 
ATOM     22  C   UNL     1      -5.021   4.039 132.127  0.00  0.00    +0.000 C 
ATOM     23  C   UNL     1      -4.383   4.250 130.685  0.00  0.00    +0.000 C 
ATOM     24  O   UNL     1      -3.602   3.386 130.169  0.00  0.00    +0.000 OA
ATOM     25  N   UNL     1      -4.699   5.202 129.828  0.00  0.00    +0.000 N 
ATOM     26  H   UNL     1      -9.894   0.611 126.978  0.00  0.00    +0.000 HD
ATOM     27  H   UNL     1      -4.881   0.061 127.441  0.00  0.00    +0.000 HD
ATOM     28  H   UNL     1      -5.401   2.556 131.002  0.00  0.00    +0.000 HD
ATOM     29  H   UNL     1      -3.065   3.534 132.722  0.00  0.00    +0.000 HD
ATOM     30  H   UNL     1      -4.535   4.620 129.013  0.00  0.00    +0.000 HD
ENDROOT
BRANCH   1  36
ATOM     31  C   UNL     1      -2.118   6.313 132.804  0.00  0.00    +0.000 C 
ATOM     32  C   UNL     1      -1.982   5.613 134.235  0.00  0.00    +0.000 C 
ATOM     33  C   UNL     1      -2.695   6.528 135.189  0.00  0.00    +0.000 C 
ATOM     34  C   UNL     1      -3.861   7.142 134.255  0.00  0.00    +0.000 C 
ATOM     35  N   UNL     1      -3.463   6.838 132.666  0.00  0.00    +0.000 N 
ATOM     36  C   UNL     1      -4.300   6.885 131.278  0.00  0.00    +0.000 C 
ATOM     37  O   UNL     1      -5.503   7.066 131.444  0.00  0.00    +0.000 OA
BRANCH  31  39
ATOM     38  N   UNL     1      -1.762   8.732 132.851  0.00  0.00    +0.000 N 
ATOM     39  C   UNL     1      -1.160   7.494 132.734  0.00  0.00    +0.000 C 
ATOM     40  O   UNL     1       0.053   7.329 132.661  0.00  0.00    +0.000 OA
ATOM     41  H   UNL     1      -2.749   8.880 132.724  0.00  0.00    +0.000 HD
BRANCH  38  42
ATOM     42  C   UNL     1      -1.019   9.897 133.263  0.00  0.00    +0.000 C 
BRANCH  42  44
ATOM     43  N   UNL     1       0.418   9.151 135.165  0.00  0.00    +0.000 N 
ATOM     44  C   UNL     1      -0.763   9.740 134.800  0.00  0.00    +0.000 C 
ATOM     45  O   UNL     1      -1.562  10.127 135.662  0.00  0.00    +0.000 OA
ATOM     46  H   UNL     1       1.090   8.811 134.484  0.00  0.00    +0.000 HD
BRANCH  43  47
ATOM     47  C   UNL     1       0.844   9.071 136.541  0.00  0.00    +0.000 C 
BRANCH  47  49
ATOM     48  N   UNL     1       2.328   7.748 137.977  0.00  0.00    +0.000 N 
ATOM     49  C   UNL     1       1.730   7.842 136.754  0.00  0.00    +0.000 C 
ATOM     50  O   UNL     1       1.908   6.974 135.904  0.00  0.00    +0.000 OA
ATOM     51  H   UNL     1       2.909   6.937 138.155  0.00  0.00    +0.000 HD
ATOM     52  H   UNL     1       2.203   8.425 138.716  0.00  0.00    +0.000 HD
ENDBRANCH  47  49
ENDBRANCH  43  47
ENDBRANCH  42  44
BRANCH  42  53
ATOM     53  C   UNL     1      -1.864  11.143 132.911  0.00  0.00    +0.000 C 
BRANCH  53  54
ATOM     54  C   UNL     1      -1.011  12.225 132.283  0.00  0.00    +0.000 C 
BRANCH  54  55
ATOM     55  C   UNL     1       0.464  11.945 132.265  0.00  0.00    +0.000 C 
BRANCH  55  56
ATOM     56  N   UNL     1       1.134  13.191 132.631  0.00  0.00    +0.000 NA
ATOM     57  C   UNL     1       1.957  13.127 133.612  0.00  0.00    +0.000 C 
ATOM     58  N   UNL     1       2.249  12.030 134.330  0.00  0.00    +0.000 N 
ATOM     59  N   UNL     1       2.622  14.223 134.010  0.00  0.00    +0.000 N 
ATOM     60  H   UNL     1       1.800  11.156 134.096  0.00  0.00    +0.000 HD
ATOM     61  H   UNL     1       2.880  12.031 135.109  0.00  0.00    +0.000 HD
ATOM     62  H   UNL     1       2.451  15.081 133.499  0.00  0.00    +0.000 HD
ATOM     63  H   UNL     1       3.258  14.248 134.787  0.00  0.00    +0.000 HD
ENDBRANCH  55  56
ENDBRANCH  54  55
ENDBRANCH  53  54
ENDBRANCH  42  53
ENDBRANCH  38  42
ENDBRANCH  31  39
ENDBRANCH   1  36
BRANCH  10  64
ATOM     64  C   UNL     1      -8.473   1.676 128.864  0.00  0.00    +0.000 C 
BRANCH  64  65
ATOM     65  C   UNL     1      -9.049   2.874 129.433  0.00  0.00    +0.000 A 
ATOM     66  C   UNL     1      -9.714   2.742 130.653  0.00  0.00    +0.000 A 
ATOM     67  C   UNL     1     -10.099   3.886 131.286  0.00  0.00    +0.000 A 
ATOM     68  C   UNL     1      -9.778   5.103 130.679  0.00  0.00    +0.000 A 
ATOM     69  C   UNL     1      -9.035   5.208 129.503  0.00  0.00    +0.000 A 
ATOM     70  C   UNL     1      -8.634   4.071 128.875  0.00  0.00    +0.000 A 
BRANCH  68  71
ATOM     71  O   UNL     1     -10.200   6.274 131.224  0.00  0.00    +0.000 OA
ATOM     72  H   UNL     1      -9.712   6.385 132.053  0.00  0.00    +0.000 HD
ENDBRANCH  68  71
ENDBRANCH  64  65
ENDBRANCH  10  64
BRANCH  14  73
ATOM     73  C   UNL     1      -7.210  -0.666 129.519  0.00  0.00    +0.000 C 
BRANCH  73  74
ATOM     74  C   UNL     1      -6.917  -1.996 130.069  0.00  0.00    +0.000 A 
ATOM     75  C   UNL     1      -7.350  -2.287 131.353  0.00  0.00    +0.000 A 
ATOM     76  C   UNL     1      -6.766  -3.310 132.036  0.00  0.00    +0.000 A 
ATOM     77  C   UNL     1      -5.881  -4.141 131.364  0.00  0.00    +0.000 A 
ATOM     78  C   UNL     1      -5.456  -3.866 130.060  0.00  0.00    +0.000 A 
ATOM     79  C   UNL     1      -5.950  -2.760 129.410  0.00  0.00    +0.000 A 
ENDBRANCH  73  74
ENDBRANCH  14  73
BRANCH  22  80
ATOM     80  C   UNL     1      -6.439   3.545 132.507  0.00  0.00    +0.000 C 
BRANCH  80  81
ATOM     81  C   UNL     1      -7.257   4.349 133.489  0.00  0.00    +0.000 C 
ATOM     82  N   UNL     1      -7.272   5.690 133.323  0.00  0.00    +0.000 N 
ATOM     83  O   UNL     1      -7.764   3.848 134.474  0.00  0.00    +0.000 OA
ATOM     84  H   UNL     1      -6.754   6.125 132.590  0.00  0.00    +0.000 HD
ATOM     85  H   UNL     1      -7.825   6.262 133.941  0.00  0.00    +0.000 HD
ENDBRANCH  80  81
ENDBRANCH  22  80
TORSDOF 17
ENDMDL
MODEL 7
REMARK VINA RESULT:      -9.2      3.618     10.509
REMARK  Name = CHEMBL80877
REMARK  17 active torsions:
REMARK  status: ('A' for Active; 'I' for Inactive)
REMARK    1  A    between atoms: C_2  and  C_4
REMARK    2  A    between atoms: C_4  and  N_5
REMARK    3  A    between atoms: C_6  and  C_8
REMARK    4  A    between atoms: C_8  and  C_9
REMARK    5  A    between atoms: C_8  and  N_16
REMARK    6  A    between atoms: C_9  and  C_10
REMARK    7  A    between atoms: C_10  and  C_11
REMARK    8  A    between atoms: C_11  and  N_12
REMARK    9  A    between atoms: C_17  and  C_19
REMARK   10  A    between atoms: C_24  and  C_26
REMARK   11  A    between atoms: C_35  and  C_36
REMARK   12  A    between atoms: C_36  and  C_37
REMARK   13  A    between atoms: C_40  and  O_41
REMARK   14  A    between atoms: C_47  and  C_48
REMARK   15  A    between atoms: C_48  and  C_49
REMARK   16  A    between atoms: C_62  and  C_63
REMARK   17  A    between atoms: C_63  and  C_64
REMARK                            x       y       z     vdW  Elec       q    Type
REMARK                         _______ _______ _______ _____ _____    ______ ____
ROOT
ATOM      1  C   UNL     1      -3.124   3.267 132.281  0.00  0.00    +0.000 C 
ATOM      2  C   UNL     1      -3.011   4.074 130.537  0.00  0.00    +0.000 C 
ATOM      3  S   UNL     1      -3.709   3.292 128.650  0.00  0.00    +0.000 S 
ATOM      4  S   UNL     1      -4.524   4.627 126.993  0.00  0.00    +0.000 S 
ATOM      5  C   UNL     1      -6.175   3.811 126.639  0.00  0.00    +0.000 C 
ATOM      6  C   UNL     1      -7.131   3.625 125.408  0.00  0.00    +0.000 C 
ATOM      7  C   UNL     1      -8.337   2.620 125.521  0.00  0.00    +0.000 C 
ATOM      8  O   UNL     1      -9.278   2.662 124.720  0.00  0.00    +0.000 OA
ATOM      9  N   UNL     1      -8.407   1.629 126.448  0.00  0.00    +0.000 N 
ATOM     10  C   UNL     1      -7.421   1.300 127.434  0.00  0.00    +0.000 C 
ATOM     11  C   UNL     1      -6.120   0.755 126.647  0.00  0.00    +0.000 C 
ATOM     12  O   UNL     1      -5.771   1.119 125.520  0.00  0.00    +0.000 OA
ATOM     13  N   UNL     1      -5.220  -0.040 127.254  0.00  0.00    +0.000 N 
ATOM     14  C   UNL     1      -5.653  -1.044 128.147  0.00  0.00    +0.000 C 
ATOM     15  C   UNL     1      -5.499  -0.329 129.422  0.00  0.00    +0.000 C 
ATOM     16  O   UNL     1      -5.504   0.875 129.677  0.00  0.00    +0.000 OA
ATOM     17  N   UNL     1      -5.324  -1.137 130.444  0.00  0.00    +0.000 N 
ATOM     18  C   UNL     1      -4.244  -2.067 130.534  0.00  0.00    +0.000 C 
ATOM     19  C   UNL     1      -3.646  -2.112 131.918  0.00  0.00    +0.000 C 
ATOM     20  O   UNL     1      -2.773  -2.898 132.216  0.00  0.00    +0.000 OA
ATOM     21  N   UNL     1      -3.909  -1.113 132.801  0.00  0.00    +0.000 N 
ATOM     22  C   UNL     1      -4.817   0.054 132.855  0.00  0.00    +0.000 C 
ATOM     23  C   UNL     1      -4.010   1.031 131.892  0.00  0.00    +0.000 C 
ATOM     24  O   UNL     1      -3.226   0.583 130.994  0.00  0.00    +0.000 OA
ATOM     25  N   UNL     1      -4.174   2.337 131.796  0.00  0.00    +0.000 N 
ATOM     26  H   UNL     1      -9.263   1.086 126.438  0.00  0.00    +0.000 HD
ATOM     27  H   UNL     1      -4.373  -0.198 126.727  0.00  0.00    +0.000 HD
ATOM     28  H   UNL     1      -5.150  -0.372 131.033  0.00  0.00    +0.000 HD
ATOM     29  H   UNL     1      -2.972  -0.928 133.111  0.00  0.00    +0.000 HD
ATOM     30  H   UNL     1      -3.952   2.363 130.806  0.00  0.00    +0.000 HD
ENDROOT
BRANCH   1  36
ATOM     31  C   UNL     1      -5.334   4.884 134.715  0.00  0.00    +0.000 C 
ATOM     32  C   UNL     1      -5.450   5.675 136.098  0.00  0.00    +0.000 C 
ATOM     33  C   UNL     1      -6.009   4.680 137.074  0.00  0.00    +0.000 C 
ATOM     34  C   UNL     1      -5.388   3.292 136.529  0.00  0.00    +0.000 C 
ATOM     35  N   UNL     1      -4.834   3.548 134.980  0.00  0.00    +0.000 N 
ATOM     36  C   UNL     1      -3.847   2.718 133.997  0.00  0.00    +0.000 C 
ATOM     37  O   UNL     1      -3.303   1.766 134.549  0.00  0.00    +0.000 OA
BRANCH  31  39
ATOM     38  N   UNL     1      -7.183   5.857 133.444  0.00  0.00    +0.000 N 
ATOM     39  C   UNL     1      -6.723   4.736 134.106  0.00  0.00    +0.000 C 
ATOM     40  O   UNL     1      -7.327   3.670 134.146  0.00  0.00    +0.000 OA
ATOM     41  H   UNL     1      -6.785   6.773 133.566  0.00  0.00    +0.000 HD
BRANCH  38  42
ATOM     42  C   UNL     1      -8.220   5.772 132.446  0.00  0.00    +0.000 C 
BRANCH  42  44
ATOM     43  N   UNL     1      -6.309   6.700 131.132  0.00  0.00    +0.000 N 
ATOM     44  C   UNL     1      -7.658   6.470 131.160  0.00  0.00    +0.000 C 
ATOM     45  O   UNL     1      -8.370   6.797 130.203  0.00  0.00    +0.000 OA
ATOM     46  H   UNL     1      -5.699   6.455 131.906  0.00  0.00    +0.000 HD
BRANCH  43  47
ATOM     47  C   UNL     1      -5.640   7.204 129.957  0.00  0.00    +0.000 C 
BRANCH  47  49
ATOM     48  N   UNL     1      -4.100   9.078 129.592  0.00  0.00    +0.000 N 
ATOM     49  C   UNL     1      -4.381   7.979 130.352  0.00  0.00    +0.000 C 
ATOM     50  O   UNL     1      -3.653   7.665 131.289  0.00  0.00    +0.000 OA
ATOM     51  H   UNL     1      -3.281   9.622 129.839  0.00  0.00    +0.000 HD
ATOM     52  H   UNL     1      -4.673   9.389 128.822  0.00  0.00    +0.000 HD
ENDBRANCH  47  49
ENDBRANCH  43  47
ENDBRANCH  42  44
BRANCH  42  53
ATOM     53  C   UNL     1      -9.479   6.467 133.014  0.00  0.00    +0.000 C 
BRANCH  53  54
ATOM     54  C   UNL     1     -10.734   5.985 132.315  0.00  0.00    +0.000 C 
BRANCH  54  55
ATOM     55  C   UNL     1     -11.695   7.065 131.913  0.00  0.00    +0.000 C 
BRANCH  55  56
ATOM     56  N   UNL     1     -12.429   6.565 130.752  0.00  0.00    +0.000 NA
ATOM     57  C   UNL     1     -12.067   7.023 129.610  0.00  0.00    +0.000 C 
ATOM     58  N   UNL     1     -11.089   7.917 129.390  0.00  0.00    +0.000 N 
ATOM     59  N   UNL     1     -12.683   6.612 128.491  0.00  0.00    +0.000 N 
ATOM     60  H   UNL     1     -10.567   8.276 130.175  0.00  0.00    +0.000 HD
ATOM     61  H   UNL     1     -10.857   8.270 128.481  0.00  0.00    +0.000 HD
ATOM     62  H   UNL     1     -13.423   5.928 128.592  0.00  0.00    +0.000 HD
ATOM     63  H   UNL     1     -12.468   6.950 127.570  0.00  0.00    +0.000 HD
ENDBRANCH  55  56
ENDBRANCH  54  55
ENDBRANCH  53  54
ENDBRANCH  42  53
ENDBRANCH  38  42
ENDBRANCH  31  39
ENDBRANCH   1  36
BRANCH  10  64
ATOM     64  C   UNL     1      -8.006   0.600 128.649  0.00  0.00    +0.000 C 
BRANCH  64  65
ATOM     65  C   UNL     1      -8.443   1.247 129.867  0.00  0.00    +0.000 A 
ATOM     66  C   UNL     1      -8.781   2.599 129.783  0.00  0.00    +0.000 A 
ATOM     67  C   UNL     1      -9.364   3.170 130.874  0.00  0.00    +0.000 A 
ATOM     68  C   UNL     1      -9.603   2.355 131.983  0.00  0.00    +0.000 A 
ATOM     69  C   UNL     1      -9.335   0.986 132.009  0.00  0.00    +0.000 A 
ATOM     70  C   UNL     1      -8.768   0.406 130.918  0.00  0.00    +0.000 A 
BRANCH  68  71
ATOM     71  O   UNL     1     -10.114   2.884 133.126  0.00  0.00    +0.000 OA
ATOM     72  H   UNL     1      -9.473   2.695 133.828  0.00  0.00    +0.000 HD
ENDBRANCH  68  71
ENDBRANCH  64  65
ENDBRANCH  10  64
BRANCH  14  73
ATOM     73  C   UNL     1      -6.958  -1.776 127.775  0.00  0.00    +0.000 C 
BRANCH  73  74
ATOM     74  C   UNL     1      -6.969  -2.412 126.452  0.00  0.00    +0.000 A 
ATOM     75  C   UNL     1      -5.755  -2.755 125.875  0.00  0.00    +0.000 A 
ATOM     76  C   UNL     1      -5.690  -2.955 124.531  0.00  0.00    +0.000 A 
ATOM     77  C   UNL     1      -6.871  -2.984 123.803  0.00  0.00    +0.000 A 
ATOM     78  C   UNL     1      -8.102  -2.660 124.381  0.00  0.00    +0.000 A 
ATOM     79  C   UNL     1      -8.154  -2.335 125.716  0.00  0.00    +0.000 A 
ENDBRANCH  73  74
ENDBRANCH  14  73
BRANCH  22  80
ATOM     80  C   UNL     1      -6.295  -0.403 132.768  0.00  0.00    +0.000 C 
BRANCH  80  81
ATOM     81  C   UNL     1      -6.790  -1.463 133.722  0.00  0.00    +0.000 C 
ATOM     82  N   UNL     1      -7.653  -2.379 133.230  0.00  0.00    +0.000 N 
ATOM     83  O   UNL     1      -6.553  -1.424 134.915  0.00  0.00    +0.000 OA
ATOM     84  H   UNL     1      -7.955  -2.345 132.279  0.00  0.00    +0.000 HD
ATOM     85  H   UNL     1      -7.989  -3.118 133.827  0.00  0.00    +0.000 HD
ENDBRANCH  80  81
ENDBRANCH  22  80
TORSDOF 17
ENDMDL
MODEL 8
REMARK VINA RESULT:      -9.2      2.333      3.567
REMARK  Name = CHEMBL80877
REMARK  17 active torsions:
REMARK  status: ('A' for Active; 'I' for Inactive)
REMARK    1  A    between atoms: C_2  and  C_4
REMARK    2  A    between atoms: C_4  and  N_5
REMARK    3  A    between atoms: C_6  and  C_8
REMARK    4  A    between atoms: C_8  and  C_9
REMARK    5  A    between atoms: C_8  and  N_16
REMARK    6  A    between atoms: C_9  and  C_10
REMARK    7  A    between atoms: C_10  and  C_11
REMARK    8  A    between atoms: C_11  and  N_12
REMARK    9  A    between atoms: C_17  and  C_19
REMARK   10  A    between atoms: C_24  and  C_26
REMARK   11  A    between atoms: C_35  and  C_36
REMARK   12  A    between atoms: C_36  and  C_37
REMARK   13  A    between atoms: C_40  and  O_41
REMARK   14  A    between atoms: C_47  and  C_48
REMARK   15  A    between atoms: C_48  and  C_49
REMARK   16  A    between atoms: C_62  and  C_63
REMARK   17  A    between atoms: C_63  and  C_64
REMARK                            x       y       z     vdW  Elec       q    Type
REMARK                         _______ _______ _______ _____ _____    ______ ____
ROOT
ATOM      1  C   UNL     1      -6.291   1.070 134.039  0.00  0.00    +0.000 C 
ATOM      2  C   UNL     1      -5.261   0.757 135.635  0.00  0.00    +0.000 C 
ATOM      3  S   UNL     1      -4.028   2.151 136.729  0.00  0.00    +0.000 S 
ATOM      4  S   UNL     1      -3.801   2.073 138.994  0.00  0.00    +0.000 S 
ATOM      5  C   UNL     1      -4.222   3.838 139.469  0.00  0.00    +0.000 C 
ATOM      6  C   UNL     1      -3.831   4.854 140.599  0.00  0.00    +0.000 C 
ATOM      7  C   UNL     1      -4.258   6.363 140.452  0.00  0.00    +0.000 C 
ATOM      8  O   UNL     1      -4.250   7.124 141.426  0.00  0.00    +0.000 OA
ATOM      9  N   UNL     1      -4.606   6.935 139.270  0.00  0.00    +0.000 N 
ATOM     10  C   UNL     1      -4.615   6.312 137.980  0.00  0.00    +0.000 C 
ATOM     11  C   UNL     1      -3.083   5.972 137.602  0.00  0.00    +0.000 C 
ATOM     12  O   UNL     1      -2.197   5.696 138.416  0.00  0.00    +0.000 OA
ATOM     13  N   UNL     1      -2.700   5.811 136.322  0.00  0.00    +0.000 N 
ATOM     14  C   UNL     1      -3.233   6.645 135.315  0.00  0.00    +0.000 C 
ATOM     15  C   UNL     1      -4.321   5.786 134.828  0.00  0.00    +0.000 C 
ATOM     16  O   UNL     1      -4.947   4.884 135.385  0.00  0.00    +0.000 OA
ATOM     17  N   UNL     1      -4.661   6.043 133.584  0.00  0.00    +0.000 N 
ATOM     18  C   UNL     1      -3.750   5.958 132.488  0.00  0.00    +0.000 C 
ATOM     19  C   UNL     1      -4.378   5.317 131.276  0.00  0.00    +0.000 C 
ATOM     20  O   UNL     1      -3.792   5.228 130.219  0.00  0.00    +0.000 OA
ATOM     21  N   UNL     1      -5.534   4.613 131.405  0.00  0.00    +0.000 N 
ATOM     22  C   UNL     1      -6.533   4.387 132.473  0.00  0.00    +0.000 C 
ATOM     23  C   UNL     1      -5.719   3.334 133.344  0.00  0.00    +0.000 C 
ATOM     24  O   UNL     1      -4.446   3.295 133.326  0.00  0.00    +0.000 OA
ATOM     25  N   UNL     1      -6.222   2.534 134.266  0.00  0.00    +0.000 N 
ATOM     26  H   UNL     1      -4.906   7.902 139.329  0.00  0.00    +0.000 HD
ATOM     27  H   UNL     1      -1.762   5.454 136.203  0.00  0.00    +0.000 HD
ATOM     28  H   UNL     1      -5.261   5.268 133.576  0.00  0.00    +0.000 HD
ATOM     29  H   UNL     1      -5.272   3.788 130.896  0.00  0.00    +0.000 HD
ATOM     30  H   UNL     1      -5.387   2.557 134.842  0.00  0.00    +0.000 HD
ENDROOT
BRANCH   1  36
ATOM     31  C   UNL     1      -6.752   1.111 130.405  0.00  0.00    +0.000 C 
ATOM     32  C   UNL     1      -6.754   1.984 129.065  0.00  0.00    +0.000 C 
ATOM     33  C   UNL     1      -8.203   2.138 128.700  0.00  0.00    +0.000 C 
ATOM     34  C   UNL     1      -8.913   2.157 130.151  0.00  0.00    +0.000 C 
ATOM     35  N   UNL     1      -7.823   1.574 131.266  0.00  0.00    +0.000 N 
ATOM     36  C   UNL     1      -7.755   1.616 132.886  0.00  0.00    +0.000 C 
ATOM     37  O   UNL     1      -8.621   2.325 133.388  0.00  0.00    +0.000 OA
BRANCH  31  39
ATOM     38  N   UNL     1      -6.400  -1.268 130.849  0.00  0.00    +0.000 N 
ATOM     39  C   UNL     1      -7.046  -0.341 130.054  0.00  0.00    +0.000 C 
ATOM     40  O   UNL     1      -7.859  -0.637 129.184  0.00  0.00    +0.000 OA
ATOM     41  H   UNL     1      -5.606  -1.043 131.425  0.00  0.00    +0.000 HD
BRANCH  38  42
ATOM     42  C   UNL     1      -6.885  -2.619 130.981  0.00  0.00    +0.000 C 
BRANCH  42  44
ATOM     43  N   UNL     1      -6.953  -2.244 133.450  0.00  0.00    +0.000 N 
ATOM     44  C   UNL     1      -6.542  -3.073 132.441  0.00  0.00    +0.000 C 
ATOM     45  O   UNL     1      -5.942  -4.124 132.698  0.00  0.00    +0.000 OA
ATOM     46  H   UNL     1      -7.437  -1.370 133.273  0.00  0.00    +0.000 HD
BRANCH  43  47
ATOM     47  C   UNL     1      -6.829  -2.607 134.841  0.00  0.00    +0.000 C 
BRANCH  47  49
ATOM     48  N   UNL     1      -8.706  -4.173 134.642  0.00  0.00    +0.000 N 
ATOM     49  C   UNL     1      -8.156  -3.157 135.368  0.00  0.00    +0.000 C 
ATOM     50  O   UNL     1      -8.714  -2.738 136.378  0.00  0.00    +0.000 OA
ATOM     51  H   UNL     1      -9.578  -4.570 134.975  0.00  0.00    +0.000 HD
ATOM     52  H   UNL     1      -8.282  -4.564 133.814  0.00  0.00    +0.000 HD
ENDBRANCH  47  49
ENDBRANCH  43  47
ENDBRANCH  42  44
BRANCH  42  53
ATOM     53  C   UNL     1      -6.191  -3.477 129.898  0.00  0.00    +0.000 C 
BRANCH  53  54
ATOM     54  C   UNL     1      -4.940  -2.798 129.380  0.00  0.00    +0.000 C 
BRANCH  54  55
ATOM     55  C   UNL     1      -3.657  -3.261 130.007  0.00  0.00    +0.000 C 
BRANCH  55  56
ATOM     56  N   UNL     1      -3.183  -2.169 130.855  0.00  0.00    +0.000 NA
ATOM     57  C   UNL     1      -2.940  -2.464 132.079  0.00  0.00    +0.000 C 
ATOM     58  N   UNL     1      -3.087  -3.673 132.645  0.00  0.00    +0.000 N 
ATOM     59  N   UNL     1      -2.495  -1.523 132.926  0.00  0.00    +0.000 N 
ATOM     60  H   UNL     1      -3.410  -4.444 132.081  0.00  0.00    +0.000 HD
ATOM     61  H   UNL     1      -2.910  -3.853 133.616  0.00  0.00    +0.000 HD
ATOM     62  H   UNL     1      -2.354  -0.591 132.552  0.00  0.00    +0.000 HD
ATOM     63  H   UNL     1      -2.311  -1.679 133.900  0.00  0.00    +0.000 HD
ENDBRANCH  55  56
ENDBRANCH  54  55
ENDBRANCH  53  54
ENDBRANCH  42  53
ENDBRANCH  38  42
ENDBRANCH  31  39
ENDBRANCH   1  36
BRANCH  10  64
ATOM     64  C   UNL     1      -5.581   6.969 137.009  0.00  0.00    +0.000 C 
BRANCH  64  65
ATOM     65  C   UNL     1      -6.753   7.736 137.373  0.00  0.00    +0.000 A 
ATOM     66  C   UNL     1      -7.916   7.021 137.666  0.00  0.00    +0.000 A 
ATOM     67  C   UNL     1      -8.967   7.716 138.184  0.00  0.00    +0.000 A 
ATOM     68  C   UNL     1      -8.794   9.085 138.406  0.00  0.00    +0.000 A 
ATOM     69  C   UNL     1      -7.592   9.758 138.186  0.00  0.00    +0.000 A 
ATOM     70  C   UNL     1      -6.534   9.068 137.684  0.00  0.00    +0.000 A 
BRANCH  68  71
ATOM     71  O   UNL     1      -9.830   9.844 138.851  0.00  0.00    +0.000 OA
ATOM     72  H   UNL     1     -10.145  10.353 138.090  0.00  0.00    +0.000 HD
ENDBRANCH  68  71
ENDBRANCH  64  65
ENDBRANCH  10  64
BRANCH  14  73
ATOM     73  C   UNL     1      -3.468   8.120 135.699  0.00  0.00    +0.000 C 
BRANCH  73  74
ATOM     74  C   UNL     1      -2.676   9.101 134.947  0.00  0.00    +0.000 A 
ATOM     75  C   UNL     1      -2.792  10.440 135.286  0.00  0.00    +0.000 A 
ATOM     76  C   UNL     1      -2.417  11.390 134.387  0.00  0.00    +0.000 A 
ATOM     77  C   UNL     1      -1.767  10.990 133.227  0.00  0.00    +0.000 A 
ATOM     78  C   UNL     1      -1.626   9.642 132.888  0.00  0.00    +0.000 A 
ATOM     79  C   UNL     1      -2.117   8.679 133.738  0.00  0.00    +0.000 A 
ENDBRANCH  73  74
ENDBRANCH  14  73
BRANCH  22  80
ATOM     80  C   UNL     1      -7.175   5.728 132.908  0.00  0.00    +0.000 C 
BRANCH  80  81
ATOM     81  C   UNL     1      -8.653   5.941 132.680  0.00  0.00    +0.000 C 
ATOM     82  N   UNL     1      -9.502   5.158 133.381  0.00  0.00    +0.000 N 
ATOM     83  O   UNL     1      -9.075   6.672 131.804  0.00  0.00    +0.000 OA
ATOM     84  H   UNL     1      -9.162   4.464 134.013  0.00  0.00    +0.000 HD
ATOM     85  H   UNL     1     -10.496   5.285 133.278  0.00  0.00    +0.000 HD
ENDBRANCH  80  81
ENDBRANCH  22  80
TORSDOF 17
ENDMDL
MODEL 9
REMARK VINA RESULT:      -9.0      1.811      3.792
REMARK  Name = CHEMBL80877
REMARK  17 active torsions:
REMARK  status: ('A' for Active; 'I' for Inactive)
REMARK    1  A    between atoms: C_2  and  C_4
REMARK    2  A    between atoms: C_4  and  N_5
REMARK    3  A    between atoms: C_6  and  C_8
REMARK    4  A    between atoms: C_8  and  C_9
REMARK    5  A    between atoms: C_8  and  N_16
REMARK    6  A    between atoms: C_9  and  C_10
REMARK    7  A    between atoms: C_10  and  C_11
REMARK    8  A    between atoms: C_11  and  N_12
REMARK    9  A    between atoms: C_17  and  C_19
REMARK   10  A    between atoms: C_24  and  C_26
REMARK   11  A    between atoms: C_35  and  C_36
REMARK   12  A    between atoms: C_36  and  C_37
REMARK   13  A    between atoms: C_40  and  O_41
REMARK   14  A    between atoms: C_47  and  C_48
REMARK   15  A    between atoms: C_48  and  C_49
REMARK   16  A    between atoms: C_62  and  C_63
REMARK   17  A    between atoms: C_63  and  C_64
REMARK                            x       y       z     vdW  Elec       q    Type
REMARK                         _______ _______ _______ _____ _____    ______ ____
ROOT
ATOM      1  C   UNL     1      -5.763   1.525 132.077  0.00  0.00    +0.000 C 
ATOM      2  C   UNL     1      -4.997   0.770 133.674  0.00  0.00    +0.000 C 
ATOM      3  S   UNL     1      -4.054   1.797 135.323  0.00  0.00    +0.000 S 
ATOM      4  S   UNL     1      -4.205   1.063 137.474  0.00  0.00    +0.000 S 
ATOM      5  C   UNL     1      -4.808   2.608 138.349  0.00  0.00    +0.000 C 
ATOM      6  C   UNL     1      -4.676   3.254 139.774  0.00  0.00    +0.000 C 
ATOM      7  C   UNL     1      -5.164   4.735 139.990  0.00  0.00    +0.000 C 
ATOM      8  O   UNL     1      -5.368   5.179 141.126  0.00  0.00    +0.000 OA
ATOM      9  N   UNL     1      -5.345   5.624 138.979  0.00  0.00    +0.000 N 
ATOM     10  C   UNL     1      -5.099   5.404 137.585  0.00  0.00    +0.000 C 
ATOM     11  C   UNL     1      -3.506   5.206 137.405  0.00  0.00    +0.000 C 
ATOM     12  O   UNL     1      -2.754   4.714 138.250  0.00  0.00    +0.000 OA
ATOM     13  N   UNL     1      -2.905   5.430 136.221  0.00  0.00    +0.000 N 
ATOM     14  C   UNL     1      -3.312   6.516 135.416  0.00  0.00    +0.000 C 
ATOM     15  C   UNL     1      -4.249   5.825 134.519  0.00  0.00    +0.000 C 
ATOM     16  O   UNL     1      -4.902   4.793 134.674  0.00  0.00    +0.000 OA
ATOM     17  N   UNL     1      -4.390   6.431 133.361  0.00  0.00    +0.000 N 
ATOM     18  C   UNL     1      -3.305   6.679 132.467  0.00  0.00    +0.000 C 
ATOM     19  C   UNL     1      -3.680   6.414 131.030  0.00  0.00    +0.000 C 
ATOM     20  O   UNL     1      -2.921   6.644 130.114  0.00  0.00    +0.000 OA
ATOM     21  N   UNL     1      -4.795   5.691 130.744  0.00  0.00    +0.000 N 
ATOM     22  C   UNL     1      -5.944   5.152 131.507  0.00  0.00    +0.000 C 
ATOM     23  C   UNL     1      -5.224   3.899 132.172  0.00  0.00    +0.000 C 
ATOM     24  O   UNL     1      -3.966   3.881 132.371  0.00  0.00    +0.000 OA
ATOM     25  N   UNL     1      -5.823   2.860 132.721  0.00  0.00    +0.000 N 
ATOM     26  H   UNL     1      -5.709   6.528 139.257  0.00  0.00    +0.000 HD
ATOM     27  H   UNL     1      -1.941   5.133 136.175  0.00  0.00    +0.000 HD
ATOM     28  H   UNL     1      -4.932   5.686 133.024  0.00  0.00    +0.000 HD
ATOM     29  H   UNL     1      -4.401   5.054 130.076  0.00  0.00    +0.000 HD
ATOM     30  H   UNL     1      -5.100   2.722 133.420  0.00  0.00    +0.000 HD
ENDROOT
BRANCH   1  36
ATOM     31  C   UNL     1      -5.547   2.817 128.656  0.00  0.00    +0.000 C 
ATOM     32  C   UNL     1      -5.407   4.102 127.716  0.00  0.00    +0.000 C 
ATOM     33  C   UNL     1      -6.771   4.305 127.121  0.00  0.00    +0.000 C 
ATOM     34  C   UNL     1      -7.734   3.778 128.307  0.00  0.00    +0.000 C 
ATOM     35  N   UNL     1      -6.806   2.895 129.371  0.00  0.00    +0.000 N 
ATOM     36  C   UNL     1      -7.043   2.370 130.886  0.00  0.00    +0.000 C 
ATOM     37  O   UNL     1      -8.066   2.814 131.398  0.00  0.00    +0.000 OA
BRANCH  31  39
ATOM     38  N   UNL     1      -6.611   0.686 128.100  0.00  0.00    +0.000 N 
ATOM     39  C   UNL     1      -5.595   1.567 127.786  0.00  0.00    +0.000 C 
ATOM     40  O   UNL     1      -4.831   1.419 126.838  0.00  0.00    +0.000 OA
ATOM     41  H   UNL     1      -7.110   0.708 128.974  0.00  0.00    +0.000 HD
BRANCH  38  42
ATOM     42  C   UNL     1      -7.096  -0.279 127.146  0.00  0.00    +0.000 C 
BRANCH  42  44
ATOM     43  N   UNL     1      -7.710   0.560 124.874  0.00  0.00    +0.000 N 
ATOM     44  C   UNL     1      -8.072   0.491 126.192  0.00  0.00    +0.000 C 
ATOM     45  O   UNL     1      -9.126   1.011 126.581  0.00  0.00    +0.000 OA
ATOM     46  H   UNL     1      -6.847   0.155 124.525  0.00  0.00    +0.000 HD
BRANCH  43  47
ATOM     47  C   UNL     1      -8.580   1.114 123.866  0.00  0.00    +0.000 C 
BRANCH  47  49
ATOM     48  N   UNL     1     -10.404   0.432 122.375  0.00  0.00    +0.000 N 
ATOM     49  C   UNL     1      -9.422   0.010 123.224  0.00  0.00    +0.000 C 
ATOM     50  O   UNL     1      -9.250  -1.187 123.432  0.00  0.00    +0.000 OA
ATOM     51  H   UNL     1     -10.969  -0.277 121.921  0.00  0.00    +0.000 HD
ATOM     52  H   UNL     1     -10.578   1.402 122.157  0.00  0.00    +0.000 HD
ENDBRANCH  47  49
ENDBRANCH  43  47
ENDBRANCH  42  44
BRANCH  42  53
ATOM     53  C   UNL     1      -7.786  -1.416 127.934  0.00  0.00    +0.000 C 
BRANCH  53  54
ATOM     54  C   UNL     1      -6.826  -2.554 128.208  0.00  0.00    +0.000 C 
BRANCH  54  55
ATOM     55  C   UNL     1      -6.250  -2.584 129.594  0.00  0.00    +0.000 C 
BRANCH  55  56
ATOM     56  N   UNL     1      -4.913  -3.165 129.483  0.00  0.00    +0.000 NA
ATOM     57  C   UNL     1      -3.929  -2.349 129.575  0.00  0.00    +0.000 C 
ATOM     58  N   UNL     1      -4.017  -1.021 129.756  0.00  0.00    +0.000 N 
ATOM     59  N   UNL     1      -2.667  -2.798 129.491  0.00  0.00    +0.000 N 
ATOM     60  H   UNL     1      -4.928  -0.595 129.838  0.00  0.00    +0.000 HD
ATOM     61  H   UNL     1      -3.219  -0.414 129.796  0.00  0.00    +0.000 HD
ATOM     62  H   UNL     1      -2.537  -3.795 129.366  0.00  0.00    +0.000 HD
ATOM     63  H   UNL     1      -1.853  -2.211 129.528  0.00  0.00    +0.000 HD
ENDBRANCH  55  56
ENDBRANCH  54  55
ENDBRANCH  53  54
ENDBRANCH  42  53
ENDBRANCH  38  42
ENDBRANCH  31  39
ENDBRANCH   1  36
BRANCH  10  64
ATOM     64  C   UNL     1      -5.927   6.307 136.686  0.00  0.00    +0.000 C 
BRANCH  64  65
ATOM     65  C   UNL     1      -6.968   7.210 137.125  0.00  0.00    +0.000 A 
ATOM     66  C   UNL     1      -6.585   8.514 137.446  0.00  0.00    +0.000 A 
ATOM     67  C   UNL     1      -7.575   9.420 137.683  0.00  0.00    +0.000 A 
ATOM     68  C   UNL     1      -8.897   8.983 137.562  0.00  0.00    +0.000 A 
ATOM     69  C   UNL     1      -9.252   7.697 137.155  0.00  0.00    +0.000 A 
ATOM     70  C   UNL     1      -8.269   6.793 136.901  0.00  0.00    +0.000 A 
BRANCH  68  71
ATOM     71  O   UNL     1      -9.925   9.820 137.859  0.00  0.00    +0.000 OA
ATOM     72  H   UNL     1      -9.546  10.558 138.358  0.00  0.00    +0.000 HD
ENDBRANCH  68  71
ENDBRANCH  64  65
ENDBRANCH  10  64
BRANCH  14  73
ATOM     73  C   UNL     1      -3.699   7.812 136.157  0.00  0.00    +0.000 C 
BRANCH  73  74
ATOM     74  C   UNL     1      -3.071   9.039 135.652  0.00  0.00    +0.000 A 
ATOM     75  C   UNL     1      -1.922   8.923 134.885  0.00  0.00    +0.000 A 
ATOM     76  C   UNL     1      -1.101  10.000 134.750  0.00  0.00    +0.000 A 
ATOM     77  C   UNL     1      -1.527  11.228 135.235  0.00  0.00    +0.000 A 
ATOM     78  C   UNL     1      -2.696  11.358 135.991  0.00  0.00    +0.000 A 
ATOM     79  C   UNL     1      -3.466  10.245 136.237  0.00  0.00    +0.000 A 
ENDBRANCH  73  74
ENDBRANCH  14  73
BRANCH  22  80
ATOM     80  C   UNL     1      -6.731   6.301 132.185  0.00  0.00    +0.000 C 
BRANCH  80  81
ATOM     81  C   UNL     1      -8.079   6.003 132.799  0.00  0.00    +0.000 C 
ATOM     82  N   UNL     1      -8.110   5.103 133.806  0.00  0.00    +0.000 N 
ATOM     83  O   UNL     1      -9.115   6.429 132.325  0.00  0.00    +0.000 OA
ATOM     84  H   UNL     1      -7.278   4.650 134.120  0.00  0.00    +0.000 HD
ATOM     85  H   UNL     1      -8.985   4.894 134.260  0.00  0.00    +0.000 HD
ENDBRANCH  80  81
ENDBRANCH  22  80
TORSDOF 17
ENDMDL
