MODEL 1
REMARK VINA RESULT:      -8.9      0.000      0.000
REMARK  Name = CHEMBL515818
REMARK  9 active torsions:
REMARK  status: ('A' for Active; 'I' for Inactive)
REMARK    1  A    between atoms: C_1  and  O_2
REMARK    2  A    between atoms: O_2  and  C_3
REMARK    3  A    between atoms: C_6  and  N_7
REMARK    4  A    between atoms: N_7  and  C_8
REMARK    5  A    between atoms: N_7  and  S_22
REMARK    6  A    between atoms: C_8  and  C_9
REMARK    7  A    between atoms: C_12  and  C_13
REMARK    8  A    between atoms: C_18  and  C_19
REMARK    9  A    between atoms: S_22  and  C_25
REMARK                            x       y       z     vdW  Elec       q    Type
REMARK                         _______ _______ _______ _____ _____    ______ ____
ROOT
ATOM      1  N   UNL     1      -8.749   2.324 123.695  0.00  0.00    +0.000 N 
ENDROOT
BRANCH   1   5
ATOM      2  C   UNL     1      -6.964   4.026 120.206  0.00  0.00    +0.000 A 
ATOM      3  C   UNL     1      -6.137   3.390 121.121  0.00  0.00    +0.000 A 
ATOM      4  C   UNL     1      -6.686   2.817 122.293  0.00  0.00    +0.000 A 
ATOM      5  C   UNL     1      -8.055   2.844 122.510  0.00  0.00    +0.000 A 
ATOM      6  C   UNL     1      -8.738   3.348 121.412  0.00  0.00    +0.000 A 
ATOM      7  N   UNL     1      -8.277   4.002 120.326  0.00  0.00    +0.000 NA
BRANCH   2   9
ATOM      8  C   UNL     1      -5.420   5.538 119.393  0.00  0.00    +0.000 C 
ATOM      9  O   UNL     1      -6.561   4.749 119.132  0.00  0.00    +0.000 OA
ENDBRANCH   2   9
ENDBRANCH   1   5
BRANCH   1  10
ATOM     10  S   UNL     1      -9.660   0.851 123.552  0.00  0.00    +0.000 S 
ATOM     11  O   UNL     1     -10.482   0.785 124.741  0.00  0.00    +0.000 OA
ATOM     12  O   UNL     1     -10.286   0.890 122.234  0.00  0.00    +0.000 OA
BRANCH  10  13
ATOM     13  C   UNL     1      -8.611  -0.650 123.586  0.00  0.00    +0.000 A 
ATOM     14  C   UNL     1      -7.242  -0.654 123.394  0.00  0.00    +0.000 A 
ATOM     15  C   UNL     1      -6.523  -1.838 123.410  0.00  0.00    +0.000 A 
ATOM     16  C   UNL     1      -7.182  -3.009 123.702  0.00  0.00    +0.000 A 
ATOM     17  C   UNL     1      -8.546  -2.941 123.940  0.00  0.00    +0.000 A 
ATOM     18  N   UNL     1      -9.283  -1.799 123.875  0.00  0.00    +0.000 NA
ENDBRANCH  10  13
ENDBRANCH   1  10
BRANCH   1  19
ATOM     19  C   UNL     1      -8.576   2.919 125.049  0.00  0.00    +0.000 C 
BRANCH  19  20
ATOM     20  C   UNL     1      -7.915   2.217 126.218  0.00  0.00    +0.000 A 
ATOM     21  C   UNL     1      -6.695   1.562 125.989  0.00  0.00    +0.000 A 
ATOM     22  C   UNL     1      -6.342   0.523 126.837  0.00  0.00    +0.000 A 
ATOM     23  C   UNL     1      -7.180   0.179 127.907  0.00  0.00    +0.000 A 
ATOM     24  C   UNL     1      -8.327   0.949 128.099  0.00  0.00    +0.000 A 
ATOM     25  N   UNL     1      -8.683   1.993 127.311  0.00  0.00    +0.000 NA
BRANCH  23  26
ATOM     26  C   UNL     1      -6.822  -0.893 128.831  0.00  0.00    +0.000 A 
ATOM     27  C   UNL     1      -5.970  -0.661 129.927  0.00  0.00    +0.000 A 
ATOM     28  C   UNL     1      -5.590  -1.714 130.761  0.00  0.00    +0.000 A 
ATOM     29  C   UNL     1      -6.066  -3.000 130.516  0.00  0.00    +0.000 A 
ATOM     30  C   UNL     1      -6.918  -3.241 129.440  0.00  0.00    +0.000 A 
ATOM     31  C   UNL     1      -7.302  -2.199 128.591  0.00  0.00    +0.000 A 
ATOM     32  C   UNL     1      -8.188  -2.492 127.407  0.00  0.00    +0.000 C 
ENDBRANCH  23  26
ENDBRANCH  19  20
ENDBRANCH   1  19
TORSDOF 7
ENDMDL
MODEL 2
REMARK VINA RESULT:      -8.7      5.012      8.761
REMARK  Name = CHEMBL515818
REMARK  9 active torsions:
REMARK  status: ('A' for Active; 'I' for Inactive)
REMARK    1  A    between atoms: C_1  and  O_2
REMARK    2  A    between atoms: O_2  and  C_3
REMARK    3  A    between atoms: C_6  and  N_7
REMARK    4  A    between atoms: N_7  and  C_8
REMARK    5  A    between atoms: N_7  and  S_22
REMARK    6  A    between atoms: C_8  and  C_9
REMARK    7  A    between atoms: C_12  and  C_13
REMARK    8  A    between atoms: C_18  and  C_19
REMARK    9  A    between atoms: S_22  and  C_25
REMARK                            x       y       z     vdW  Elec       q    Type
REMARK                         _______ _______ _______ _____ _____    ______ ____
ROOT
ATOM      1  N   UNL     1      -7.686   4.357 129.863  0.00  0.00    +0.000 N 
ENDROOT
BRANCH   1   5
ATOM      2  C   UNL     1     -11.110   6.302 131.522  0.00  0.00    +0.000 A 
ATOM      3  C   UNL     1     -10.143   5.821 132.394  0.00  0.00    +0.000 A 
ATOM      4  C   UNL     1      -8.997   5.165 131.886  0.00  0.00    +0.000 A 
ATOM      5  C   UNL     1      -8.807   5.044 130.519  0.00  0.00    +0.000 A 
ATOM      6  C   UNL     1      -9.770   5.742 129.804  0.00  0.00    +0.000 A 
ATOM      7  N   UNL     1     -10.933   6.287 130.216  0.00  0.00    +0.000 NA
BRANCH   2   9
ATOM      8  C   UNL     1     -13.045   7.312 130.769  0.00  0.00    +0.000 C 
ATOM      9  O   UNL     1     -12.321   6.804 131.870  0.00  0.00    +0.000 OA
ENDBRANCH   2   9
ENDBRANCH   1   5
BRANCH   1  10
ATOM     10  S   UNL     1      -6.069   4.909 130.174  0.00  0.00    +0.000 S 
ATOM     11  O   UNL     1      -6.129   6.353 130.103  0.00  0.00    +0.000 OA
ATOM     12  O   UNL     1      -5.650   4.256 131.411  0.00  0.00    +0.000 OA
BRANCH  10  13
ATOM     13  C   UNL     1      -4.873   4.396 128.884  0.00  0.00    +0.000 A 
ATOM     14  C   UNL     1      -4.051   3.288 128.971  0.00  0.00    +0.000 A 
ATOM     15  C   UNL     1      -3.156   2.982 127.960  0.00  0.00    +0.000 A 
ATOM     16  C   UNL     1      -3.151   3.757 126.823  0.00  0.00    +0.000 A 
ATOM     17  C   UNL     1      -4.033   4.825 126.765  0.00  0.00    +0.000 A 
ATOM     18  N   UNL     1      -4.883   5.177 127.768  0.00  0.00    +0.000 NA
ENDBRANCH  10  13
ENDBRANCH   1  10
BRANCH   1  19
ATOM     19  C   UNL     1      -7.868   3.112 129.067  0.00  0.00    +0.000 C 
BRANCH  19  20
ATOM     20  C   UNL     1      -7.838   3.048 127.553  0.00  0.00    +0.000 A 
ATOM     21  C   UNL     1      -7.074   2.036 126.951  0.00  0.00    +0.000 A 
ATOM     22  C   UNL     1      -6.611   2.247 125.660  0.00  0.00    +0.000 A 
ATOM     23  C   UNL     1      -6.941   3.430 124.984  0.00  0.00    +0.000 A 
ATOM     24  C   UNL     1      -7.778   4.333 125.639  0.00  0.00    +0.000 A 
ATOM     25  N   UNL     1      -8.276   4.143 126.885  0.00  0.00    +0.000 NA
BRANCH  23  26
ATOM     26  C   UNL     1      -6.491   3.667 123.616  0.00  0.00    +0.000 A 
ATOM     27  C   UNL     1      -5.266   4.307 123.349  0.00  0.00    +0.000 A 
ATOM     28  C   UNL     1      -4.884   4.581 122.035  0.00  0.00    +0.000 A 
ATOM     29  C   UNL     1      -5.714   4.209 120.979  0.00  0.00    +0.000 A 
ATOM     30  C   UNL     1      -6.924   3.566 121.230  0.00  0.00    +0.000 A 
ATOM     31  C   UNL     1      -7.325   3.291 122.540  0.00  0.00    +0.000 A 
ATOM     32  C   UNL     1      -8.660   2.636 122.789  0.00  0.00    +0.000 C 
ENDBRANCH  23  26
ENDBRANCH  19  20
ENDBRANCH   1  19
TORSDOF 7
ENDMDL
MODEL 3
REMARK VINA RESULT:      -8.5      2.952      4.454
REMARK  Name = CHEMBL515818
REMARK  9 active torsions:
REMARK  status: ('A' for Active; 'I' for Inactive)
REMARK    1  A    between atoms: C_1  and  O_2
REMARK    2  A    between atoms: O_2  and  C_3
REMARK    3  A    between atoms: C_6  and  N_7
REMARK    4  A    between atoms: N_7  and  C_8
REMARK    5  A    between atoms: N_7  and  S_22
REMARK    6  A    between atoms: C_8  and  C_9
REMARK    7  A    between atoms: C_12  and  C_13
REMARK    8  A    between atoms: C_18  and  C_19
REMARK    9  A    between atoms: S_22  and  C_25
REMARK                            x       y       z     vdW  Elec       q    Type
REMARK                         _______ _______ _______ _____ _____    ______ ____
ROOT
ATOM      1  N   UNL     1      -6.840   3.272 124.746  0.00  0.00    +0.000 N 
ENDROOT
BRANCH   1   5
ATOM      2  C   UNL     1      -6.897   3.968 120.530  0.00  0.00    +0.000 A 
ATOM      3  C   UNL     1      -5.685   4.081 121.196  0.00  0.00    +0.000 A 
ATOM      4  C   UNL     1      -5.622   3.864 122.593  0.00  0.00    +0.000 A 
ATOM      5  C   UNL     1      -6.757   3.490 123.295  0.00  0.00    +0.000 A 
ATOM      6  C   UNL     1      -7.827   3.243 122.446  0.00  0.00    +0.000 A 
ATOM      7  N   UNL     1      -7.983   3.532 121.138  0.00  0.00    +0.000 NA
BRANCH   2   9
ATOM      8  C   UNL     1      -8.506   4.317 118.911  0.00  0.00    +0.000 C 
ATOM      9  O   UNL     1      -7.132   4.299 119.236  0.00  0.00    +0.000 OA
ENDBRANCH   2   9
ENDBRANCH   1   5
BRANCH   1  10
ATOM     10  S   UNL     1      -6.519   4.606 125.812  0.00  0.00    +0.000 S 
ATOM     11  O   UNL     1      -6.528   5.785 124.973  0.00  0.00    +0.000 OA
ATOM     12  O   UNL     1      -7.473   4.484 126.910  0.00  0.00    +0.000 OA
BRANCH  10  13
ATOM     13  C   UNL     1      -4.850   4.540 126.563  0.00  0.00    +0.000 A 
ATOM     14  C   UNL     1      -3.885   3.601 126.250  0.00  0.00    +0.000 A 
ATOM     15  C   UNL     1      -2.653   3.606 126.882  0.00  0.00    +0.000 A 
ATOM     16  C   UNL     1      -2.370   4.613 127.775  0.00  0.00    +0.000 A 
ATOM     17  C   UNL     1      -3.354   5.560 128.013  0.00  0.00    +0.000 A 
ATOM     18  N   UNL     1      -4.591   5.545 127.445  0.00  0.00    +0.000 NA
ENDBRANCH  10  13
ENDBRANCH   1  10
BRANCH   1  19
ATOM     19  C   UNL     1      -7.339   1.999 125.335  0.00  0.00    +0.000 C 
BRANCH  19  20
ATOM     20  C   UNL     1      -6.513   1.073 126.206  0.00  0.00    +0.000 A 
ATOM     21  C   UNL     1      -5.994  -0.093 125.622  0.00  0.00    +0.000 A 
ATOM     22  C   UNL     1      -5.706  -1.166 126.450  0.00  0.00    +0.000 A 
ATOM     23  C   UNL     1      -5.901  -1.054 127.834  0.00  0.00    +0.000 A 
ATOM     24  C   UNL     1      -6.339   0.177 128.323  0.00  0.00    +0.000 A 
ATOM     25  N   UNL     1      -6.596   1.257 127.546  0.00  0.00    +0.000 NA
BRANCH  23  26
ATOM     26  C   UNL     1      -5.581  -2.158 128.734  0.00  0.00    +0.000 A 
ATOM     27  C   UNL     1      -4.251  -2.448 129.093  0.00  0.00    +0.000 A 
ATOM     28  C   UNL     1      -3.964  -3.546 129.904  0.00  0.00    +0.000 A 
ATOM     29  C   UNL     1      -4.998  -4.356 130.370  0.00  0.00    +0.000 A 
ATOM     30  C   UNL     1      -6.319  -4.074 130.029  0.00  0.00    +0.000 A 
ATOM     31  C   UNL     1      -6.624  -2.981 129.212  0.00  0.00    +0.000 A 
ATOM     32  C   UNL     1      -8.056  -2.722 128.819  0.00  0.00    +0.000 C 
ENDBRANCH  23  26
ENDBRANCH  19  20
ENDBRANCH   1  19
TORSDOF 7
ENDMDL
MODEL 4
REMARK VINA RESULT:      -8.4      7.209      9.314
REMARK  Name = CHEMBL515818
REMARK  9 active torsions:
REMARK  status: ('A' for Active; 'I' for Inactive)
REMARK    1  A    between atoms: C_1  and  O_2
REMARK    2  A    between atoms: O_2  and  C_3
REMARK    3  A    between atoms: C_6  and  N_7
REMARK    4  A    between atoms: N_7  and  C_8
REMARK    5  A    between atoms: N_7  and  S_22
REMARK    6  A    between atoms: C_8  and  C_9
REMARK    7  A    between atoms: C_12  and  C_13
REMARK    8  A    between atoms: C_18  and  C_19
REMARK    9  A    between atoms: S_22  and  C_25
REMARK                            x       y       z     vdW  Elec       q    Type
REMARK                         _______ _______ _______ _____ _____    ______ ____
ROOT
ATOM      1  N   UNL     1      -9.830   6.001 130.992  0.00  0.00    +0.000 N 
ENDROOT
BRANCH   1   5
ATOM      2  C   UNL     1     -12.442   8.819 129.120  0.00  0.00    +0.000 A 
ATOM      3  C   UNL     1     -11.259   8.490 128.471  0.00  0.00    +0.000 A 
ATOM      4  C   UNL     1     -10.363   7.566 129.059  0.00  0.00    +0.000 A 
ATOM      5  C   UNL     1     -10.682   6.947 130.257  0.00  0.00    +0.000 A 
ATOM      6  C   UNL     1     -11.975   7.250 130.662  0.00  0.00    +0.000 A 
ATOM      7  N   UNL     1     -12.827   8.194 130.215  0.00  0.00    +0.000 NA
BRANCH   2   9
ATOM      8  C   UNL     1     -13.475  10.785 129.749  0.00  0.00    +0.000 C 
ATOM      9  O   UNL     1     -13.308   9.796 128.755  0.00  0.00    +0.000 OA
ENDBRANCH   2   9
ENDBRANCH   1   5
BRANCH   1  10
ATOM     10  S   UNL     1      -9.853   4.325 130.534  0.00  0.00    +0.000 S 
ATOM     11  O   UNL     1      -9.653   3.585 131.761  0.00  0.00    +0.000 OA
ATOM     12  O   UNL     1     -11.074   4.135 129.757  0.00  0.00    +0.000 OA
BRANCH  10  13
ATOM     13  C   UNL     1      -8.460   3.861 129.439  0.00  0.00    +0.000 A 
ATOM     14  C   UNL     1      -7.390   3.073 129.821  0.00  0.00    +0.000 A 
ATOM     15  C   UNL     1      -6.363   2.787 128.937  0.00  0.00    +0.000 A 
ATOM     16  C   UNL     1      -6.461   3.235 127.641  0.00  0.00    +0.000 A 
ATOM     17  C   UNL     1      -7.581   3.976 127.295  0.00  0.00    +0.000 A 
ATOM     18  N   UNL     1      -8.576   4.316 128.160  0.00  0.00    +0.000 NA
ENDBRANCH  10  13
ENDBRANCH   1  10
BRANCH   1  19
ATOM     19  C   UNL     1      -8.834   6.445 132.005  0.00  0.00    +0.000 C 
BRANCH  19  20
ATOM     20  C   UNL     1      -7.343   6.189 131.913  0.00  0.00    +0.000 A 
ATOM     21  C   UNL     1      -6.702   5.618 133.024  0.00  0.00    +0.000 A 
ATOM     22  C   UNL     1      -5.343   5.844 133.182  0.00  0.00    +0.000 A 
ATOM     23  C   UNL     1      -4.644   6.596 132.228  0.00  0.00    +0.000 A 
ATOM     24  C   UNL     1      -5.356   7.047 131.117  0.00  0.00    +0.000 A 
ATOM     25  N   UNL     1      -6.676   6.814 130.913  0.00  0.00    +0.000 NA
BRANCH  23  26
ATOM     26  C   UNL     1      -3.208   6.829 132.355  0.00  0.00    +0.000 A 
ATOM     27  C   UNL     1      -2.707   7.992 132.969  0.00  0.00    +0.000 A 
ATOM     28  C   UNL     1      -1.332   8.224 133.023  0.00  0.00    +0.000 A 
ATOM     29  C   UNL     1      -0.449   7.295 132.477  0.00  0.00    +0.000 A 
ATOM     30  C   UNL     1      -0.932   6.135 131.876  0.00  0.00    +0.000 A 
ATOM     31  C   UNL     1      -2.307   5.891 131.807  0.00  0.00    +0.000 A 
ATOM     32  C   UNL     1      -2.809   4.651 131.110  0.00  0.00    +0.000 C 
ENDBRANCH  23  26
ENDBRANCH  19  20
ENDBRANCH   1  19
TORSDOF 7
ENDMDL
MODEL 5
REMARK VINA RESULT:      -8.3      3.449      7.797
REMARK  Name = CHEMBL515818
REMARK  9 active torsions:
REMARK  status: ('A' for Active; 'I' for Inactive)
REMARK    1  A    between atoms: C_1  and  O_2
REMARK    2  A    between atoms: O_2  and  C_3
REMARK    3  A    between atoms: C_6  and  N_7
REMARK    4  A    between atoms: N_7  and  C_8
REMARK    5  A    between atoms: N_7  and  S_22
REMARK    6  A    between atoms: C_8  and  C_9
REMARK    7  A    between atoms: C_12  and  C_13
REMARK    8  A    between atoms: C_18  and  C_19
REMARK    9  A    between atoms: S_22  and  C_25
REMARK                            x       y       z     vdW  Elec       q    Type
REMARK                         _______ _______ _______ _____ _____    ______ ____
ROOT
ATOM      1  N   UNL     1      -6.439   0.527 127.494  0.00  0.00    +0.000 N 
ENDROOT
BRANCH   1   5
ATOM      2  C   UNL     1      -8.604   3.006 130.221  0.00  0.00    +0.000 A 
ATOM      3  C   UNL     1      -7.279   2.712 130.512  0.00  0.00    +0.000 A 
ATOM      4  C   UNL     1      -6.528   1.891 129.639  0.00  0.00    +0.000 A 
ATOM      5  C   UNL     1      -7.091   1.416 128.466  0.00  0.00    +0.000 A 
ATOM      6  C   UNL     1      -8.350   1.958 128.246  0.00  0.00    +0.000 A 
ATOM      7  N   UNL     1      -9.156   2.649 129.078  0.00  0.00    +0.000 NA
BRANCH   2   9
ATOM      8  C   UNL     1     -10.822   3.510 130.616  0.00  0.00    +0.000 C 
ATOM      9  O   UNL     1      -9.480   3.641 131.037  0.00  0.00    +0.000 OA
ENDBRANCH   2   9
ENDBRANCH   1   5
BRANCH   1  10
ATOM     10  S   UNL     1      -6.515  -1.190 127.749  0.00  0.00    +0.000 S 
ATOM     11  O   UNL     1      -5.140  -1.636 127.805  0.00  0.00    +0.000 OA
ATOM     12  O   UNL     1      -7.395  -1.390 128.896  0.00  0.00    +0.000 OA
BRANCH  10  13
ATOM     13  C   UNL     1      -7.275  -2.091 126.347  0.00  0.00    +0.000 A 
ATOM     14  C   UNL     1      -8.631  -2.320 126.203  0.00  0.00    +0.000 A 
ATOM     15  C   UNL     1      -9.124  -3.033 125.124  0.00  0.00    +0.000 A 
ATOM     16  C   UNL     1      -8.249  -3.445 124.147  0.00  0.00    +0.000 A 
ATOM     17  C   UNL     1      -6.906  -3.143 124.313  0.00  0.00    +0.000 A 
ATOM     18  N   UNL     1      -6.391  -2.492 125.392  0.00  0.00    +0.000 NA
ENDBRANCH  10  13
ENDBRANCH   1  10
BRANCH   1  19
ATOM     19  C   UNL     1      -5.852   1.028 126.221  0.00  0.00    +0.000 C 
BRANCH  19  20
ATOM     20  C   UNL     1      -6.649   1.670 125.102  0.00  0.00    +0.000 A 
ATOM     21  C   UNL     1      -7.122   0.842 124.072  0.00  0.00    +0.000 A 
ATOM     22  C   UNL     1      -7.375   1.417 122.836  0.00  0.00    +0.000 A 
ATOM     23  C   UNL     1      -7.190   2.795 122.655  0.00  0.00    +0.000 A 
ATOM     24  C   UNL     1      -6.800   3.543 123.766  0.00  0.00    +0.000 A 
ATOM     25  N   UNL     1      -6.578   3.019 124.996  0.00  0.00    +0.000 NA
BRANCH  23  26
ATOM     26  C   UNL     1      -7.474   3.433 121.373  0.00  0.00    +0.000 A 
ATOM     27  C   UNL     1      -8.792   3.565 120.897  0.00  0.00    +0.000 A 
ATOM     28  C   UNL     1      -9.035   4.121 119.640  0.00  0.00    +0.000 A 
ATOM     29  C   UNL     1      -7.970   4.558 118.856  0.00  0.00    +0.000 A 
ATOM     30  C   UNL     1      -6.662   4.442 119.320  0.00  0.00    +0.000 A 
ATOM     31  C   UNL     1      -6.400   3.881 120.573  0.00  0.00    +0.000 A 
ATOM     32  C   UNL     1      -4.974   3.723 121.035  0.00  0.00    +0.000 C 
ENDBRANCH  23  26
ENDBRANCH  19  20
ENDBRANCH   1  19
TORSDOF 7
ENDMDL
MODEL 6
REMARK VINA RESULT:      -8.2      4.715      7.857
REMARK  Name = CHEMBL515818
REMARK  9 active torsions:
REMARK  status: ('A' for Active; 'I' for Inactive)
REMARK    1  A    between atoms: C_1  and  O_2
REMARK    2  A    between atoms: O_2  and  C_3
REMARK    3  A    between atoms: C_6  and  N_7
REMARK    4  A    between atoms: N_7  and  C_8
REMARK    5  A    between atoms: N_7  and  S_22
REMARK    6  A    between atoms: C_8  and  C_9
REMARK    7  A    between atoms: C_12  and  C_13
REMARK    8  A    between atoms: C_18  and  C_19
REMARK    9  A    between atoms: S_22  and  C_25
REMARK                            x       y       z     vdW  Elec       q    Type
REMARK                         _______ _______ _______ _____ _____    ______ ____
ROOT
ATOM      1  N   UNL     1      -7.942   1.869 130.916  0.00  0.00    +0.000 N 
ENDROOT
BRANCH   1   5
ATOM      2  C   UNL     1     -10.252   5.343 131.845  0.00  0.00    +0.000 A 
ATOM      3  C   UNL     1     -10.624   4.584 130.744  0.00  0.00    +0.000 A 
ATOM      4  C   UNL     1      -9.882   3.429 130.398  0.00  0.00    +0.000 A 
ATOM      5  C   UNL     1      -8.815   3.021 131.181  0.00  0.00    +0.000 A 
ATOM      6  C   UNL     1      -8.705   3.784 132.336  0.00  0.00    +0.000 A 
ATOM      7  N   UNL     1      -9.299   4.949 132.667  0.00  0.00    +0.000 NA
BRANCH   2   9
ATOM      8  C   UNL     1     -12.000   6.825 131.567  0.00  0.00    +0.000 C 
ATOM      9  O   UNL     1     -10.767   6.546 132.196  0.00  0.00    +0.000 OA
ENDBRANCH   2   9
ENDBRANCH   1   5
BRANCH   1  10
ATOM     10  S   UNL     1      -8.233   0.385 131.771  0.00  0.00    +0.000 S 
ATOM     11  O   UNL     1      -7.500   0.501 133.013  0.00  0.00    +0.000 OA
ATOM     12  O   UNL     1      -9.682   0.208 131.792  0.00  0.00    +0.000 OA
BRANCH  10  13
ATOM     13  C   UNL     1      -7.541  -1.082 130.919  0.00  0.00    +0.000 A 
ATOM     14  C   UNL     1      -8.243  -1.879 130.034  0.00  0.00    +0.000 A 
ATOM     15  C   UNL     1      -7.653  -2.987 129.450  0.00  0.00    +0.000 A 
ATOM     16  C   UNL     1      -6.325  -3.241 129.702  0.00  0.00    +0.000 A 
ATOM     17  C   UNL     1      -5.653  -2.379 130.555  0.00  0.00    +0.000 A 
ATOM     18  N   UNL     1      -6.226  -1.316 131.184  0.00  0.00    +0.000 NA
ENDBRANCH  10  13
ENDBRANCH   1  10
BRANCH   1  19
ATOM     19  C   UNL     1      -6.920   1.873 129.834  0.00  0.00    +0.000 C 
BRANCH  19  20
ATOM     20  C   UNL     1      -7.154   1.355 128.429  0.00  0.00    +0.000 A 
ATOM     21  C   UNL     1      -8.411   1.579 127.845  0.00  0.00    +0.000 A 
ATOM     22  C   UNL     1      -8.828   0.717 126.842  0.00  0.00    +0.000 A 
ATOM     23  C   UNL     1      -7.985  -0.319 126.416  0.00  0.00    +0.000 A 
ATOM     24  C   UNL     1      -6.722  -0.403 127.000  0.00  0.00    +0.000 A 
ATOM     25  N   UNL     1      -6.269   0.444 127.958  0.00  0.00    +0.000 NA
BRANCH  23  26
ATOM     26  C   UNL     1      -8.387  -1.226 125.344  0.00  0.00    +0.000 A 
ATOM     27  C   UNL     1      -9.042  -2.441 125.620  0.00  0.00    +0.000 A 
ATOM     28  C   UNL     1      -9.360  -3.321 124.585  0.00  0.00    +0.000 A 
ATOM     29  C   UNL     1      -9.038  -2.993 123.270  0.00  0.00    +0.000 A 
ATOM     30  C   UNL     1      -8.399  -1.789 122.983  0.00  0.00    +0.000 A 
ATOM     31  C   UNL     1      -8.067  -0.899 124.008  0.00  0.00    +0.000 A 
ATOM     32  C   UNL     1      -7.333   0.377 123.679  0.00  0.00    +0.000 C 
ENDBRANCH  23  26
ENDBRANCH  19  20
ENDBRANCH   1  19
TORSDOF 7
ENDMDL
MODEL 7
REMARK VINA RESULT:      -8.2      3.027      4.223
REMARK  Name = CHEMBL515818
REMARK  9 active torsions:
REMARK  status: ('A' for Active; 'I' for Inactive)
REMARK    1  A    between atoms: C_1  and  O_2
REMARK    2  A    between atoms: O_2  and  C_3
REMARK    3  A    between atoms: C_6  and  N_7
REMARK    4  A    between atoms: N_7  and  C_8
REMARK    5  A    between atoms: N_7  and  S_22
REMARK    6  A    between atoms: C_8  and  C_9
REMARK    7  A    between atoms: C_12  and  C_13
REMARK    8  A    between atoms: C_18  and  C_19
REMARK    9  A    between atoms: S_22  and  C_25
REMARK                            x       y       z     vdW  Elec       q    Type
REMARK                         _______ _______ _______ _____ _____    ______ ____
ROOT
ATOM      1  N   UNL     1      -8.545   1.847 123.980  0.00  0.00    +0.000 N 
ENDROOT
BRANCH   1   5
ATOM      2  C   UNL     1      -6.974   3.838 120.541  0.00  0.00    +0.000 A 
ATOM      3  C   UNL     1      -6.106   3.075 121.310  0.00  0.00    +0.000 A 
ATOM      4  C   UNL     1      -6.584   2.404 122.460  0.00  0.00    +0.000 A 
ATOM      5  C   UNL     1      -7.926   2.462 122.798  0.00  0.00    +0.000 A 
ATOM      6  C   UNL     1      -8.673   3.108 121.822  0.00  0.00    +0.000 A 
ATOM      7  N   UNL     1      -8.272   3.854 120.773  0.00  0.00    +0.000 NA
BRANCH   2   9
ATOM      8  C   UNL     1      -5.379   5.286 119.711  0.00  0.00    +0.000 C 
ATOM      9  O   UNL     1      -6.626   4.654 119.515  0.00  0.00    +0.000 OA
ENDBRANCH   2   9
ENDBRANCH   1   5
BRANCH   1  10
ATOM     10  S   UNL     1      -8.948   0.158 123.930  0.00  0.00    +0.000 S 
ATOM     11  O   UNL     1      -9.614  -0.121 125.184  0.00  0.00    +0.000 OA
ATOM     12  O   UNL     1      -9.651  -0.053 122.668  0.00  0.00    +0.000 OA
BRANCH  10  13
ATOM     13  C   UNL     1      -7.476  -0.931 123.894  0.00  0.00    +0.000 A 
ATOM     14  C   UNL     1      -6.878  -1.405 122.741  0.00  0.00    +0.000 A 
ATOM     15  C   UNL     1      -5.779  -2.246 122.800  0.00  0.00    +0.000 A 
ATOM     16  C   UNL     1      -5.238  -2.543 124.029  0.00  0.00    +0.000 A 
ATOM     17  C   UNL     1      -5.844  -1.998 125.151  0.00  0.00    +0.000 A 
ATOM     18  N   UNL     1      -6.957  -1.214 125.121  0.00  0.00    +0.000 NA
ENDBRANCH  10  13
ENDBRANCH   1  10
BRANCH   1  19
ATOM     19  C   UNL     1      -8.696   2.572 125.272  0.00  0.00    +0.000 C 
BRANCH  19  20
ATOM     20  C   UNL     1      -7.564   2.845 126.242  0.00  0.00    +0.000 A 
ATOM     21  C   UNL     1      -7.849   3.596 127.393  0.00  0.00    +0.000 A 
ATOM     22  C   UNL     1      -6.808   4.283 127.999  0.00  0.00    +0.000 A 
ATOM     23  C   UNL     1      -5.510   4.184 127.480  0.00  0.00    +0.000 A 
ATOM     24  C   UNL     1      -5.317   3.343 126.384  0.00  0.00    +0.000 A 
ATOM     25  N   UNL     1      -6.305   2.630 125.789  0.00  0.00    +0.000 NA
BRANCH  23  26
ATOM     26  C   UNL     1      -4.390   4.875 128.112  0.00  0.00    +0.000 A 
ATOM     27  C   UNL     1      -3.922   6.110 127.625  0.00  0.00    +0.000 A 
ATOM     28  C   UNL     1      -2.811   6.722 128.206  0.00  0.00    +0.000 A 
ATOM     29  C   UNL     1      -2.165   6.114 129.280  0.00  0.00    +0.000 A 
ATOM     30  C   UNL     1      -2.624   4.896 129.778  0.00  0.00    +0.000 A 
ATOM     31  C   UNL     1      -3.732   4.266 129.203  0.00  0.00    +0.000 A 
ATOM     32  C   UNL     1      -4.183   2.927 129.728  0.00  0.00    +0.000 C 
ENDBRANCH  23  26
ENDBRANCH  19  20
ENDBRANCH   1  19
TORSDOF 7
ENDMDL
MODEL 8
REMARK VINA RESULT:      -8.1      6.037      8.005
REMARK  Name = CHEMBL515818
REMARK  9 active torsions:
REMARK  status: ('A' for Active; 'I' for Inactive)
REMARK    1  A    between atoms: C_1  and  O_2
REMARK    2  A    between atoms: O_2  and  C_3
REMARK    3  A    between atoms: C_6  and  N_7
REMARK    4  A    between atoms: N_7  and  C_8
REMARK    5  A    between atoms: N_7  and  S_22
REMARK    6  A    between atoms: C_8  and  C_9
REMARK    7  A    between atoms: C_12  and  C_13
REMARK    8  A    between atoms: C_18  and  C_19
REMARK    9  A    between atoms: S_22  and  C_25
REMARK                            x       y       z     vdW  Elec       q    Type
REMARK                         _______ _______ _______ _____ _____    ______ ____
ROOT
ATOM      1  N   UNL     1      -8.290   4.970 130.514  0.00  0.00    +0.000 N 
ENDROOT
BRANCH   1   5
ATOM      2  C   UNL     1      -4.211   4.229 129.478  0.00  0.00    +0.000 A 
ATOM      3  C   UNL     1      -4.604   4.008 130.791  0.00  0.00    +0.000 A 
ATOM      4  C   UNL     1      -5.944   4.246 131.177  0.00  0.00    +0.000 A 
ATOM      5  C   UNL     1      -6.881   4.652 130.241  0.00  0.00    +0.000 A 
ATOM      6  C   UNL     1      -6.360   4.640 128.955  0.00  0.00    +0.000 A 
ATOM      7  N   UNL     1      -5.082   4.532 128.536  0.00  0.00    +0.000 NA
BRANCH   2   9
ATOM      8  C   UNL     1      -2.556   5.392 128.365  0.00  0.00    +0.000 C 
ATOM      9  O   UNL     1      -2.940   4.195 129.009  0.00  0.00    +0.000 OA
ENDBRANCH   2   9
ENDBRANCH   1   5
BRANCH   1  10
ATOM     10  S   UNL     1      -8.706   6.590 130.984  0.00  0.00    +0.000 S 
ATOM     11  O   UNL     1      -9.165   6.493 132.352  0.00  0.00    +0.000 OA
ATOM     12  O   UNL     1      -7.546   7.416 130.660  0.00  0.00    +0.000 OA
BRANCH  10  13
ATOM     13  C   UNL     1     -10.114   7.275 130.033  0.00  0.00    +0.000 A 
ATOM     14  C   UNL     1     -11.435   7.218 130.435  0.00  0.00    +0.000 A 
ATOM     15  C   UNL     1     -12.445   7.739 129.645  0.00  0.00    +0.000 A 
ATOM     16  C   UNL     1     -12.107   8.391 128.482  0.00  0.00    +0.000 A 
ATOM     17  C   UNL     1     -10.763   8.467 128.152  0.00  0.00    +0.000 A 
ATOM     18  N   UNL     1      -9.757   7.915 128.884  0.00  0.00    +0.000 NA
ENDBRANCH  10  13
ENDBRANCH   1  10
BRANCH   1  19
ATOM     19  C   UNL     1      -9.392   4.005 130.252  0.00  0.00    +0.000 C 
BRANCH  19  20
ATOM     20  C   UNL     1      -9.208   2.507 130.112  0.00  0.00    +0.000 A 
ATOM     21  C   UNL     1      -9.192   1.732 131.282  0.00  0.00    +0.000 A 
ATOM     22  C   UNL     1      -8.534   0.512 131.249  0.00  0.00    +0.000 A 
ATOM     23  C   UNL     1      -7.940   0.070 130.059  0.00  0.00    +0.000 A 
ATOM     24  C   UNL     1      -8.086   0.875 128.930  0.00  0.00    +0.000 A 
ATOM     25  N   UNL     1      -8.753   2.056 128.918  0.00  0.00    +0.000 NA
BRANCH  23  26
ATOM     26  C   UNL     1      -7.263  -1.222 129.987  0.00  0.00    +0.000 A 
ATOM     27  C   UNL     1      -7.965  -2.399 129.668  0.00  0.00    +0.000 A 
ATOM     28  C   UNL     1      -7.311  -3.632 129.667  0.00  0.00    +0.000 A 
ATOM     29  C   UNL     1      -5.953  -3.698 129.972  0.00  0.00    +0.000 A 
ATOM     30  C   UNL     1      -5.245  -2.538 130.281  0.00  0.00    +0.000 A 
ATOM     31  C   UNL     1      -5.886  -1.297 130.293  0.00  0.00    +0.000 A 
ATOM     32  C   UNL     1      -5.111  -0.061 130.675  0.00  0.00    +0.000 C 
ENDBRANCH  23  26
ENDBRANCH  19  20
ENDBRANCH   1  19
TORSDOF 7
ENDMDL
MODEL 9
REMARK VINA RESULT:      -8.1      8.289     10.888
REMARK  Name = CHEMBL515818
REMARK  9 active torsions:
REMARK  status: ('A' for Active; 'I' for Inactive)
REMARK    1  A    between atoms: C_1  and  O_2
REMARK    2  A    between atoms: O_2  and  C_3
REMARK    3  A    between atoms: C_6  and  N_7
REMARK    4  A    between atoms: N_7  and  C_8
REMARK    5  A    between atoms: N_7  and  S_22
REMARK    6  A    between atoms: C_8  and  C_9
REMARK    7  A    between atoms: C_12  and  C_13
REMARK    8  A    between atoms: C_18  and  C_19
REMARK    9  A    between atoms: S_22  and  C_25
REMARK                            x       y       z     vdW  Elec       q    Type
REMARK                         _______ _______ _______ _____ _____    ______ ____
ROOT
ATOM      1  N   UNL     1      -4.301   4.633 131.986  0.00  0.00    +0.000 N 
ENDROOT
BRANCH   1   5
ATOM      2  C   UNL     1      -1.219   7.517 132.651  0.00  0.00    +0.000 A 
ATOM      3  C   UNL     1      -0.847   6.241 132.252  0.00  0.00    +0.000 A 
ATOM      4  C   UNL     1      -1.836   5.254 132.026  0.00  0.00    +0.000 A 
ATOM      5  C   UNL     1      -3.179   5.567 132.153  0.00  0.00    +0.000 A 
ATOM      6  C   UNL     1      -3.371   6.924 132.372  0.00  0.00    +0.000 A 
ATOM      7  N   UNL     1      -2.484   7.885 132.702  0.00  0.00    +0.000 NA
BRANCH   2   9
ATOM      8  C   UNL     1      -1.040   9.736 133.264  0.00  0.00    +0.000 C 
ATOM      9  O   UNL     1      -0.381   8.505 133.052  0.00  0.00    +0.000 OA
ENDBRANCH   2   9
ENDBRANCH   1   5
BRANCH   1  10
ATOM     10  S   UNL     1      -4.881   3.766 133.375  0.00  0.00    +0.000 S 
ATOM     11  O   UNL     1      -4.292   2.447 133.285  0.00  0.00    +0.000 OA
ATOM     12  O   UNL     1      -4.598   4.614 134.529  0.00  0.00    +0.000 OA
BRANCH  10  13
ATOM     13  C   UNL     1      -6.695   3.505 133.353  0.00  0.00    +0.000 A 
ATOM     14  C   UNL     1      -7.618   4.363 133.919  0.00  0.00    +0.000 A 
ATOM     15  C   UNL     1      -8.973   4.081 133.881  0.00  0.00    +0.000 A 
ATOM     16  C   UNL     1      -9.398   2.965 133.197  0.00  0.00    +0.000 A 
ATOM     17  C   UNL     1      -8.434   2.166 132.602  0.00  0.00    +0.000 A 
ATOM     18  N   UNL     1      -7.094   2.394 132.673  0.00  0.00    +0.000 NA
ENDBRANCH  10  13
ENDBRANCH   1  10
BRANCH   1  19
ATOM     19  C   UNL     1      -5.061   4.517 130.711  0.00  0.00    +0.000 C 
BRANCH  19  20
ATOM     20  C   UNL     1      -6.329   5.284 130.394  0.00  0.00    +0.000 A 
ATOM     21  C   UNL     1      -6.509   6.539 130.998  0.00  0.00    +0.000 A 
ATOM     22  C   UNL     1      -7.804   7.009 131.154  0.00  0.00    +0.000 A 
ATOM     23  C   UNL     1      -8.884   6.252 130.681  0.00  0.00    +0.000 A 
ATOM     24  C   UNL     1      -8.593   5.059 130.019  0.00  0.00    +0.000 A 
ATOM     25  N   UNL     1      -7.338   4.587 129.818  0.00  0.00    +0.000 NA
BRANCH  23  26
ATOM     26  C   UNL     1     -10.257   6.734 130.808  0.00  0.00    +0.000 A 
ATOM     27  C   UNL     1     -11.060   6.376 131.907  0.00  0.00    +0.000 A 
ATOM     28  C   UNL     1     -12.389   6.797 131.976  0.00  0.00    +0.000 A 
ATOM     29  C   UNL     1     -12.922   7.584 130.958  0.00  0.00    +0.000 A 
ATOM     30  C   UNL     1     -12.134   7.954 129.870  0.00  0.00    +0.000 A 
ATOM     31  C   UNL     1     -10.803   7.535 129.782  0.00  0.00    +0.000 A 
ATOM     32  C   UNL     1      -9.984   7.908 128.572  0.00  0.00    +0.000 C 
ENDBRANCH  23  26
ENDBRANCH  19  20
ENDBRANCH   1  19
TORSDOF 7
ENDMDL
