MODEL 1
REMARK VINA RESULT:     -10.5      0.000      0.000
REMARK  Name = CHEMBL65949
REMARK  10 active torsions:
REMARK  status: ('A' for Active; 'I' for Inactive)
REMARK    1  A    between atoms: C_1  and  O_2
REMARK    2  A    between atoms: O_2  and  C_3
REMARK    3  A    between atoms: C_5  and  O_6
REMARK    4  A    between atoms: O_6  and  C_7
REMARK    5  A    between atoms: N_10  and  C_11
REMARK    6  A    between atoms: C_11  and  C_12
REMARK    7  A    between atoms: C_15  and  C_16
REMARK    8  A    between atoms: C_19  and  C_20
REMARK    9  A    between atoms: C_25  and  C_26
REMARK   10  A    between atoms: C_31  and  N_32
REMARK                            x       y       z     vdW  Elec       q    Type
REMARK                         _______ _______ _______ _____ _____    ______ ____
ROOT
ATOM      1  C   UNL     1      -5.802   2.586 129.708  0.00  0.00    +0.000 A 
ATOM      2  C   UNL     1      -6.133   2.176 131.051  0.00  0.00    +0.000 A 
ATOM      3  C   UNL     1      -6.285   3.094 132.028  0.00  0.00    +0.000 A 
ATOM      4  C   UNL     1      -5.898   4.295 131.543  0.00  0.00    +0.000 A 
ATOM      5  C   UNL     1      -5.601   4.796 130.294  0.00  0.00    +0.000 A 
ATOM      6  C   UNL     1      -5.560   3.923 129.287  0.00  0.00    +0.000 A 
ENDROOT
BRANCH   6   7
ATOM      7  C   UNL     1      -5.161   4.607 127.996  0.00  0.00    +0.000 C 
ATOM      8  O   UNL     1      -4.119   5.272 127.960  0.00  0.00    +0.000 OA
ATOM      9  N   UNL     1      -5.910   4.374 126.838  0.00  0.00    +0.000 N 
ATOM     10  C   UNL     1      -5.264   3.539 125.778  0.00  0.00    +0.000 C 
ATOM     11  C   UNL     1      -5.740   3.913 124.414  0.00  0.00    +0.000 C 
ATOM     12  C   UNL     1      -7.399   3.294 124.215  0.00  0.00    +0.000 C 
ATOM     13  C   UNL     1      -7.925   4.567 125.479  0.00  0.00    +0.000 C 
ATOM     14  C   UNL     1      -7.381   4.376 126.871  0.00  0.00    +0.000 C 
BRANCH  12  15
ATOM     15  N   UNL     1      -7.466   1.546 123.540  0.00  0.00    +0.000 N 
ATOM     16  C   UNL     1      -8.667   2.039 122.988  0.00  0.00    +0.000 C 
ATOM     17  O   UNL     1      -8.749   2.983 122.152  0.00  0.00    +0.000 OA
ATOM     18  O   UNL     1      -9.778   1.597 123.547  0.00  0.00    +0.000 OA
ATOM     19  C   UNL     1      -9.870   0.468 122.774  0.00  0.00    +0.000 C 
ATOM     20  C   UNL     1      -9.247  -0.501 123.696  0.00  0.00    +0.000 A 
ATOM     21  C   UNL     1      -8.999  -1.224 124.877  0.00  0.00    +0.000 A 
ATOM     22  C   UNL     1      -8.600  -2.624 124.831  0.00  0.00    +0.000 A 
ATOM     23  C   UNL     1      -8.484  -3.070 123.579  0.00  0.00    +0.000 A 
ATOM     24  C   UNL     1      -8.043  -1.847 122.745  0.00  0.00    +0.000 A 
ATOM     25  C   UNL     1      -8.040  -0.297 123.389  0.00  0.00    +0.000 A 
ENDBRANCH  12  15
ENDBRANCH   6   7
BRANCH   1  27
ATOM     26  C   UNL     1      -4.931   0.522 129.418  0.00  0.00    +0.000 C 
ATOM     27  O   UNL     1      -5.808   1.487 128.903  0.00  0.00    +0.000 OA
ENDBRANCH   1  27
BRANCH   3  28
ATOM     28  O   UNL     1      -6.782   2.865 133.272  0.00  0.00    +0.000 OA
BRANCH  28  29
ATOM     29  C   UNL     1      -8.187   3.080 133.691  0.00  0.00    +0.000 C 
ATOM     30  C   UNL     1      -9.305   2.923 132.621  0.00  0.00    +0.000 C 
ATOM     31  C   UNL     1      -9.419   4.067 131.613  0.00  0.00    +0.000 C 
ATOM     32  N   UNL     1      -9.474   5.382 132.328  0.00  0.00    +0.000 NA
ATOM     33  C   UNL     1      -8.625   5.475 133.531  0.00  0.00    +0.000 C 
ATOM     34  C   UNL     1      -8.405   4.353 134.483  0.00  0.00    +0.000 C 
BRANCH  32  35
ATOM     35  C   UNL     1      -9.190   6.545 131.443  0.00  0.00    +0.000 C 
BRANCH  35  36
ATOM     36  C   UNL     1     -10.152   6.785 130.297  0.00  0.00    +0.000 A 
ATOM     37  C   UNL     1      -9.526   6.831 129.056  0.00  0.00    +0.000 A 
ATOM     38  C   UNL     1     -10.292   6.708 127.929  0.00  0.00    +0.000 A 
ATOM     39  C   UNL     1     -11.650   6.996 128.003  0.00  0.00    +0.000 A 
ATOM     40  C   UNL     1     -12.460   7.241 126.783  0.00  0.00    +0.000 C 
ATOM     41  N   UNL     1     -12.292   7.182 129.220  0.00  0.00    +0.000 N 
ATOM     42  O   UNL     1     -13.529   7.495 129.246  0.00  0.00    +0.000 OA
ATOM     43  C   UNL     1     -11.578   6.999 130.391  0.00  0.00    +0.000 A 
ATOM     44  C   UNL     1     -12.456   7.075 131.619  0.00  0.00    +0.000 C 
ENDBRANCH  35  36
ENDBRANCH  32  35
ENDBRANCH  28  29
ENDBRANCH   3  28
TORSDOF 7
ENDMDL
MODEL 2
REMARK VINA RESULT:     -10.4      2.434      8.330
REMARK  Name = CHEMBL65949
REMARK  10 active torsions:
REMARK  status: ('A' for Active; 'I' for Inactive)
REMARK    1  A    between atoms: C_1  and  O_2
REMARK    2  A    between atoms: O_2  and  C_3
REMARK    3  A    between atoms: C_5  and  O_6
REMARK    4  A    between atoms: O_6  and  C_7
REMARK    5  A    between atoms: N_10  and  C_11
REMARK    6  A    between atoms: C_11  and  C_12
REMARK    7  A    between atoms: C_15  and  C_16
REMARK    8  A    between atoms: C_19  and  C_20
REMARK    9  A    between atoms: C_25  and  C_26
REMARK   10  A    between atoms: C_31  and  N_32
REMARK                            x       y       z     vdW  Elec       q    Type
REMARK                         _______ _______ _______ _____ _____    ______ ____
ROOT
ATOM      1  C   UNL     1      -4.982   1.141 129.528  0.00  0.00    +0.000 A 
ATOM      2  C   UNL     1      -5.361   0.247 128.461  0.00  0.00    +0.000 A 
ATOM      3  C   UNL     1      -5.308   0.656 127.176  0.00  0.00    +0.000 A 
ATOM      4  C   UNL     1      -5.050   1.983 127.164  0.00  0.00    +0.000 A 
ATOM      5  C   UNL     1      -4.649   2.909 128.103  0.00  0.00    +0.000 A 
ATOM      6  C   UNL     1      -4.580   2.496 129.369  0.00  0.00    +0.000 A 
ENDROOT
BRANCH   6   7
ATOM      7  C   UNL     1      -4.189   3.634 130.288  0.00  0.00    +0.000 C 
ATOM      8  O   UNL     1      -3.000   3.968 130.366  0.00  0.00    +0.000 OA
ATOM      9  N   UNL     1      -5.189   4.365 130.936  0.00  0.00    +0.000 N 
ATOM     10  C   UNL     1      -5.419   5.762 130.452  0.00  0.00    +0.000 C 
ATOM     11  C   UNL     1      -5.908   6.652 131.547  0.00  0.00    +0.000 C 
ATOM     12  C   UNL     1      -7.610   6.241 131.878  0.00  0.00    +0.000 C 
ATOM     13  C   UNL     1      -6.986   4.618 132.565  0.00  0.00    +0.000 C 
ATOM     14  C   UNL     1      -6.333   3.692 131.573  0.00  0.00    +0.000 C 
BRANCH  12  15
ATOM     15  N   UNL     1      -8.828   7.202 130.825  0.00  0.00    +0.000 N 
ATOM     16  C   UNL     1      -9.743   6.408 131.547  0.00  0.00    +0.000 C 
ATOM     17  O   UNL     1      -9.909   6.447 132.799  0.00  0.00    +0.000 OA
ATOM     18  O   UNL     1     -10.314   5.430 130.868  0.00  0.00    +0.000 OA
ATOM     19  C   UNL     1     -11.341   6.197 130.380  0.00  0.00    +0.000 C 
ATOM     20  C   UNL     1     -10.779   6.530 129.057  0.00  0.00    +0.000 A 
ATOM     21  C   UNL     1     -10.196   6.349 127.790  0.00  0.00    +0.000 A 
ATOM     22  C   UNL     1     -10.568   7.195 126.664  0.00  0.00    +0.000 A 
ATOM     23  C   UNL     1     -11.463   8.123 127.009  0.00  0.00    +0.000 A 
ATOM     24  C   UNL     1     -11.164   8.453 128.489  0.00  0.00    +0.000 A 
ATOM     25  C   UNL     1     -10.092   7.533 129.397  0.00  0.00    +0.000 A 
ENDBRANCH  12  15
ENDBRANCH   6   7
BRANCH   1  27
ATOM     26  C   UNL     1      -6.090  -0.457 130.677  0.00  0.00    +0.000 C 
ATOM     27  O   UNL     1      -5.028   0.457 130.705  0.00  0.00    +0.000 OA
ENDBRANCH   1  27
BRANCH   3  28
ATOM     28  O   UNL     1      -5.445  -0.133 126.077  0.00  0.00    +0.000 OA
BRANCH  28  29
ATOM     29  C   UNL     1      -6.727  -0.635 125.531  0.00  0.00    +0.000 C 
ATOM     30  C   UNL     1      -6.917  -0.641 123.988  0.00  0.00    +0.000 C 
ATOM     31  C   UNL     1      -7.166   0.726 123.348  0.00  0.00    +0.000 C 
ATOM     32  N   UNL     1      -8.267   1.441 124.070  0.00  0.00    +0.000 NA
ATOM     33  C   UNL     1      -8.288   1.241 125.531  0.00  0.00    +0.000 C 
ATOM     34  C   UNL     1      -7.953  -0.046 126.200  0.00  0.00    +0.000 C 
BRANCH  32  35
ATOM     35  C   UNL     1      -8.309   2.901 123.780  0.00  0.00    +0.000 C 
BRANCH  35  36
ATOM     36  C   UNL     1      -7.913   3.334 122.382  0.00  0.00    +0.000 A 
ATOM     37  C   UNL     1      -8.930   3.165 121.448  0.00  0.00    +0.000 A 
ATOM     38  C   UNL     1      -8.829   3.810 120.245  0.00  0.00    +0.000 A 
ATOM     39  C   UNL     1      -7.576   4.220 119.803  0.00  0.00    +0.000 A 
ATOM     40  C   UNL     1      -7.333   4.584 118.385  0.00  0.00    +0.000 C 
ATOM     41  N   UNL     1      -6.466   4.200 120.636  0.00  0.00    +0.000 N 
ATOM     42  O   UNL     1      -5.322   4.536 120.180  0.00  0.00    +0.000 OA
ATOM     43  C   UNL     1      -6.626   3.838 121.961  0.00  0.00    +0.000 A 
ATOM     44  C   UNL     1      -5.362   4.027 122.768  0.00  0.00    +0.000 C 
ENDBRANCH  35  36
ENDBRANCH  32  35
ENDBRANCH  28  29
ENDBRANCH   3  28
TORSDOF 7
ENDMDL
MODEL 3
REMARK VINA RESULT:     -10.4      2.968      9.204
REMARK  Name = CHEMBL65949
REMARK  10 active torsions:
REMARK  status: ('A' for Active; 'I' for Inactive)
REMARK    1  A    between atoms: C_1  and  O_2
REMARK    2  A    between atoms: O_2  and  C_3
REMARK    3  A    between atoms: C_5  and  O_6
REMARK    4  A    between atoms: O_6  and  C_7
REMARK    5  A    between atoms: N_10  and  C_11
REMARK    6  A    between atoms: C_11  and  C_12
REMARK    7  A    between atoms: C_15  and  C_16
REMARK    8  A    between atoms: C_19  and  C_20
REMARK    9  A    between atoms: C_25  and  C_26
REMARK   10  A    between atoms: C_31  and  N_32
REMARK                            x       y       z     vdW  Elec       q    Type
REMARK                         _______ _______ _______ _____ _____    ______ ____
ROOT
ATOM      1  C   UNL     1      -7.319   2.763 126.303  0.00  0.00    +0.000 A 
ATOM      2  C   UNL     1      -7.612   1.946 125.151  0.00  0.00    +0.000 A 
ATOM      3  C   UNL     1      -6.840   0.879 124.856  0.00  0.00    +0.000 A 
ATOM      4  C   UNL     1      -5.762   0.899 125.671  0.00  0.00    +0.000 A 
ATOM      5  C   UNL     1      -5.404   1.600 126.802  0.00  0.00    +0.000 A 
ATOM      6  C   UNL     1      -6.216   2.586 127.184  0.00  0.00    +0.000 A 
ENDROOT
BRANCH   6   7
ATOM      7  C   UNL     1      -5.662   3.302 128.399  0.00  0.00    +0.000 C 
ATOM      8  O   UNL     1      -4.443   3.491 128.486  0.00  0.00    +0.000 OA
ATOM      9  N   UNL     1      -6.546   3.843 129.336  0.00  0.00    +0.000 N 
ATOM     10  C   UNL     1      -6.653   5.335 129.375  0.00  0.00    +0.000 C 
ATOM     11  C   UNL     1      -6.991   5.829 130.743  0.00  0.00    +0.000 C 
ATOM     12  C   UNL     1      -8.707   5.468 131.056  0.00  0.00    +0.000 C 
ATOM     13  C   UNL     1      -8.222   3.663 131.098  0.00  0.00    +0.000 C 
ATOM     14  C   UNL     1      -7.720   3.086 129.801  0.00  0.00    +0.000 C 
BRANCH  12  15
ATOM     15  N   UNL     1      -9.870   6.828 130.495  0.00  0.00    +0.000 N 
ATOM     16  C   UNL     1     -10.528   6.455 131.685  0.00  0.00    +0.000 C 
ATOM     17  O   UNL     1     -10.043   6.555 132.848  0.00  0.00    +0.000 OA
ATOM     18  O   UNL     1     -11.651   5.778 131.531  0.00  0.00    +0.000 OA
ATOM     19  C   UNL     1     -12.454   6.885 131.416  0.00  0.00    +0.000 C 
ATOM     20  C   UNL     1     -12.527   6.972 129.945  0.00  0.00    +0.000 A 
ATOM     21  C   UNL     1     -12.732   6.578 128.611  0.00  0.00    +0.000 A 
ATOM     22  C   UNL     1     -13.288   7.502 127.632  0.00  0.00    +0.000 A 
ATOM     23  C   UNL     1     -13.524   8.705 128.157  0.00  0.00    +0.000 A 
ATOM     24  C   UNL     1     -12.455   8.892 129.256  0.00  0.00    +0.000 A 
ATOM     25  C   UNL     1     -11.466   7.627 129.747  0.00  0.00    +0.000 A 
ENDBRANCH  12  15
ENDBRANCH   6   7
BRANCH   1  27
ATOM     26  C   UNL     1      -7.943   4.854 125.721  0.00  0.00    +0.000 C 
ATOM     27  O   UNL     1      -8.299   3.700 126.433  0.00  0.00    +0.000 OA
ENDBRANCH   1  27
BRANCH   3  28
ATOM     28  O   UNL     1      -7.114  -0.077 123.929  0.00  0.00    +0.000 OA
BRANCH  28  29
ATOM     29  C   UNL     1      -7.523  -1.470 124.225  0.00  0.00    +0.000 C 
ATOM     30  C   UNL     1      -8.360  -1.734 125.509  0.00  0.00    +0.000 C 
ATOM     31  C   UNL     1      -7.587  -1.669 126.826  0.00  0.00    +0.000 C 
ATOM     32  N   UNL     1      -6.357  -2.520 126.745  0.00  0.00    +0.000 NA
ATOM     33  C   UNL     1      -5.680  -2.516 125.435  0.00  0.00    +0.000 C 
ATOM     34  C   UNL     1      -6.394  -2.476 124.130  0.00  0.00    +0.000 C 
BRANCH  32  35
ATOM     35  C   UNL     1      -5.359  -2.214 127.807  0.00  0.00    +0.000 C 
BRANCH  35  36
ATOM     36  C   UNL     1      -5.808  -2.397 129.244  0.00  0.00    +0.000 A 
ATOM     37  C   UNL     1      -6.283  -3.677 129.510  0.00  0.00    +0.000 A 
ATOM     38  C   UNL     1      -6.405  -4.073 130.814  0.00  0.00    +0.000 A 
ATOM     39  C   UNL     1      -6.502  -3.104 131.807  0.00  0.00    +0.000 A 
ATOM     40  C   UNL     1      -6.994  -3.431 133.168  0.00  0.00    +0.000 C 
ATOM     41  N   UNL     1      -6.252  -1.763 131.545  0.00  0.00    +0.000 N 
ATOM     42  O   UNL     1      -6.400  -0.896 132.469  0.00  0.00    +0.000 OA
ATOM     43  C   UNL     1      -5.821  -1.394 130.284  0.00  0.00    +0.000 A 
ATOM     44  C   UNL     1      -5.437   0.066 130.210  0.00  0.00    +0.000 C 
ENDBRANCH  35  36
ENDBRANCH  32  35
ENDBRANCH  28  29
ENDBRANCH   3  28
TORSDOF 7
ENDMDL
MODEL 4
REMARK VINA RESULT:     -10.4      1.674      2.312
REMARK  Name = CHEMBL65949
REMARK  10 active torsions:
REMARK  status: ('A' for Active; 'I' for Inactive)
REMARK    1  A    between atoms: C_1  and  O_2
REMARK    2  A    between atoms: O_2  and  C_3
REMARK    3  A    between atoms: C_5  and  O_6
REMARK    4  A    between atoms: O_6  and  C_7
REMARK    5  A    between atoms: N_10  and  C_11
REMARK    6  A    between atoms: C_11  and  C_12
REMARK    7  A    between atoms: C_15  and  C_16
REMARK    8  A    between atoms: C_19  and  C_20
REMARK    9  A    between atoms: C_25  and  C_26
REMARK   10  A    between atoms: C_31  and  N_32
REMARK                            x       y       z     vdW  Elec       q    Type
REMARK                         _______ _______ _______ _____ _____    ______ ____
ROOT
ATOM      1  C   UNL     1      -4.331   2.915 129.011  0.00  0.00    +0.000 A 
ATOM      2  C   UNL     1      -4.217   2.400 130.354  0.00  0.00    +0.000 A 
ATOM      3  C   UNL     1      -4.467   3.197 131.414  0.00  0.00    +0.000 A 
ATOM      4  C   UNL     1      -4.620   4.463 130.966  0.00  0.00    +0.000 A 
ATOM      5  C   UNL     1      -4.775   5.050 129.728  0.00  0.00    +0.000 A 
ATOM      6  C   UNL     1      -4.649   4.257 128.663  0.00  0.00    +0.000 A 
ENDROOT
BRANCH   6   7
ATOM      7  C   UNL     1      -4.782   5.051 127.380  0.00  0.00    +0.000 C 
ATOM      8  O   UNL     1      -4.030   6.014 127.184  0.00  0.00    +0.000 OA
ATOM      9  N   UNL     1      -5.666   4.610 126.391  0.00  0.00    +0.000 N 
ATOM     10  C   UNL     1      -5.053   4.039 125.151  0.00  0.00    +0.000 C 
ATOM     11  C   UNL     1      -5.918   4.263 123.954  0.00  0.00    +0.000 C 
ATOM     12  C   UNL     1      -7.307   3.153 124.057  0.00  0.00    +0.000 C 
ATOM     13  C   UNL     1      -7.896   4.174 125.508  0.00  0.00    +0.000 C 
ATOM     14  C   UNL     1      -7.020   4.144 126.732  0.00  0.00    +0.000 C 
BRANCH  12  15
ATOM     15  N   UNL     1      -6.987   1.484 123.264  0.00  0.00    +0.000 N 
ATOM     16  C   UNL     1      -8.335   1.295 123.634  0.00  0.00    +0.000 C 
ATOM     17  O   UNL     1      -9.311   1.965 123.193  0.00  0.00    +0.000 OA
ATOM     18  O   UNL     1      -8.540   0.487 124.658  0.00  0.00    +0.000 OA
ATOM     19  C   UNL     1      -8.568  -0.663 123.910  0.00  0.00    +0.000 C 
ATOM     20  C   UNL     1      -7.170  -1.098 124.092  0.00  0.00    +0.000 A 
ATOM     21  C   UNL     1      -5.973  -1.448 124.743  0.00  0.00    +0.000 A 
ATOM     22  C   UNL     1      -5.118  -2.506 124.224  0.00  0.00    +0.000 A 
ATOM     23  C   UNL     1      -5.601  -3.032 123.097  0.00  0.00    +0.000 A 
ATOM     24  C   UNL     1      -6.352  -1.880 122.394  0.00  0.00    +0.000 A 
ATOM     25  C   UNL     1      -6.645  -0.419 123.167  0.00  0.00    +0.000 A 
ENDBRANCH  12  15
ENDBRANCH   6   7
BRANCH   1  27
ATOM     26  C   UNL     1      -5.331   1.200 127.933  0.00  0.00    +0.000 C 
ATOM     27  O   UNL     1      -4.129   1.892 128.134  0.00  0.00    +0.000 OA
ENDBRANCH   1  27
BRANCH   3  28
ATOM     28  O   UNL     1      -4.588   2.795 132.707  0.00  0.00    +0.000 OA
BRANCH  28  29
ATOM     29  C   UNL     1      -5.809   2.220 133.319  0.00  0.00    +0.000 C 
ATOM     30  C   UNL     1      -7.115   2.200 132.476  0.00  0.00    +0.000 C 
ATOM     31  C   UNL     1      -7.817   3.549 132.315  0.00  0.00    +0.000 C 
ATOM     32  N   UNL     1      -7.995   4.201 133.653  0.00  0.00    +0.000 NA
ATOM     33  C   UNL     1      -6.878   4.002 134.597  0.00  0.00    +0.000 C 
ATOM     34  C   UNL     1      -6.101   2.738 134.712  0.00  0.00    +0.000 C 
BRANCH  32  35
ATOM     35  C   UNL     1      -8.299   5.655 133.562  0.00  0.00    +0.000 C 
BRANCH  35  36
ATOM     36  C   UNL     1      -9.184   6.100 132.414  0.00  0.00    +0.000 A 
ATOM     37  C   UNL     1     -10.522   5.762 132.590  0.00  0.00    +0.000 A 
ATOM     38  C   UNL     1     -11.463   6.380 131.812  0.00  0.00    +0.000 A 
ATOM     39  C   UNL     1     -11.071   6.951 130.607  0.00  0.00    +0.000 A 
ATOM     40  C   UNL     1     -12.058   7.305 129.557  0.00  0.00    +0.000 C 
ATOM     41  N   UNL     1      -9.732   7.113 130.277  0.00  0.00    +0.000 N 
ATOM     42  O   UNL     1      -9.411   7.594 129.139  0.00  0.00    +0.000 OA
ATOM     43  C   UNL     1      -8.765   6.769 131.204  0.00  0.00    +0.000 A 
ATOM     44  C   UNL     1      -7.374   7.159 130.759  0.00  0.00    +0.000 C 
ENDBRANCH  35  36
ENDBRANCH  32  35
ENDBRANCH  28  29
ENDBRANCH   3  28
TORSDOF 7
ENDMDL
MODEL 5
REMARK VINA RESULT:     -10.3      2.614      8.889
REMARK  Name = CHEMBL65949
REMARK  10 active torsions:
REMARK  status: ('A' for Active; 'I' for Inactive)
REMARK    1  A    between atoms: C_1  and  O_2
REMARK    2  A    between atoms: O_2  and  C_3
REMARK    3  A    between atoms: C_5  and  O_6
REMARK    4  A    between atoms: O_6  and  C_7
REMARK    5  A    between atoms: N_10  and  C_11
REMARK    6  A    between atoms: C_11  and  C_12
REMARK    7  A    between atoms: C_15  and  C_16
REMARK    8  A    between atoms: C_19  and  C_20
REMARK    9  A    between atoms: C_25  and  C_26
REMARK   10  A    between atoms: C_31  and  N_32
REMARK                            x       y       z     vdW  Elec       q    Type
REMARK                         _______ _______ _______ _____ _____    ______ ____
ROOT
ATOM      1  C   UNL     1      -7.481  -1.389 129.633  0.00  0.00    +0.000 A 
ATOM      2  C   UNL     1      -7.696  -1.903 128.302  0.00  0.00    +0.000 A 
ATOM      3  C   UNL     1      -7.497  -1.116 127.225  0.00  0.00    +0.000 A 
ATOM      4  C   UNL     1      -7.283   0.147 127.658  0.00  0.00    +0.000 A 
ATOM      5  C   UNL     1      -7.032   0.732 128.880  0.00  0.00    +0.000 A 
ATOM      6  C   UNL     1      -7.106  -0.055 129.954  0.00  0.00    +0.000 A 
ENDROOT
BRANCH   6   7
ATOM      7  C   UNL     1      -6.869   0.738 131.222  0.00  0.00    +0.000 C 
ATOM      8  O   UNL     1      -5.802   0.597 131.833  0.00  0.00    +0.000 OA
ATOM      9  N   UNL     1      -7.803   1.701 131.613  0.00  0.00    +0.000 N 
ATOM     10  C   UNL     1      -7.389   3.132 131.473  0.00  0.00    +0.000 C 
ATOM     11  C   UNL     1      -8.047   3.999 132.495  0.00  0.00    +0.000 C 
ATOM     12  C   UNL     1      -9.755   4.207 132.032  0.00  0.00    +0.000 C 
ATOM     13  C   UNL     1      -9.988   2.398 132.440  0.00  0.00    +0.000 C 
ATOM     14  C   UNL     1      -9.248   1.424 131.561  0.00  0.00    +0.000 C 
BRANCH  12  15
ATOM     15  N   UNL     1     -10.046   5.670 130.895  0.00  0.00    +0.000 N 
ATOM     16  C   UNL     1     -10.655   6.176 132.062  0.00  0.00    +0.000 C 
ATOM     17  O   UNL     1     -10.059   6.404 133.154  0.00  0.00    +0.000 OA
ATOM     18  O   UNL     1     -11.974   6.222 132.046  0.00  0.00    +0.000 OA
ATOM     19  C   UNL     1     -12.052   7.457 131.453  0.00  0.00    +0.000 C 
ATOM     20  C   UNL     1     -12.239   7.035 130.052  0.00  0.00    +0.000 A 
ATOM     21  C   UNL     1     -12.782   6.369 128.938  0.00  0.00    +0.000 A 
ATOM     22  C   UNL     1     -12.856   7.020 127.637  0.00  0.00    +0.000 A 
ATOM     23  C   UNL     1     -12.335   8.248 127.661  0.00  0.00    +0.000 A 
ATOM     24  C   UNL     1     -11.215   8.199 128.725  0.00  0.00    +0.000 A 
ATOM     25  C   UNL     1     -11.025   6.878 129.743  0.00  0.00    +0.000 A 
ENDBRANCH  12  15
ENDBRANCH   6   7
BRANCH   1  27
ATOM     26  C   UNL     1      -6.582  -3.308 130.418  0.00  0.00    +0.000 C 
ATOM     27  O   UNL     1      -7.650  -2.405 130.525  0.00  0.00    +0.000 OA
ENDBRANCH   1  27
BRANCH   3  28
ATOM     28  O   UNL     1      -7.472  -1.522 125.928  0.00  0.00    +0.000 OA
BRANCH  28  29
ATOM     29  C   UNL     1      -8.637  -1.557 125.013  0.00  0.00    +0.000 C 
ATOM     30  C   UNL     1      -8.390  -1.306 123.499  0.00  0.00    +0.000 C 
ATOM     31  C   UNL     1      -8.112   0.147 123.108  0.00  0.00    +0.000 C 
ATOM     32  N   UNL     1      -9.160   1.047 123.687  0.00  0.00    +0.000 NA
ATOM     33  C   UNL     1      -9.631   0.671 125.033  0.00  0.00    +0.000 C 
ATOM     34  C   UNL     1      -9.817  -0.734 125.488  0.00  0.00    +0.000 C 
BRANCH  32  35
ATOM     35  C   UNL     1      -8.763   2.482 123.696  0.00  0.00    +0.000 C 
BRANCH  35  36
ATOM     36  C   UNL     1      -8.207   3.047 122.403  0.00  0.00    +0.000 A 
ATOM     37  C   UNL     1      -9.123   3.024 121.357  0.00  0.00    +0.000 A 
ATOM     38  C   UNL     1      -8.876   3.791 120.251  0.00  0.00    +0.000 A 
ATOM     39  C   UNL     1      -7.571   4.193 119.989  0.00  0.00    +0.000 A 
ATOM     40  C   UNL     1      -7.167   4.699 118.653  0.00  0.00    +0.000 C 
ATOM     41  N   UNL     1      -6.557   4.036 120.924  0.00  0.00    +0.000 N 
ATOM     42  O   UNL     1      -5.361   4.371 120.628  0.00  0.00    +0.000 OA
ATOM     43  C   UNL     1      -6.868   3.539 122.176  0.00  0.00    +0.000 A 
ATOM     44  C   UNL     1      -5.692   3.586 123.124  0.00  0.00    +0.000 C 
ENDBRANCH  35  36
ENDBRANCH  32  35
ENDBRANCH  28  29
ENDBRANCH   3  28
TORSDOF 7
ENDMDL
MODEL 6
REMARK VINA RESULT:     -10.2      3.753      9.549
REMARK  Name = CHEMBL65949
REMARK  10 active torsions:
REMARK  status: ('A' for Active; 'I' for Inactive)
REMARK    1  A    between atoms: C_1  and  O_2
REMARK    2  A    between atoms: O_2  and  C_3
REMARK    3  A    between atoms: C_5  and  O_6
REMARK    4  A    between atoms: O_6  and  C_7
REMARK    5  A    between atoms: N_10  and  C_11
REMARK    6  A    between atoms: C_11  and  C_12
REMARK    7  A    between atoms: C_15  and  C_16
REMARK    8  A    between atoms: C_19  and  C_20
REMARK    9  A    between atoms: C_25  and  C_26
REMARK   10  A    between atoms: C_31  and  N_32
REMARK                            x       y       z     vdW  Elec       q    Type
REMARK                         _______ _______ _______ _____ _____    ______ ____
ROOT
ATOM      1  C   UNL     1      -6.052   0.193 133.037  0.00  0.00    +0.000 A 
ATOM      2  C   UNL     1      -5.332  -1.046 133.206  0.00  0.00    +0.000 A 
ATOM      3  C   UNL     1      -5.890  -2.216 132.830  0.00  0.00    +0.000 A 
ATOM      4  C   UNL     1      -7.181  -1.984 132.503  0.00  0.00    +0.000 A 
ATOM      5  C   UNL     1      -7.947  -0.859 132.282  0.00  0.00    +0.000 A 
ATOM      6  C   UNL     1      -7.376   0.320 132.535  0.00  0.00    +0.000 A 
ENDROOT
BRANCH   6   7
ATOM      7  C   UNL     1      -8.355   1.453 132.307  0.00  0.00    +0.000 C 
ATOM      8  O   UNL     1      -9.504   1.360 132.756  0.00  0.00    +0.000 OA
ATOM      9  N   UNL     1      -7.909   2.631 131.701  0.00  0.00    +0.000 N 
ATOM     10  C   UNL     1      -7.797   3.836 132.581  0.00  0.00    +0.000 C 
ATOM     11  C   UNL     1      -8.024   5.099 131.818  0.00  0.00    +0.000 C 
ATOM     12  C   UNL     1      -6.584   5.411 130.817  0.00  0.00    +0.000 C 
ATOM     13  C   UNL     1      -7.081   3.920 129.805  0.00  0.00    +0.000 C 
ATOM     14  C   UNL     1      -7.034   2.595 130.518  0.00  0.00    +0.000 C 
BRANCH  12  15
ATOM     15  N   UNL     1      -5.268   6.415 131.697  0.00  0.00    +0.000 N 
ATOM     16  C   UNL     1      -5.507   7.277 130.607  0.00  0.00    +0.000 C 
ATOM     17  O   UNL     1      -6.605   7.854 130.364  0.00  0.00    +0.000 OA
ATOM     18  O   UNL     1      -4.562   7.314 129.686  0.00  0.00    +0.000 OA
ATOM     19  C   UNL     1      -3.816   8.283 130.307  0.00  0.00    +0.000 C 
ATOM     20  C   UNL     1      -2.840   7.420 131.002  0.00  0.00    +0.000 A 
ATOM     21  C   UNL     1      -1.868   6.423 131.197  0.00  0.00    +0.000 A 
ATOM     22  C   UNL     1      -0.785   6.607 132.154  0.00  0.00    +0.000 A 
ATOM     23  C   UNL     1      -0.875   7.775 132.792  0.00  0.00    +0.000 A 
ATOM     24  C   UNL     1      -2.387   8.082 132.878  0.00  0.00    +0.000 A 
ATOM     25  C   UNL     1      -3.519   7.173 132.037  0.00  0.00    +0.000 A 
ENDBRANCH  12  15
ENDBRANCH   6   7
BRANCH   1  27
ATOM     26  C   UNL     1      -5.528   1.622 134.707  0.00  0.00    +0.000 C 
ATOM     27  O   UNL     1      -5.235   1.223 133.396  0.00  0.00    +0.000 OA
ENDBRANCH   1  27
BRANCH   3  28
ATOM     28  O   UNL     1      -5.257  -3.416 132.750  0.00  0.00    +0.000 OA
BRANCH  28  29
ATOM     29  C   UNL     1      -4.697  -4.014 131.515  0.00  0.00    +0.000 C 
ATOM     30  C   UNL     1      -3.944  -3.082 130.523  0.00  0.00    +0.000 C 
ATOM     31  C   UNL     1      -4.829  -2.155 129.688  0.00  0.00    +0.000 C 
ATOM     32  N   UNL     1      -5.926  -2.939 129.036  0.00  0.00    +0.000 NA
ATOM     33  C   UNL     1      -6.485  -4.032 129.854  0.00  0.00    +0.000 C 
ATOM     34  C   UNL     1      -5.674  -4.891 130.759  0.00  0.00    +0.000 C 
BRANCH  32  35
ATOM     35  C   UNL     1      -7.042  -2.087 128.539  0.00  0.00    +0.000 C 
BRANCH  35  36
ATOM     36  C   UNL     1      -7.547  -2.367 127.138  0.00  0.00    +0.000 A 
ATOM     37  C   UNL     1      -8.740  -3.082 127.118  0.00  0.00    +0.000 A 
ATOM     38  C   UNL     1      -9.467  -3.113 125.959  0.00  0.00    +0.000 A 
ATOM     39  C   UNL     1      -8.826  -2.849 124.754  0.00  0.00    +0.000 A 
ATOM     40  C   UNL     1      -9.437  -3.215 123.452  0.00  0.00    +0.000 C 
ATOM     41  N   UNL     1      -7.536  -2.338 124.710  0.00  0.00    +0.000 N 
ATOM     42  O   UNL     1      -6.961  -2.157 123.585  0.00  0.00    +0.000 OA
ATOM     43  C   UNL     1      -6.903  -2.008 125.895  0.00  0.00    +0.000 A 
ATOM     44  C   UNL     1      -5.580  -1.314 125.668  0.00  0.00    +0.000 C 
ENDBRANCH  35  36
ENDBRANCH  32  35
ENDBRANCH  28  29
ENDBRANCH   3  28
TORSDOF 7
ENDMDL
MODEL 7
REMARK VINA RESULT:      -9.9      3.520      9.188
REMARK  Name = CHEMBL65949
REMARK  10 active torsions:
REMARK  status: ('A' for Active; 'I' for Inactive)
REMARK    1  A    between atoms: C_1  and  O_2
REMARK    2  A    between atoms: O_2  and  C_3
REMARK    3  A    between atoms: C_5  and  O_6
REMARK    4  A    between atoms: O_6  and  C_7
REMARK    5  A    between atoms: N_10  and  C_11
REMARK    6  A    between atoms: C_11  and  C_12
REMARK    7  A    between atoms: C_15  and  C_16
REMARK    8  A    between atoms: C_19  and  C_20
REMARK    9  A    between atoms: C_25  and  C_26
REMARK   10  A    between atoms: C_31  and  N_32
REMARK                            x       y       z     vdW  Elec       q    Type
REMARK                         _______ _______ _______ _____ _____    ______ ____
ROOT
ATOM      1  C   UNL     1      -7.351  -1.435 128.552  0.00  0.00    +0.000 A 
ATOM      2  C   UNL     1      -7.884  -1.693 127.236  0.00  0.00    +0.000 A 
ATOM      3  C   UNL     1      -8.686  -2.757 127.020  0.00  0.00    +0.000 A 
ATOM      4  C   UNL     1      -8.688  -3.519 128.137  0.00  0.00    +0.000 A 
ATOM      5  C   UNL     1      -8.248  -3.356 129.433  0.00  0.00    +0.000 A 
ATOM      6  C   UNL     1      -7.551  -2.251 129.700  0.00  0.00    +0.000 A 
ENDROOT
BRANCH   6   7
ATOM      7  C   UNL     1      -7.085  -2.241 131.141  0.00  0.00    +0.000 C 
ATOM      8  O   UNL     1      -6.754  -3.306 131.677  0.00  0.00    +0.000 OA
ATOM      9  N   UNL     1      -6.921  -1.019 131.799  0.00  0.00    +0.000 N 
ATOM     10  C   UNL     1      -5.514  -0.589 132.074  0.00  0.00    +0.000 C 
ATOM     11  C   UNL     1      -5.424   0.247 133.308  0.00  0.00    +0.000 C 
ATOM     12  C   UNL     1      -6.089   1.857 132.938  0.00  0.00    +0.000 C 
ATOM     13  C   UNL     1      -7.762   1.034 132.810  0.00  0.00    +0.000 C 
ATOM     14  C   UNL     1      -7.926   0.050 131.682  0.00  0.00    +0.000 C 
BRANCH  12  15
ATOM     15  N   UNL     1      -4.810   3.057 132.273  0.00  0.00    +0.000 N 
ATOM     16  C   UNL     1      -5.880   3.958 132.456  0.00  0.00    +0.000 C 
ATOM     17  O   UNL     1      -6.411   4.240 133.568  0.00  0.00    +0.000 OA
ATOM     18  O   UNL     1      -6.474   4.373 131.353  0.00  0.00    +0.000 OA
ATOM     19  C   UNL     1      -5.614   5.418 131.129  0.00  0.00    +0.000 C 
ATOM     20  C   UNL     1      -4.702   4.770 130.166  0.00  0.00    +0.000 A 
ATOM     21  C   UNL     1      -4.274   4.060 129.030  0.00  0.00    +0.000 A 
ATOM     22  C   UNL     1      -3.031   4.403 128.354  0.00  0.00    +0.000 A 
ATOM     23  C   UNL     1      -2.393   5.407 128.959  0.00  0.00    +0.000 A 
ATOM     24  C   UNL     1      -2.746   5.275 130.458  0.00  0.00    +0.000 A 
ATOM     25  C   UNL     1      -3.929   4.211 130.993  0.00  0.00    +0.000 A 
ENDBRANCH  12  15
ENDBRANCH   6   7
BRANCH   1  27
ATOM     26  C   UNL     1      -5.289  -0.518 128.450  0.00  0.00    +0.000 C 
ATOM     27  O   UNL     1      -6.665  -0.259 128.520  0.00  0.00    +0.000 OA
ENDBRANCH   1  27
BRANCH   3  28
ATOM     28  O   UNL     1      -9.406  -3.002 125.893  0.00  0.00    +0.000 OA
BRANCH  28  29
ATOM     29  C   UNL     1      -8.914  -3.727 124.698  0.00  0.00    +0.000 C 
ATOM     30  C   UNL     1      -7.380  -3.921 124.536  0.00  0.00    +0.000 C 
ATOM     31  C   UNL     1      -6.597  -2.675 124.117  0.00  0.00    +0.000 C 
ATOM     32  N   UNL     1      -7.237  -2.043 122.919  0.00  0.00    +0.000 NA
ATOM     33  C   UNL     1      -8.711  -2.089 122.901  0.00  0.00    +0.000 C 
ATOM     34  C   UNL     1      -9.514  -3.240 123.395  0.00  0.00    +0.000 C 
BRANCH  32  35
ATOM     35  C   UNL     1      -6.793  -0.640 122.688  0.00  0.00    +0.000 C 
BRANCH  35  36
ATOM     36  C   UNL     1      -7.086   0.362 123.787  0.00  0.00    +0.000 A 
ATOM     37  C   UNL     1      -6.128   0.364 124.796  0.00  0.00    +0.000 A 
ATOM     38  C   UNL     1      -6.087   1.424 125.660  0.00  0.00    +0.000 A 
ATOM     39  C   UNL     1      -7.223   2.211 125.814  0.00  0.00    +0.000 A 
ATOM     40  C   UNL     1      -7.382   3.128 126.970  0.00  0.00    +0.000 C 
ATOM     41  N   UNL     1      -8.313   2.096 124.962  0.00  0.00    +0.000 N 
ATOM     42  O   UNL     1      -9.358   2.800 125.166  0.00  0.00    +0.000 OA
ATOM     43  C   UNL     1      -8.235   1.232 123.884  0.00  0.00    +0.000 A 
ATOM     44  C   UNL     1      -9.430   1.346 122.966  0.00  0.00    +0.000 C 
ENDBRANCH  35  36
ENDBRANCH  32  35
ENDBRANCH  28  29
ENDBRANCH   3  28
TORSDOF 7
ENDMDL
MODEL 8
REMARK VINA RESULT:      -9.9      2.686      4.390
REMARK  Name = CHEMBL65949
REMARK  10 active torsions:
REMARK  status: ('A' for Active; 'I' for Inactive)
REMARK    1  A    between atoms: C_1  and  O_2
REMARK    2  A    between atoms: O_2  and  C_3
REMARK    3  A    between atoms: C_5  and  O_6
REMARK    4  A    between atoms: O_6  and  C_7
REMARK    5  A    between atoms: N_10  and  C_11
REMARK    6  A    between atoms: C_11  and  C_12
REMARK    7  A    between atoms: C_15  and  C_16
REMARK    8  A    between atoms: C_19  and  C_20
REMARK    9  A    between atoms: C_25  and  C_26
REMARK   10  A    between atoms: C_31  and  N_32
REMARK                            x       y       z     vdW  Elec       q    Type
REMARK                         _______ _______ _______ _____ _____    ______ ____
ROOT
ATOM      1  C   UNL     1      -7.527   1.137 130.678  0.00  0.00    +0.000 A 
ATOM      2  C   UNL     1      -7.318   2.458 131.217  0.00  0.00    +0.000 A 
ATOM      3  C   UNL     1      -6.698   2.622 132.404  0.00  0.00    +0.000 A 
ATOM      4  C   UNL     1      -6.539   1.404 132.970  0.00  0.00    +0.000 A 
ATOM      5  C   UNL     1      -6.672   0.102 132.540  0.00  0.00    +0.000 A 
ATOM      6  C   UNL     1      -7.174  -0.084 131.318  0.00  0.00    +0.000 A 
ENDROOT
BRANCH   6   7
ATOM      7  C   UNL     1      -7.318  -1.559 131.012  0.00  0.00    +0.000 C 
ATOM      8  O   UNL     1      -7.751  -2.320 131.887  0.00  0.00    +0.000 OA
ATOM      9  N   UNL     1      -7.078  -2.015 129.712  0.00  0.00    +0.000 N 
ATOM     10  C   UNL     1      -8.272  -2.450 128.922  0.00  0.00    +0.000 C 
ATOM     11  C   UNL     1      -7.924  -3.518 127.938  0.00  0.00    +0.000 C 
ATOM     12  C   UNL     1      -7.022  -2.766 126.598  0.00  0.00    +0.000 C 
ATOM     13  C   UNL     1      -5.627  -2.496 127.813  0.00  0.00    +0.000 C 
ATOM     14  C   UNL     1      -5.914  -1.544 128.943  0.00  0.00    +0.000 C 
BRANCH  12  15
ATOM     15  N   UNL     1      -8.125  -2.134 125.219  0.00  0.00    +0.000 N 
ATOM     16  C   UNL     1      -6.987  -2.464 124.454  0.00  0.00    +0.000 C 
ATOM     17  O   UNL     1      -6.511  -3.628 124.324  0.00  0.00    +0.000 OA
ATOM     18  O   UNL     1      -6.277  -1.443 124.013  0.00  0.00    +0.000 OA
ATOM     19  C   UNL     1      -7.012  -1.261 122.869  0.00  0.00    +0.000 C 
ATOM     20  C   UNL     1      -7.913  -0.189 123.334  0.00  0.00    +0.000 A 
ATOM     21  C   UNL     1      -8.327   1.031 123.898  0.00  0.00    +0.000 A 
ATOM     22  C   UNL     1      -9.479   1.750 123.371  0.00  0.00    +0.000 A 
ATOM     23  C   UNL     1     -10.056   1.097 122.360  0.00  0.00    +0.000 A 
ATOM     24  C   UNL     1      -9.825  -0.402 122.653  0.00  0.00    +0.000 A 
ATOM     25  C   UNL     1      -8.794  -0.912 123.876  0.00  0.00    +0.000 A 
ENDBRANCH  12  15
ENDBRANCH   6   7
BRANCH   1  27
ATOM     26  C   UNL     1      -8.658   2.522 129.297  0.00  0.00    +0.000 C 
ATOM     27  O   UNL     1      -8.075   1.255 129.436  0.00  0.00    +0.000 OA
ENDBRANCH   1  27
BRANCH   3  28
ATOM     28  O   UNL     1      -6.266   3.800 132.927  0.00  0.00    +0.000 OA
BRANCH  28  29
ATOM     29  C   UNL     1      -7.087   4.743 133.720  0.00  0.00    +0.000 C 
ATOM     30  C   UNL     1      -8.422   4.225 134.328  0.00  0.00    +0.000 C 
ATOM     31  C   UNL     1      -9.571   4.040 133.335  0.00  0.00    +0.000 C 
ATOM     32  N   UNL     1      -9.746   5.279 132.511  0.00  0.00    +0.000 NA
ATOM     33  C   UNL     1      -8.493   5.967 132.146  0.00  0.00    +0.000 C 
ATOM     34  C   UNL     1      -7.313   6.081 133.045  0.00  0.00    +0.000 C 
BRANCH  32  35
ATOM     35  C   UNL     1     -10.554   5.057 131.281  0.00  0.00    +0.000 C 
BRANCH  35  36
ATOM     36  C   UNL     1     -11.201   6.278 130.657  0.00  0.00    +0.000 A 
ATOM     37  C   UNL     1     -12.267   6.774 131.400  0.00  0.00    +0.000 A 
ATOM     38  C   UNL     1     -12.719   8.038 131.137  0.00  0.00    +0.000 A 
ATOM     39  C   UNL     1     -12.446   8.607 129.898  0.00  0.00    +0.000 A 
ATOM     40  C   UNL     1     -13.193   9.792 129.406  0.00  0.00    +0.000 C 
ATOM     41  N   UNL     1     -11.547   8.030 129.012  0.00  0.00    +0.000 N 
ATOM     42  O   UNL     1     -11.361   8.554 127.863  0.00  0.00    +0.000 OA
ATOM     43  C   UNL     1     -10.845   6.904 129.404  0.00  0.00    +0.000 A 
ATOM     44  C   UNL     1      -9.793   6.501 128.397  0.00  0.00    +0.000 C 
ENDBRANCH  35  36
ENDBRANCH  32  35
ENDBRANCH  28  29
ENDBRANCH   3  28
TORSDOF 7
ENDMDL
MODEL 9
REMARK VINA RESULT:      -9.8      2.693      3.738
REMARK  Name = CHEMBL65949
REMARK  10 active torsions:
REMARK  status: ('A' for Active; 'I' for Inactive)
REMARK    1  A    between atoms: C_1  and  O_2
REMARK    2  A    between atoms: O_2  and  C_3
REMARK    3  A    between atoms: C_5  and  O_6
REMARK    4  A    between atoms: O_6  and  C_7
REMARK    5  A    between atoms: N_10  and  C_11
REMARK    6  A    between atoms: C_11  and  C_12
REMARK    7  A    between atoms: C_15  and  C_16
REMARK    8  A    between atoms: C_19  and  C_20
REMARK    9  A    between atoms: C_25  and  C_26
REMARK   10  A    between atoms: C_31  and  N_32
REMARK                            x       y       z     vdW  Elec       q    Type
REMARK                         _______ _______ _______ _____ _____    ______ ____
ROOT
ATOM      1  C   UNL     1      -4.394   2.021 129.210  0.00  0.00    +0.000 A 
ATOM      2  C   UNL     1      -4.304   1.433 130.524  0.00  0.00    +0.000 A 
ATOM      3  C   UNL     1      -3.996   2.196 131.594  0.00  0.00    +0.000 A 
ATOM      4  C   UNL     1      -3.639   3.422 131.150  0.00  0.00    +0.000 A 
ATOM      5  C   UNL     1      -3.715   4.087 129.945  0.00  0.00    +0.000 A 
ATOM      6  C   UNL     1      -4.132   3.382 128.892  0.00  0.00    +0.000 A 
ENDROOT
BRANCH   6   7
ATOM      7  C   UNL     1      -4.103   4.224 127.634  0.00  0.00    +0.000 C 
ATOM      8  O   UNL     1      -3.115   4.932 127.401  0.00  0.00    +0.000 OA
ATOM      9  N   UNL     1      -5.135   4.094 126.700  0.00  0.00    +0.000 N 
ATOM     10  C   UNL     1      -4.792   3.413 125.412  0.00  0.00    +0.000 C 
ATOM     11  C   UNL     1      -5.624   3.920 124.281  0.00  0.00    +0.000 C 
ATOM     12  C   UNL     1      -7.269   3.260 124.460  0.00  0.00    +0.000 C 
ATOM     13  C   UNL     1      -7.444   4.357 125.963  0.00  0.00    +0.000 C 
ATOM     14  C   UNL     1      -6.543   4.031 127.124  0.00  0.00    +0.000 C 
BRANCH  12  15
ATOM     15  N   UNL     1      -7.500   1.599 123.622  0.00  0.00    +0.000 N 
ATOM     16  C   UNL     1      -8.699   2.218 123.212  0.00  0.00    +0.000 C 
ATOM     17  O   UNL     1      -8.774   3.247 122.482  0.00  0.00    +0.000 OA
ATOM     18  O   UNL     1      -9.798   1.789 123.805  0.00  0.00    +0.000 OA
ATOM     19  C   UNL     1     -10.018   0.753 122.933  0.00  0.00    +0.000 C 
ATOM     20  C   UNL     1      -9.401  -0.342 123.705  0.00  0.00    +0.000 A 
ATOM     21  C   UNL     1      -9.123  -1.198 124.787  0.00  0.00    +0.000 A 
ATOM     22  C   UNL     1      -8.824  -2.606 124.572  0.00  0.00    +0.000 A 
ATOM     23  C   UNL     1      -8.824  -2.926 123.277  0.00  0.00    +0.000 A 
ATOM     24  C   UNL     1      -8.359  -1.652 122.538  0.00  0.00    +0.000 A 
ATOM     25  C   UNL     1      -8.206  -0.180 123.331  0.00  0.00    +0.000 A 
ENDBRANCH  12  15
ENDBRANCH   6   7
BRANCH   1  27
ATOM     26  C   UNL     1      -5.922   0.392 128.869  0.00  0.00    +0.000 C 
ATOM     27  O   UNL     1      -4.815   1.066 128.334  0.00  0.00    +0.000 OA
ENDBRANCH   1  27
BRANCH   3  28
ATOM     28  O   UNL     1      -4.071   1.818 132.897  0.00  0.00    +0.000 OA
BRANCH  28  29
ATOM     29  C   UNL     1      -5.304   1.391 133.601  0.00  0.00    +0.000 C 
ATOM     30  C   UNL     1      -6.666   1.577 132.874  0.00  0.00    +0.000 C 
ATOM     31  C   UNL     1      -7.187   3.014 132.806  0.00  0.00    +0.000 C 
ATOM     32  N   UNL     1      -7.161   3.637 134.168  0.00  0.00    +0.000 NA
ATOM     33  C   UNL     1      -6.008   3.257 135.006  0.00  0.00    +0.000 C 
ATOM     34  C   UNL     1      -5.405   1.897 135.025  0.00  0.00    +0.000 C 
BRANCH  32  35
ATOM     35  C   UNL     1      -7.270   5.122 134.137  0.00  0.00    +0.000 C 
BRANCH  35  36
ATOM     36  C   UNL     1      -6.253   5.866 133.294  0.00  0.00    +0.000 A 
ATOM     37  C   UNL     1      -5.054   6.097 133.959  0.00  0.00    +0.000 A 
ATOM     38  C   UNL     1      -3.954   6.452 133.225  0.00  0.00    +0.000 A 
ATOM     39  C   UNL     1      -4.137   7.006 131.963  0.00  0.00    +0.000 A 
ATOM     40  C   UNL     1      -3.047   7.740 131.272  0.00  0.00    +0.000 C 
ATOM     41  N   UNL     1      -5.375   7.001 131.336  0.00  0.00    +0.000 N 
ATOM     42  O   UNL     1      -5.515   7.565 130.199  0.00  0.00    +0.000 OA
ATOM     43  C   UNL     1      -6.436   6.360 131.948  0.00  0.00    +0.000 A 
ATOM     44  C   UNL     1      -7.662   6.302 131.067  0.00  0.00    +0.000 C 
ENDBRANCH  35  36
ENDBRANCH  32  35
ENDBRANCH  28  29
ENDBRANCH   3  28
TORSDOF 7
ENDMDL
