MODEL 1
REMARK VINA RESULT:     -10.0      0.000      0.000
REMARK  Name = CHEMBL1765671
REMARK  35 active torsions:
REMARK  status: ('A' for Active; 'I' for Inactive)
REMARK    1  A    between atoms: CD1_1  and  CG_2
REMARK    2  A    between atoms: CG_2  and  CD2_3
REMARK    3  A    between atoms: CG_2  and  CB_4
REMARK    4  A    between atoms: CB_4  and  CA_5
REMARK    5  A    between atoms: CA_9  and  CB_10
REMARK    6  A    between atoms: CB_10  and  CG_11
REMARK    7  A    between atoms: CA_20  and  CB_21
REMARK    8  A    between atoms: CB_21  and  CG_22
REMARK    9  A    between atoms: CZ_25  and  OH_26
REMARK   10  A    between atoms: C_32  and  O_33
REMARK   11  A    between atoms: C_38  and  C_39
REMARK   12  A    between atoms: CA_45  and  C_46
REMARK   13  A    between atoms: N_48  and  C_49
REMARK   14  A    between atoms: C_49  and  C_50
REMARK   15  A    between atoms: C_49  and  C_68
REMARK   16  A    between atoms: C_50  and  C_51
REMARK   17  A    between atoms: C_51  and  C_52
REMARK   18  A    between atoms: C_52  and  C_53
REMARK   19  A    between atoms: C_53  and  N_54
REMARK   20  A    between atoms: C_55  and  C_57
REMARK   21  A    between atoms: C_57  and  C_58
REMARK   22  A    between atoms: C_58  and  C_59
REMARK   23  A    between atoms: C_59  and  C_60
REMARK   24  A    between atoms: C_60  and  C_61
REMARK   25  A    between atoms: C_61  and  C_62
REMARK   26  A    between atoms: C_62  and  C_63
REMARK   27  A    between atoms: C_63  and  C_64
REMARK   28  A    between atoms: C_64  and  C_65
REMARK   29  A    between atoms: C_65  and  C_66
REMARK   30  A    between atoms: C_66  and  N_67
REMARK   31  A    between atoms: N_70  and  CA_71
REMARK   32  A    between atoms: CA_71  and  C_72
REMARK   33  A    between atoms: C_72  and  OXT_74
REMARK   34  A    between atoms: CA_78  and  CB_79
REMARK   35  A    between atoms: CB_79  and  CG_80
REMARK                            x       y       z     vdW  Elec       q    Type
REMARK                         _______ _______ _______ _____ _____    ______ ____
ROOT
ATOM      1  CA  TYR A   1      -6.855  -1.702 129.329  0.00  0.00    +0.000 C 
ATOM      2  N   TYR A   1      -7.371  -0.893 126.865  0.00  0.00    +0.000 N 
ATOM      3  C   TYR A   1      -7.584   0.241 124.819  0.00  0.00    +0.000 C 
ATOM      4  O   TYR A   1      -6.724   0.607 123.349  0.00  0.00    +0.000 OA
ATOM      5  CA  TYR A   1      -8.585   1.400 123.020  0.00  0.00    +0.000 C 
ATOM      6  N   TYR A   1      -9.762   1.701 123.726  0.00  0.00    +0.000 N 
ATOM      7  C   TYR A   1      -9.168   1.770 124.934  0.00  0.00    +0.000 C 
ATOM      8  O   TYR A   1      -9.896   1.517 125.856  0.00  0.00    +0.000 OA
ATOM      9  CA  TYR A   1      -7.559   2.098 125.045  0.00  0.00    +0.000 C 
ATOM     10  N   TYR A   1      -7.367   3.199 125.812  0.00  0.00    +0.000 N 
ATOM     11  C   UNK A   0      -7.713   3.228 127.157  0.00  0.00    +0.000 C 
ATOM     12  O   UNK A   0      -7.504   4.240 127.822  0.00  0.00    +0.000 OA
ATOM     13  C   UNK A   0      -8.358   2.008 127.846  0.00  0.00    +0.000 C 
ATOM     14  C   UNK A   0      -7.519   1.508 128.967  0.00  0.00    +0.000 C 
ATOM     15  S   UNK A   3      -7.445   2.895 130.170  0.00  0.00    +0.000 S 
ATOM     16  S   UNK A   3      -6.279   2.577 131.632  0.00  0.00    +0.000 S 
ATOM     17  C   UNK A   3      -6.050   3.449 133.065  0.00  0.00    +0.000 C 
ATOM     18  C   UNK A   3      -5.181   2.916 134.179  0.00  0.00    +0.000 C 
ATOM     19  N   UNK A   3      -5.787   1.687 134.750  0.00  0.00    +0.000 N 
ATOM     20  C   ASN A   2      -6.031   0.507 134.038  0.00  0.00    +0.000 C 
ATOM     21  O   ASN A   2      -6.580  -0.473 134.534  0.00  0.00    +0.000 OA
ATOM     22  CA  ASN A   2      -5.591   0.369 132.565  0.00  0.00    +0.000 C 
ATOM     23  N   ASN A   2      -4.702  -0.631 132.134  0.00  0.00    +0.000 N 
ATOM     24  C   TYR A   1      -4.941  -1.411 130.619  0.00  0.00    +0.000 C 
ATOM     25  O   TYR A   1      -4.444  -2.470 131.832  0.00  0.00    +0.000 OA
ATOM     26  H   TYR A   1      -7.564  -1.399 125.438  0.00  0.00    +0.000 HD
ATOM     27  H   TYR A   1     -10.751   1.422 123.629  0.00  0.00    +0.000 HD
ATOM     28  H   TYR A   1      -6.901   3.969 125.363  0.00  0.00    +0.000 HD
ATOM     29  H   UNK A   3      -6.063   1.739 135.742  0.00  0.00    +0.000 HD
ATOM     30  H   ASN A   2      -3.734  -0.356 131.997  0.00  0.00    +0.000 HD
ENDROOT
BRANCH  18  31
ATOM     31  C   UNK A   3      -5.027   4.049 135.247  0.00  0.00    +0.000 C 
ATOM     32  O   UNK A   3      -5.240   5.212 134.888  0.00  0.00    +0.000 OA
ATOM     33  N   PRO A   4      -4.710   3.686 136.585  0.00  0.00    +0.000 N 
ATOM     34  CD  PRO A   4      -3.676   2.766 137.059  0.00  0.00    +0.000 C 
ATOM     35  CG  PRO A   4      -4.344   2.079 138.219  0.00  0.00    +0.000 C 
ATOM     36  CB  PRO A   4      -5.037   3.238 138.933  0.00  0.00    +0.000 C 
ATOM     37  CA  PRO A   4      -5.423   4.215 137.811  0.00  0.00    +0.000 C 
BRANCH  37  38
ATOM     38  C   PRO A   4      -4.951   5.608 138.187  0.00  0.00    +0.000 C 
ATOM     39  O   PRO A   4      -4.131   5.653 139.109  0.00  0.00    +0.000 OA
ATOM     40  N   UNK A   5      -5.499   6.743 137.557  0.00  0.00    +0.000 N 
ATOM     41  H   UNK A   5      -6.260   6.679 136.882  0.00  0.00    +0.000 HD
BRANCH  40  42
ATOM     42  C   UNK A   5      -5.013   8.122 137.857  0.00  0.00    +0.000 C 
BRANCH  42  43
ATOM     43  C   UNK A   5      -6.196   9.127 137.978  0.00  0.00    +0.000 C 
ATOM     44  O   UNK A   5      -5.957  10.339 137.933  0.00  0.00    +0.000 OA
ATOM     45  N   GLY A   6      -7.499   8.638 138.137  0.00  0.00    +0.000 N 
ATOM     46  H   GLY A   6      -7.714   7.637 138.174  0.00  0.00    +0.000 HD
BRANCH  45  47
ATOM     47  CA  GLY A   6      -8.665   9.554 138.265  0.00  0.00    +0.000 C 
BRANCH  47  48
ATOM     48  C   GLY A   6      -9.897   9.004 137.534  0.00  0.00    +0.000 C 
ATOM     49  O   GLY A   6     -10.988   8.985 138.102  0.00  0.00    +0.000 OA
BRANCH  48  50
ATOM     50  OXT GLY A   6      -9.757   8.541 136.257  0.00  0.00    +0.000 OA
ATOM     51  HXT GLY A   6     -10.484   8.082 135.788  0.00  0.00    +0.000 HD
ENDBRANCH  48  50
ENDBRANCH  47  48
ENDBRANCH  45  47
ENDBRANCH  42  43
BRANCH  42  52
ATOM     52  C   UNK A   5      -4.074   8.574 136.759  0.00  0.00    +0.000 C 
BRANCH  52  53
ATOM     53  C   UNK A   5      -2.661   8.705 137.247  0.00  0.00    +0.000 C 
BRANCH  53  54
ATOM     54  C   UNK A   5      -1.850   7.480 137.065  0.00  0.00    +0.000 C 
BRANCH  54  55
ATOM     55  C   UNK A   5      -1.063   7.517 135.773  0.00  0.00    +0.000 C 
BRANCH  55  56
ATOM     56  N   UNK A   5      -1.501   6.470 134.837  0.00  0.00    +0.000 N 
ATOM     57  C   UNK A   5      -0.984   6.411 133.534  0.00  0.00    +0.000 C 
ATOM     58  O   UNK A   5      -0.157   7.227 133.122  0.00  0.00    +0.000 OA
ATOM     59  H   UNK A   5      -2.182   5.805 135.188  0.00  0.00    +0.000 HD
BRANCH  57  60
ATOM     60  C   UNK A   5      -1.476   5.298 132.600  0.00  0.00    +0.000 C 
BRANCH  60  61
ATOM     61  C   UNK A   5      -1.827   5.872 131.232  0.00  0.00    +0.000 C 
BRANCH  61  62
ATOM     62  C   UNK A   5      -3.171   5.379 130.758  0.00  0.00    +0.000 C 
BRANCH  62  63
ATOM     63  C   UNK A   5      -4.093   6.537 130.460  0.00  0.00    +0.000 C 
BRANCH  63  64
ATOM     64  C   UNK A   5      -5.530   6.077 130.423  0.00  0.00    +0.000 C 
BRANCH  64  65
ATOM     65  C   UNK A   5      -6.375   6.894 131.370  0.00  0.00    +0.000 C 
BRANCH  65  66
ATOM     66  C   UNK A   5      -7.844   6.675 131.098  0.00  0.00    +0.000 C 
BRANCH  66  67
ATOM     67  C   UNK A   5      -8.530   6.101 132.315  0.00  0.00    +0.000 C 
BRANCH  67  68
ATOM     68  C   UNK A   5      -9.820   5.415 131.926  0.00  0.00    +0.000 C 
BRANCH  68  69
ATOM     69  C   UNK A   5     -10.777   6.396 131.288  0.00  0.00    +0.000 C 
BRANCH  69  70
ATOM     70  N   UNK A   5     -12.117   6.213 131.823  0.00  0.00    +0.000 NA
ATOM     71  H   UNK A   5     -12.097   6.317 132.837  0.00  0.00    +0.000 HD
ATOM     72  H   UNK A   5     -12.453   5.276 131.602  0.00  0.00    +0.000 HD
ENDBRANCH  69  70
ENDBRANCH  68  69
ENDBRANCH  67  68
ENDBRANCH  66  67
ENDBRANCH  65  66
ENDBRANCH  64  65
ENDBRANCH  63  64
ENDBRANCH  62  63
ENDBRANCH  61  62
ENDBRANCH  60  61
ENDBRANCH  57  60
ENDBRANCH  55  56
ENDBRANCH  54  55
ENDBRANCH  53  54
ENDBRANCH  52  53
ENDBRANCH  42  52
ENDBRANCH  40  42
ENDBRANCH  37  38
ENDBRANCH  18  31
BRANCH  13  73
ATOM     73  O   UNK A   0      -8.629   0.875 127.171  0.00  0.00    +0.000 OA
ATOM     74  H   UNK A   0      -8.233   0.109 127.490  0.00  0.00    +0.000 HD
ENDBRANCH  13  73
BRANCH  22  75
ATOM     75  CB  ASN A   2      -6.827   0.228 131.739  0.00  0.00    +0.000 C 
BRANCH  75  76
ATOM     76  CG  ASN A   2      -8.128   0.355 132.234  0.00  0.00    +0.000 C 
ATOM     77  ND2 ASN A   2      -8.919   1.991 133.035  0.00  0.00    +0.000 N 
ATOM     78  OD1 ASN A   2      -9.100  -0.515 131.871  0.00  0.00    +0.000 OA
ATOM     79 HD21 ASN A   2      -7.996   2.455 132.082  0.00  0.00    +0.000 HD
ATOM     80 HD22 ASN A   2      -9.583   2.708 132.643  0.00  0.00    +0.000 HD
ENDBRANCH  75  76
ENDBRANCH  22  75
BRANCH   9  81
ATOM     81  CB  TYR A   1      -6.531   1.140 125.779  0.00  0.00    +0.000 C 
BRANCH  81  82
ATOM     82  CG  TYR A   1      -4.991   1.774 126.296  0.00  0.00    +0.000 A 
ATOM     83  CD1 TYR A   1      -4.822   3.705 125.280  0.00  0.00    +0.000 A 
ATOM     84  CE1 TYR A   1      -4.401   4.850 126.280  0.00  0.00    +0.000 A 
ATOM     85  CZ  TYR A   1      -3.321   4.474 127.005  0.00  0.00    +0.000 A 
ATOM     86  CE2 TYR A   1      -3.084   3.096 127.122  0.00  0.00    +0.000 A 
ATOM     87  CD2 TYR A   1      -4.061   1.957 127.168  0.00  0.00    +0.000 A 
BRANCH  85  88
ATOM     88  OH  TYR A   1      -2.393   5.350 127.478  0.00  0.00    +0.000 OA
ATOM     89  HH  TYR A   1      -1.479   5.018 127.568  0.00  0.00    +0.000 HD
ENDBRANCH  85  88
ENDBRANCH  81  82
ENDBRANCH   9  81
BRANCH   5  90
ATOM     90  CB  TYR A   1      -8.412   3.210 122.453  0.00  0.00    +0.000 C 
BRANCH  90  91
ATOM     91  CG  TYR A   1      -7.292   3.555 121.527  0.00  0.00    +0.000 A 
ATOM     92  CD1 TYR A   1      -6.002   3.614 121.977  0.00  0.00    +0.000 A 
ATOM     93  CE1 TYR A   1      -5.076   4.321 121.244  0.00  0.00    +0.000 A 
ATOM     94  CZ  TYR A   1      -5.299   4.677 119.947  0.00  0.00    +0.000 A 
ATOM     95  CE2 TYR A   1      -6.565   4.549 119.471  0.00  0.00    +0.000 A 
ATOM     96  CD2 TYR A   1      -7.547   3.965 120.236  0.00  0.00    +0.000 A 
ENDBRANCH  90  91
ENDBRANCH   5  90
BRANCH   1  97
ATOM     97  CB  TYR A   1      -7.277  -2.579 131.691  0.00  0.00    +0.000 C 
BRANCH  97  99
ATOM     98  CD1 TYR A   1      -6.837  -3.978 133.852  0.00  0.00    +0.000 C 
ATOM     99  CG  TYR A   1      -8.036  -3.266 133.739  0.00  0.00    +0.000 C 
ATOM    100  CD2 TYR A   1      -8.050  -3.373 135.830  0.00  0.00    +0.000 C 
ENDBRANCH  97  99
ENDBRANCH   1  97
TORSDOF 33
ENDMDL
MODEL 2
REMARK VINA RESULT:      -9.9      1.322      2.053
REMARK  Name = CHEMBL1765671
REMARK  35 active torsions:
REMARK  status: ('A' for Active; 'I' for Inactive)
REMARK    1  A    between atoms: CD1_1  and  CG_2
REMARK    2  A    between atoms: CG_2  and  CD2_3
REMARK    3  A    between atoms: CG_2  and  CB_4
REMARK    4  A    between atoms: CB_4  and  CA_5
REMARK    5  A    between atoms: CA_9  and  CB_10
REMARK    6  A    between atoms: CB_10  and  CG_11
REMARK    7  A    between atoms: CA_20  and  CB_21
REMARK    8  A    between atoms: CB_21  and  CG_22
REMARK    9  A    between atoms: CZ_25  and  OH_26
REMARK   10  A    between atoms: C_32  and  O_33
REMARK   11  A    between atoms: C_38  and  C_39
REMARK   12  A    between atoms: CA_45  and  C_46
REMARK   13  A    between atoms: N_48  and  C_49
REMARK   14  A    between atoms: C_49  and  C_50
REMARK   15  A    between atoms: C_49  and  C_68
REMARK   16  A    between atoms: C_50  and  C_51
REMARK   17  A    between atoms: C_51  and  C_52
REMARK   18  A    between atoms: C_52  and  C_53
REMARK   19  A    between atoms: C_53  and  N_54
REMARK   20  A    between atoms: C_55  and  C_57
REMARK   21  A    between atoms: C_57  and  C_58
REMARK   22  A    between atoms: C_58  and  C_59
REMARK   23  A    between atoms: C_59  and  C_60
REMARK   24  A    between atoms: C_60  and  C_61
REMARK   25  A    between atoms: C_61  and  C_62
REMARK   26  A    between atoms: C_62  and  C_63
REMARK   27  A    between atoms: C_63  and  C_64
REMARK   28  A    between atoms: C_64  and  C_65
REMARK   29  A    between atoms: C_65  and  C_66
REMARK   30  A    between atoms: C_66  and  N_67
REMARK   31  A    between atoms: N_70  and  CA_71
REMARK   32  A    between atoms: CA_71  and  C_72
REMARK   33  A    between atoms: C_72  and  OXT_74
REMARK   34  A    between atoms: CA_78  and  CB_79
REMARK   35  A    between atoms: CB_79  and  CG_80
REMARK                            x       y       z     vdW  Elec       q    Type
REMARK                         _______ _______ _______ _____ _____    ______ ____
ROOT
ATOM      1  CA  TYR A   1      -6.959  -1.545 129.332  0.00  0.00    +0.000 C 
ATOM      2  N   TYR A   1      -7.465  -0.777 126.852  0.00  0.00    +0.000 N 
ATOM      3  C   TYR A   1      -7.663   0.320 124.786  0.00  0.00    +0.000 C 
ATOM      4  O   TYR A   1      -6.799   0.647 123.309  0.00  0.00    +0.000 OA
ATOM      5  CA  TYR A   1      -8.650   1.457 122.964  0.00  0.00    +0.000 C 
ATOM      6  N   TYR A   1      -9.823   1.787 123.665  0.00  0.00    +0.000 N 
ATOM      7  C   TYR A   1      -9.228   1.871 124.871  0.00  0.00    +0.000 C 
ATOM      8  O   TYR A   1      -9.959   1.645 125.797  0.00  0.00    +0.000 OA
ATOM      9  CA  TYR A   1      -7.615   2.181 124.976  0.00  0.00    +0.000 C 
ATOM     10  N   TYR A   1      -7.409   3.294 125.722  0.00  0.00    +0.000 N 
ATOM     11  C   UNK A   0      -7.754   3.353 127.066  0.00  0.00    +0.000 C 
ATOM     12  O   UNK A   0      -7.533   4.375 127.712  0.00  0.00    +0.000 OA
ATOM     13  C   UNK A   0      -8.415   2.155 127.778  0.00  0.00    +0.000 C 
ATOM     14  C   UNK A   0      -7.582   1.665 128.909  0.00  0.00    +0.000 C 
ATOM     15  S   UNK A   3      -7.490   3.073 130.085  0.00  0.00    +0.000 S 
ATOM     16  S   UNK A   3      -6.328   2.769 131.553  0.00  0.00    +0.000 S 
ATOM     17  C   UNK A   3      -6.089   3.664 132.969  0.00  0.00    +0.000 C 
ATOM     18  C   UNK A   3      -5.226   3.142 134.094  0.00  0.00    +0.000 C 
ATOM     19  N   UNK A   3      -5.848   1.932 134.688  0.00  0.00    +0.000 N 
ATOM     20  C   ASN A   2      -6.106   0.742 133.998  0.00  0.00    +0.000 C 
ATOM     21  O   ASN A   2      -6.668  -0.222 134.512  0.00  0.00    +0.000 OA
ATOM     22  CA  ASN A   2      -5.668   0.570 132.528  0.00  0.00    +0.000 C 
ATOM     23  N   ASN A   2      -4.792  -0.449 132.116  0.00  0.00    +0.000 N 
ATOM     24  C   TYR A   1      -5.041  -1.255 130.616  0.00  0.00    +0.000 C 
ATOM     25  O   TYR A   1      -4.558  -2.296 131.849  0.00  0.00    +0.000 OA
ATOM     26  H   TYR A   1      -7.664  -1.307 125.436  0.00  0.00    +0.000 HD
ATOM     27  H   TYR A   1     -10.816   1.518 123.573  0.00  0.00    +0.000 HD
ATOM     28  H   TYR A   1      -6.933   4.049 125.259  0.00  0.00    +0.000 HD
ATOM     29  H   UNK A   3      -6.122   2.006 135.679  0.00  0.00    +0.000 HD
ATOM     30  H   ASN A   2      -3.821  -0.189 131.974  0.00  0.00    +0.000 HD
ENDROOT
BRANCH  18  31
ATOM     31  C   UNK A   3      -5.058   4.293 135.140  0.00  0.00    +0.000 C 
ATOM     32  O   UNK A   3      -5.265   5.451 134.762  0.00  0.00    +0.000 OA
ATOM     33  N   PRO A   4      -4.734   3.953 136.482  0.00  0.00    +0.000 N 
ATOM     34  CD  PRO A   4      -3.703   3.034 136.966  0.00  0.00    +0.000 C 
ATOM     35  CG  PRO A   4      -4.368   2.372 138.142  0.00  0.00    +0.000 C 
ATOM     36  CB  PRO A   4      -5.048   3.549 138.840  0.00  0.00    +0.000 C 
ATOM     37  CA  PRO A   4      -5.435   4.508 137.703  0.00  0.00    +0.000 C 
BRANCH  37  38
ATOM     38  C   PRO A   4      -4.952   5.905 138.051  0.00  0.00    +0.000 C 
ATOM     39  O   PRO A   4      -4.553   6.047 139.210  0.00  0.00    +0.000 OA
ATOM     40  N   UNK A   5      -5.049   6.949 137.111  0.00  0.00    +0.000 N 
ATOM     41  H   UNK A   5      -5.492   6.826 136.201  0.00  0.00    +0.000 HD
BRANCH  40  42
ATOM     42  C   UNK A   5      -4.525   8.318 137.397  0.00  0.00    +0.000 C 
BRANCH  42  43
ATOM     43  C   UNK A   5      -5.683   9.325 137.660  0.00  0.00    +0.000 C 
ATOM     44  O   UNK A   5      -5.413  10.525 137.788  0.00  0.00    +0.000 OA
ATOM     45  N   GLY A   6      -6.999   8.852 137.746  0.00  0.00    +0.000 N 
ATOM     46  H   GLY A   6      -7.239   7.862 137.640  0.00  0.00    +0.000 HD
BRANCH  45  47
ATOM     47  CA  GLY A   6      -8.141   9.770 138.002  0.00  0.00    +0.000 C 
BRANCH  47  48
ATOM     48  C   GLY A   6      -8.434   9.901 139.503  0.00  0.00    +0.000 C 
ATOM     49  O   GLY A   6      -7.760   9.269 140.316  0.00  0.00    +0.000 OA
BRANCH  48  50
ATOM     50  OXT GLY A   6      -9.446  10.722 139.910  0.00  0.00    +0.000 OA
ATOM     51  HXT GLY A   6      -9.925  10.577 140.752  0.00  0.00    +0.000 HD
ENDBRANCH  48  50
ENDBRANCH  47  48
ENDBRANCH  45  47
ENDBRANCH  42  43
BRANCH  42  52
ATOM     52  C   UNK A   5      -3.695   8.794 136.223  0.00  0.00    +0.000 C 
BRANCH  52  53
ATOM     53  C   UNK A   5      -2.888   7.681 135.620  0.00  0.00    +0.000 C 
BRANCH  53  54
ATOM     54  C   UNK A   5      -2.314   8.011 134.295  0.00  0.00    +0.000 C 
BRANCH  54  55
ATOM     55  C   UNK A   5      -2.506   6.882 133.306  0.00  0.00    +0.000 C 
BRANCH  55  56
ATOM     56  N   UNK A   5      -3.785   6.996 132.589  0.00  0.00    +0.000 N 
ATOM     57  C   UNK A   5      -3.843   6.847 131.196  0.00  0.00    +0.000 C 
ATOM     58  O   UNK A   5      -2.836   6.622 130.521  0.00  0.00    +0.000 OA
ATOM     59  H   UNK A   5      -4.607   7.181 133.156  0.00  0.00    +0.000 HD
BRANCH  57  60
ATOM     60  C   UNK A   5      -5.203   6.975 130.500  0.00  0.00    +0.000 C 
BRANCH  60  61
ATOM     61  C   UNK A   5      -6.333   6.818 131.513  0.00  0.00    +0.000 C 
BRANCH  61  62
ATOM     62  C   UNK A   5      -7.677   6.759 130.831  0.00  0.00    +0.000 C 
BRANCH  62  63
ATOM     63  C   UNK A   5      -8.769   6.444 131.824  0.00  0.00    +0.000 C 
BRANCH  63  64
ATOM     64  C   UNK A   5      -9.975   5.867 131.124  0.00  0.00    +0.000 C 
BRANCH  64  65
ATOM     65  C   UNK A   5     -10.271   6.631 129.856  0.00  0.00    +0.000 C 
BRANCH  65  66
ATOM     66  C   UNK A   5     -11.601   7.339 129.959  0.00  0.00    +0.000 C 
BRANCH  66  67
ATOM     67  C   UNK A   5     -12.000   7.917 128.623  0.00  0.00    +0.000 C 
BRANCH  67  68
ATOM     68  C   UNK A   5     -10.777   8.278 127.810  0.00  0.00    +0.000 C 
BRANCH  68  69
ATOM     69  C   UNK A   5     -10.834   7.637 126.442  0.00  0.00    +0.000 C 
BRANCH  69  70
ATOM     70  N   UNK A   5     -12.020   6.802 126.326  0.00  0.00    +0.000 NA
ATOM     71  H   UNK A   5     -12.665   7.216 125.653  0.00  0.00    +0.000 HD
ATOM     72  H   UNK A   5     -12.491   6.743 127.229  0.00  0.00    +0.000 HD
ENDBRANCH  69  70
ENDBRANCH  68  69
ENDBRANCH  67  68
ENDBRANCH  66  67
ENDBRANCH  65  66
ENDBRANCH  64  65
ENDBRANCH  63  64
ENDBRANCH  62  63
ENDBRANCH  61  62
ENDBRANCH  60  61
ENDBRANCH  57  60
ENDBRANCH  55  56
ENDBRANCH  54  55
ENDBRANCH  53  54
ENDBRANCH  52  53
ENDBRANCH  42  52
ENDBRANCH  40  42
ENDBRANCH  37  38
ENDBRANCH  18  31
BRANCH  13  73
ATOM     73  O   UNK A   0      -8.700   1.013 127.125  0.00  0.00    +0.000 OA
ATOM     74  H   UNK A   0      -8.245   0.871 126.338  0.00  0.00    +0.000 HD
ENDBRANCH  13  73
BRANCH  22  75
ATOM     75  CB  ASN A   2      -6.906   0.429 131.705  0.00  0.00    +0.000 C 
BRANCH  75  76
ATOM     76  CG  ASN A   2      -8.206   0.536 132.207  0.00  0.00    +0.000 C 
ATOM     77  ND2 ASN A   2      -8.992   2.134 133.085  0.00  0.00    +0.000 N 
ATOM     78  OD1 ASN A   2      -9.181  -0.313 131.803  0.00  0.00    +0.000 OA
ATOM     79 HD21 ASN A   2      -8.069   2.641 132.154  0.00  0.00    +0.000 HD
ATOM     80 HD22 ASN A   2      -9.654   2.872 132.728  0.00  0.00    +0.000 HD
ENDBRANCH  75  76
ENDBRANCH  22  75
BRANCH   9  81
ATOM     81  CB  TYR A   1      -6.599   1.225 125.729  0.00  0.00    +0.000 C 
BRANCH  81  82
ATOM     82  CG  TYR A   1      -5.114   1.883 126.364  0.00  0.00    +0.000 A 
ATOM     83  CD1 TYR A   1      -4.850   3.774 125.292  0.00  0.00    +0.000 A 
ATOM     84  CE1 TYR A   1      -4.524   4.958 126.282  0.00  0.00    +0.000 A 
ATOM     85  CZ  TYR A   1      -3.518   4.614 127.121  0.00  0.00    +0.000 A 
ATOM     86  CE2 TYR A   1      -3.294   3.243 127.314  0.00  0.00    +0.000 A 
ATOM     87  CD2 TYR A   1      -4.272   2.103 127.311  0.00  0.00    +0.000 A 
BRANCH  85  88
ATOM     88  OH  TYR A   1      -2.638   5.511 127.644  0.00  0.00    +0.000 OA
ATOM     89  HH  TYR A   1      -2.947   6.038 128.406  0.00  0.00    +0.000 HD
ENDBRANCH  85  88
ENDBRANCH  81  82
ENDBRANCH   9  81
BRANCH   5  90
ATOM     90  CB  TYR A   1      -8.453   3.254 122.364  0.00  0.00    +0.000 C 
BRANCH  90  91
ATOM     91  CG  TYR A   1      -7.309   3.574 121.458  0.00  0.00    +0.000 A 
ATOM     92  CD1 TYR A   1      -6.026   3.589 121.928  0.00  0.00    +0.000 A 
ATOM     93  CE1 TYR A   1      -5.067   4.274 121.217  0.00  0.00    +0.000 A 
ATOM     94  CZ  TYR A   1      -5.259   4.651 119.920  0.00  0.00    +0.000 A 
ATOM     95  CE2 TYR A   1      -6.521   4.567 119.425  0.00  0.00    +0.000 A 
ATOM     96  CD2 TYR A   1      -7.532   4.006 120.168  0.00  0.00    +0.000 A 
ENDBRANCH  90  91
ENDBRANCH   5  90
BRANCH   1  97
ATOM     97  CB  TYR A   1      -7.392  -2.373 131.710  0.00  0.00    +0.000 C 
BRANCH  97  99
ATOM     98  CD1 TYR A   1      -6.712  -3.924 133.698  0.00  0.00    +0.000 C 
ATOM     99  CG  TYR A   1      -8.006  -3.393 133.665  0.00  0.00    +0.000 C 
ATOM    100  CD2 TYR A   1      -7.969  -3.737 135.730  0.00  0.00    +0.000 C 
ENDBRANCH  97  99
ENDBRANCH   1  97
TORSDOF 33
ENDMDL
MODEL 3
REMARK VINA RESULT:      -9.6      1.722      2.300
REMARK  Name = CHEMBL1765671
REMARK  35 active torsions:
REMARK  status: ('A' for Active; 'I' for Inactive)
REMARK    1  A    between atoms: CD1_1  and  CG_2
REMARK    2  A    between atoms: CG_2  and  CD2_3
REMARK    3  A    between atoms: CG_2  and  CB_4
REMARK    4  A    between atoms: CB_4  and  CA_5
REMARK    5  A    between atoms: CA_9  and  CB_10
REMARK    6  A    between atoms: CB_10  and  CG_11
REMARK    7  A    between atoms: CA_20  and  CB_21
REMARK    8  A    between atoms: CB_21  and  CG_22
REMARK    9  A    between atoms: CZ_25  and  OH_26
REMARK   10  A    between atoms: C_32  and  O_33
REMARK   11  A    between atoms: C_38  and  C_39
REMARK   12  A    between atoms: CA_45  and  C_46
REMARK   13  A    between atoms: N_48  and  C_49
REMARK   14  A    between atoms: C_49  and  C_50
REMARK   15  A    between atoms: C_49  and  C_68
REMARK   16  A    between atoms: C_50  and  C_51
REMARK   17  A    between atoms: C_51  and  C_52
REMARK   18  A    between atoms: C_52  and  C_53
REMARK   19  A    between atoms: C_53  and  N_54
REMARK   20  A    between atoms: C_55  and  C_57
REMARK   21  A    between atoms: C_57  and  C_58
REMARK   22  A    between atoms: C_58  and  C_59
REMARK   23  A    between atoms: C_59  and  C_60
REMARK   24  A    between atoms: C_60  and  C_61
REMARK   25  A    between atoms: C_61  and  C_62
REMARK   26  A    between atoms: C_62  and  C_63
REMARK   27  A    between atoms: C_63  and  C_64
REMARK   28  A    between atoms: C_64  and  C_65
REMARK   29  A    between atoms: C_65  and  C_66
REMARK   30  A    between atoms: C_66  and  N_67
REMARK   31  A    between atoms: N_70  and  CA_71
REMARK   32  A    between atoms: CA_71  and  C_72
REMARK   33  A    between atoms: C_72  and  OXT_74
REMARK   34  A    between atoms: CA_78  and  CB_79
REMARK   35  A    between atoms: CB_79  and  CG_80
REMARK                            x       y       z     vdW  Elec       q    Type
REMARK                         _______ _______ _______ _____ _____    ______ ____
ROOT
ATOM      1  CA  TYR A   1      -5.610  -2.547 128.516  0.00  0.00    +0.000 C 
ATOM      2  N   TYR A   1      -6.618  -1.585 126.268  0.00  0.00    +0.000 N 
ATOM      3  C   TYR A   1      -7.351  -0.289 124.452  0.00  0.00    +0.000 C 
ATOM      4  O   TYR A   1      -6.800   0.455 122.977  0.00  0.00    +0.000 OA
ATOM      5  CA  TYR A   1      -8.818   0.809 122.959  0.00  0.00    +0.000 C 
ATOM      6  N   TYR A   1      -9.928   0.725 123.818  0.00  0.00    +0.000 N 
ATOM      7  C   TYR A   1      -9.209   0.785 124.956  0.00  0.00    +0.000 C 
ATOM      8  O   TYR A   1      -9.733   0.249 125.897  0.00  0.00    +0.000 OA
ATOM      9  CA  TYR A   1      -7.716   1.475 124.955  0.00  0.00    +0.000 C 
ATOM     10  N   TYR A   1      -7.677   2.485 125.858  0.00  0.00    +0.000 N 
ATOM     11  C   UNK A   0      -7.838   2.261 127.220  0.00  0.00    +0.000 C 
ATOM     12  O   UNK A   0      -7.777   3.202 128.008  0.00  0.00    +0.000 OA
ATOM     13  C   UNK A   0      -8.094   0.845 127.775  0.00  0.00    +0.000 C 
ATOM     14  C   UNK A   0      -7.023   0.426 128.717  0.00  0.00    +0.000 C 
ATOM     15  S   UNK A   3      -7.103   1.628 130.105  0.00  0.00    +0.000 S 
ATOM     16  S   UNK A   3      -5.712   1.421 131.377  0.00  0.00    +0.000 S 
ATOM     17  C   UNK A   3      -5.497   2.136 132.896  0.00  0.00    +0.000 C 
ATOM     18  C   UNK A   3      -4.390   1.694 133.824  0.00  0.00    +0.000 C 
ATOM     19  N   UNK A   3      -4.623   0.294 134.258  0.00  0.00    +0.000 N 
ATOM     20  C   ASN A   2      -4.686  -0.812 133.401  0.00  0.00    +0.000 C 
ATOM     21  O   ASN A   2      -4.930  -1.950 133.794  0.00  0.00    +0.000 OA
ATOM     22  CA  ASN A   2      -4.426  -0.654 131.888  0.00  0.00    +0.000 C 
ATOM     23  N   ASN A   2      -3.401  -1.347 131.222  0.00  0.00    +0.000 N 
ATOM     24  C   TYR A   1      -3.656  -1.966 129.637  0.00  0.00    +0.000 C 
ATOM     25  O   TYR A   1      -2.777  -3.016 130.618  0.00  0.00    +0.000 OA
ATOM     26  H   TYR A   1      -6.880  -1.940 124.807  0.00  0.00    +0.000 HD
ATOM     27  H   TYR A   1     -10.833   0.230 123.778  0.00  0.00    +0.000 HD
ATOM     28  H   TYR A   1      -7.460   3.395 125.489  0.00  0.00    +0.000 HD
ATOM     29  H   UNK A   3      -4.768   0.152 135.268  0.00  0.00    +0.000 HD
ATOM     30  H   ASN A   2      -2.547  -0.831 131.033  0.00  0.00    +0.000 HD
ENDROOT
BRANCH  18  31
ATOM     31  C   UNK A   3      -4.355   2.688 135.031  0.00  0.00    +0.000 C 
ATOM     32  O   UNK A   3      -4.495   3.892 134.792  0.00  0.00    +0.000 OA
ATOM     33  N   PRO A   4      -4.224   2.159 136.345  0.00  0.00    +0.000 N 
ATOM     34  CD  PRO A   4      -3.279   1.154 136.833  0.00  0.00    +0.000 C 
ATOM     35  CG  PRO A   4      -4.108   0.359 137.806  0.00  0.00    +0.000 C 
ATOM     36  CB  PRO A   4      -4.865   1.450 138.561  0.00  0.00    +0.000 C 
ATOM     37  CA  PRO A   4      -5.081   2.566 137.525  0.00  0.00    +0.000 C 
BRANCH  37  38
ATOM     38  C   PRO A   4      -4.634   3.887 138.124  0.00  0.00    +0.000 C 
ATOM     39  O   PRO A   4      -4.137   3.810 139.252  0.00  0.00    +0.000 OA
ATOM     40  N   UNK A   5      -4.867   5.097 137.441  0.00  0.00    +0.000 N 
ATOM     41  H   UNK A   5      -5.385   5.138 136.564  0.00  0.00    +0.000 HD
BRANCH  40  42
ATOM     42  C   UNK A   5      -4.385   6.407 137.971  0.00  0.00    +0.000 C 
BRANCH  42  43
ATOM     43  C   UNK A   5      -5.571   7.305 138.430  0.00  0.00    +0.000 C 
ATOM     44  O   UNK A   5      -5.901   7.294 139.621  0.00  0.00    +0.000 OA
ATOM     45  N   GLY A   6      -6.236   8.099 137.488  0.00  0.00    +0.000 N 
ATOM     46  H   GLY A   6      -5.973   8.121 136.497  0.00  0.00    +0.000 HD
BRANCH  45  47
ATOM     47  CA  GLY A   6      -7.380   8.970 137.871  0.00  0.00    +0.000 C 
BRANCH  47  48
ATOM     48  C   GLY A   6      -8.722   8.354 137.454  0.00  0.00    +0.000 C 
ATOM     49  O   GLY A   6      -9.005   7.209 137.804  0.00  0.00    +0.000 OA
BRANCH  48  50
ATOM     50  OXT GLY A   6      -9.582   9.095 136.695  0.00  0.00    +0.000 OA
ATOM     51  HXT GLY A   6      -9.305   9.509 135.851  0.00  0.00    +0.000 HD
ENDBRANCH  48  50
ENDBRANCH  47  48
ENDBRANCH  45  47
ENDBRANCH  42  43
BRANCH  42  52
ATOM     52  C   UNK A   5      -3.593   7.122 136.897  0.00  0.00    +0.000 C 
BRANCH  52  53
ATOM     53  C   UNK A   5      -2.498   6.260 136.339  0.00  0.00    +0.000 C 
BRANCH  53  54
ATOM     54  C   UNK A   5      -2.050   6.665 134.986  0.00  0.00    +0.000 C 
BRANCH  54  55
ATOM     55  C   UNK A   5      -3.167   7.312 134.198  0.00  0.00    +0.000 C 
BRANCH  55  56
ATOM     56  N   UNK A   5      -3.941   6.322 133.434  0.00  0.00    +0.000 N 
ATOM     57  C   UNK A   5      -4.056   6.422 132.039  0.00  0.00    +0.000 C 
ATOM     58  O   UNK A   5      -3.525   7.335 131.404  0.00  0.00    +0.000 OA
ATOM     59  H   UNK A   5      -4.374   5.575 133.968  0.00  0.00    +0.000 HD
BRANCH  57  60
ATOM     60  C   UNK A   5      -4.875   5.361 131.293  0.00  0.00    +0.000 C 
BRANCH  60  61
ATOM     61  C   UNK A   5      -6.033   6.015 130.546  0.00  0.00    +0.000 C 
BRANCH  61  62
ATOM     62  C   UNK A   5      -6.896   6.831 131.477  0.00  0.00    +0.000 C 
BRANCH  62  63
ATOM     63  C   UNK A   5      -8.357   6.513 131.270  0.00  0.00    +0.000 C 
BRANCH  63  64
ATOM     64  C   UNK A   5      -8.532   5.081 130.825  0.00  0.00    +0.000 C 
BRANCH  64  65
ATOM     65  C   UNK A   5      -9.703   4.443 131.533  0.00  0.00    +0.000 C 
BRANCH  65  66
ATOM     66  C   UNK A   5      -9.228   3.382 132.497  0.00  0.00    +0.000 C 
BRANCH  66  67
ATOM     67  C   UNK A   5      -9.363   3.860 133.922  0.00  0.00    +0.000 C 
BRANCH  67  68
ATOM     68  C   UNK A   5      -8.005   4.157 134.516  0.00  0.00    +0.000 C 
BRANCH  68  69
ATOM     69  C   UNK A   5      -7.876   5.625 134.851  0.00  0.00    +0.000 C 
BRANCH  69  70
ATOM     70  N   UNK A   5      -6.482   5.967 135.091  0.00  0.00    +0.000 NA
ATOM     71  H   UNK A   5      -5.966   5.128 135.356  0.00  0.00    +0.000 HD
ATOM     72  H   UNK A   5      -6.418   6.639 135.854  0.00  0.00    +0.000 HD
ENDBRANCH  69  70
ENDBRANCH  68  69
ENDBRANCH  67  68
ENDBRANCH  66  67
ENDBRANCH  65  66
ENDBRANCH  64  65
ENDBRANCH  63  64
ENDBRANCH  62  63
ENDBRANCH  61  62
ENDBRANCH  60  61
ENDBRANCH  57  60
ENDBRANCH  55  56
ENDBRANCH  54  55
ENDBRANCH  53  54
ENDBRANCH  52  53
ENDBRANCH  42  52
ENDBRANCH  40  42
ENDBRANCH  37  38
ENDBRANCH  18  31
BRANCH  13  73
ATOM     73  O   UNK A   0      -8.190  -0.226 126.965  0.00  0.00    +0.000 OA
ATOM     74  H   UNK A   0      -8.968  -0.300 126.481  0.00  0.00    +0.000 HD
ENDBRANCH  13  73
BRANCH  22  75
ATOM     75  CB  ASN A   2      -5.697  -0.985 131.177  0.00  0.00    +0.000 C 
BRANCH  75  76
ATOM     76  CG  ASN A   2      -6.871  -1.406 131.811  0.00  0.00    +0.000 C 
ATOM     77  ND2 ASN A   2      -7.504  -0.828 133.602  0.00  0.00    +0.000 N 
ATOM     78  OD1 ASN A   2      -7.884  -1.960 131.103  0.00  0.00    +0.000 OA
ATOM     79 HD21 ASN A   2      -6.803   0.275 133.084  0.00  0.00    +0.000 HD
ATOM     80 HD22 ASN A   2      -8.245  -0.137 133.890  0.00  0.00    +0.000 HD
ENDBRANCH  75  76
ENDBRANCH  22  75
BRANCH   9  81
ATOM     81  CB  TYR A   1      -6.410   0.711 125.428  0.00  0.00    +0.000 C 
BRANCH  81  82
ATOM     82  CG  TYR A   1      -5.060   1.625 126.046  0.00  0.00    +0.000 A 
ATOM     83  CD1 TYR A   1      -5.245   3.588 125.096  0.00  0.00    +0.000 A 
ATOM     84  CE1 TYR A   1      -5.116   4.754 126.150  0.00  0.00    +0.000 A 
ATOM     85  CZ  TYR A   1      -4.018   4.579 126.921  0.00  0.00    +0.000 A 
ATOM     86  CE2 TYR A   1      -3.507   3.275 127.012  0.00  0.00    +0.000 A 
ATOM     87  CD2 TYR A   1      -4.230   1.960 126.971  0.00  0.00    +0.000 A 
BRANCH  85  88
ATOM     88  OH  TYR A   1      -3.313   5.607 127.469  0.00  0.00    +0.000 OA
ATOM     89  HH  TYR A   1      -3.825   6.288 127.944  0.00  0.00    +0.000 HD
ENDBRANCH  85  88
ENDBRANCH  81  82
ENDBRANCH   9  81
BRANCH   5  90
ATOM     90  CB  TYR A   1      -9.134   2.664 122.663  0.00  0.00    +0.000 C 
BRANCH  90  91
ATOM     91  CG  TYR A   1      -8.245   3.385 121.703  0.00  0.00    +0.000 A 
ATOM     92  CD1 TYR A   1      -8.731   3.854 120.514  0.00  0.00    +0.000 A 
ATOM     93  CE1 TYR A   1      -7.845   4.125 119.497  0.00  0.00    +0.000 A 
ATOM     94  CZ  TYR A   1      -6.507   4.265 119.720  0.00  0.00    +0.000 A 
ATOM     95  CE2 TYR A   1      -6.030   3.869 120.929  0.00  0.00    +0.000 A 
ATOM     96  CD2 TYR A   1      -6.887   3.464 121.924  0.00  0.00    +0.000 A 
ENDBRANCH  90  91
ENDBRANCH   5  90
BRANCH   1  97
ATOM     97  CB  TYR A   1      -5.505  -3.789 130.746  0.00  0.00    +0.000 C 
BRANCH  97  99
ATOM     98  CD1 TYR A   1      -4.463  -5.224 132.663  0.00  0.00    +0.000 C 
ATOM     99  CG  TYR A   1      -5.808  -4.850 132.752  0.00  0.00    +0.000 C 
ATOM    100  CD2 TYR A   1      -5.538  -5.161 134.805  0.00  0.00    +0.000 C 
ENDBRANCH  97  99
ENDBRANCH   1  97
TORSDOF 33
ENDMDL
MODEL 4
REMARK VINA RESULT:      -8.6      2.271      5.167
REMARK  Name = CHEMBL1765671
REMARK  35 active torsions:
REMARK  status: ('A' for Active; 'I' for Inactive)
REMARK    1  A    between atoms: CD1_1  and  CG_2
REMARK    2  A    between atoms: CG_2  and  CD2_3
REMARK    3  A    between atoms: CG_2  and  CB_4
REMARK    4  A    between atoms: CB_4  and  CA_5
REMARK    5  A    between atoms: CA_9  and  CB_10
REMARK    6  A    between atoms: CB_10  and  CG_11
REMARK    7  A    between atoms: CA_20  and  CB_21
REMARK    8  A    between atoms: CB_21  and  CG_22
REMARK    9  A    between atoms: CZ_25  and  OH_26
REMARK   10  A    between atoms: C_32  and  O_33
REMARK   11  A    between atoms: C_38  and  C_39
REMARK   12  A    between atoms: CA_45  and  C_46
REMARK   13  A    between atoms: N_48  and  C_49
REMARK   14  A    between atoms: C_49  and  C_50
REMARK   15  A    between atoms: C_49  and  C_68
REMARK   16  A    between atoms: C_50  and  C_51
REMARK   17  A    between atoms: C_51  and  C_52
REMARK   18  A    between atoms: C_52  and  C_53
REMARK   19  A    between atoms: C_53  and  N_54
REMARK   20  A    between atoms: C_55  and  C_57
REMARK   21  A    between atoms: C_57  and  C_58
REMARK   22  A    between atoms: C_58  and  C_59
REMARK   23  A    between atoms: C_59  and  C_60
REMARK   24  A    between atoms: C_60  and  C_61
REMARK   25  A    between atoms: C_61  and  C_62
REMARK   26  A    between atoms: C_62  and  C_63
REMARK   27  A    between atoms: C_63  and  C_64
REMARK   28  A    between atoms: C_64  and  C_65
REMARK   29  A    between atoms: C_65  and  C_66
REMARK   30  A    between atoms: C_66  and  N_67
REMARK   31  A    between atoms: N_70  and  CA_71
REMARK   32  A    between atoms: CA_71  and  C_72
REMARK   33  A    between atoms: C_72  and  OXT_74
REMARK   34  A    between atoms: CA_78  and  CB_79
REMARK   35  A    between atoms: CB_79  and  CG_80
REMARK                            x       y       z     vdW  Elec       q    Type
REMARK                         _______ _______ _______ _____ _____    ______ ____
ROOT
ATOM      1  CA  TYR A   1      -6.861  -1.521 129.301  0.00  0.00    +0.000 C 
ATOM      2  N   TYR A   1      -7.375  -0.787 126.813  0.00  0.00    +0.000 N 
ATOM      3  C   TYR A   1      -7.599   0.293 124.740  0.00  0.00    +0.000 C 
ATOM      4  O   TYR A   1      -6.735   0.650 123.270  0.00  0.00    +0.000 OA
ATOM      5  CA  TYR A   1      -8.615   1.378 122.903  0.00  0.00    +0.000 C 
ATOM      6  N   TYR A   1      -9.809   1.659 123.590  0.00  0.00    +0.000 N 
ATOM      7  C   TYR A   1      -9.230   1.775 124.801  0.00  0.00    +0.000 C 
ATOM      8  O   TYR A   1      -9.961   1.521 125.722  0.00  0.00    +0.000 OA
ATOM      9  CA  TYR A   1      -7.633   2.154 124.921  0.00  0.00    +0.000 C 
ATOM     10  N   TYR A   1      -7.483   3.278 125.664  0.00  0.00    +0.000 N 
ATOM     11  C   UNK A   0      -7.845   3.328 127.004  0.00  0.00    +0.000 C 
ATOM     12  O   UNK A   0      -7.674   4.362 127.647  0.00  0.00    +0.000 OA
ATOM     13  C   UNK A   0      -8.460   2.106 127.716  0.00  0.00    +0.000 C 
ATOM     14  C   UNK A   0      -7.618   1.658 128.857  0.00  0.00    +0.000 C 
ATOM     15  S   UNK A   3      -7.599   3.074 130.027  0.00  0.00    +0.000 S 
ATOM     16  S   UNK A   3      -6.440   2.826 131.507  0.00  0.00    +0.000 S 
ATOM     17  C   UNK A   3      -6.254   3.738 132.922  0.00  0.00    +0.000 C 
ATOM     18  C   UNK A   3      -5.381   3.258 134.057  0.00  0.00    +0.000 C 
ATOM     19  N   UNK A   3      -5.956   2.025 134.651  0.00  0.00    +0.000 N 
ATOM     20  C   ASN A   2      -6.156   0.821 133.964  0.00  0.00    +0.000 C 
ATOM     21  O   ASN A   2      -6.681  -0.163 134.478  0.00  0.00    +0.000 OA
ATOM     22  CA  ASN A   2      -5.696   0.662 132.500  0.00  0.00    +0.000 C 
ATOM     23  N   ASN A   2      -4.773  -0.319 132.102  0.00  0.00    +0.000 N 
ATOM     24  C   TYR A   1      -4.971  -1.142 130.603  0.00  0.00    +0.000 C 
ATOM     25  O   TYR A   1      -4.456  -2.156 131.846  0.00  0.00    +0.000 OA
ATOM     26  H   TYR A   1      -7.536  -1.331 125.397  0.00  0.00    +0.000 HD
ATOM     27  H   TYR A   1     -10.788   1.348 123.489  0.00  0.00    +0.000 HD
ATOM     28  H   TYR A   1      -7.036   4.051 125.202  0.00  0.00    +0.000 HD
ATOM     29  H   UNK A   3      -6.243   2.092 135.639  0.00  0.00    +0.000 HD
ATOM     30  H   ASN A   2      -3.812  -0.018 131.968  0.00  0.00    +0.000 HD
ENDROOT
BRANCH  18  31
ATOM     31  C   UNK A   3      -5.273   4.420 135.099  0.00  0.00    +0.000 C 
ATOM     32  O   UNK A   3      -6.023   4.387 136.081  0.00  0.00    +0.000 OA
ATOM     33  N   PRO A   4      -4.285   5.423 134.902  0.00  0.00    +0.000 N 
ATOM     34  CD  PRO A   4      -3.969   6.164 133.680  0.00  0.00    +0.000 C 
ATOM     35  CG  PRO A   4      -2.470   6.282 133.736  0.00  0.00    +0.000 C 
ATOM     36  CB  PRO A   4      -2.223   6.642 135.200  0.00  0.00    +0.000 C 
ATOM     37  CA  PRO A   4      -3.340   5.922 135.974  0.00  0.00    +0.000 C 
BRANCH  37  38
ATOM     38  C   PRO A   4      -4.011   6.915 136.906  0.00  0.00    +0.000 C 
ATOM     39  O   PRO A   4      -4.327   7.990 136.388  0.00  0.00    +0.000 OA
ATOM     40  N   UNK A   5      -4.166   6.618 138.274  0.00  0.00    +0.000 N 
ATOM     41  H   UNK A   5      -3.789   5.769 138.695  0.00  0.00    +0.000 HD
BRANCH  40  42
ATOM     42  C   UNK A   5      -4.878   7.543 139.206  0.00  0.00    +0.000 C 
BRANCH  42  43
ATOM     43  C   UNK A   5      -6.422   7.368 139.109  0.00  0.00    +0.000 C 
ATOM     44  O   UNK A   5      -7.052   7.059 140.126  0.00  0.00    +0.000 OA
ATOM     45  N   GLY A   6      -7.059   7.562 137.877  0.00  0.00    +0.000 N 
ATOM     46  H   GLY A   6      -6.552   7.820 137.026  0.00  0.00    +0.000 HD
BRANCH  45  47
ATOM     47  CA  GLY A   6      -8.531   7.401 137.727  0.00  0.00    +0.000 C 
BRANCH  47  48
ATOM     48  C   GLY A   6      -9.196   8.702 137.261  0.00  0.00    +0.000 C 
ATOM     49  O   GLY A   6      -8.786   9.784 137.679  0.00  0.00    +0.000 OA
BRANCH  48  50
ATOM     50  OXT GLY A   6     -10.241   8.633 136.384  0.00  0.00    +0.000 OA
ATOM     51  HXT GLY A   6     -10.806   9.409 136.187  0.00  0.00    +0.000 HD
ENDBRANCH  48  50
ENDBRANCH  47  48
ENDBRANCH  45  47
ENDBRANCH  42  43
BRANCH  42  52
ATOM     52  C   UNK A   5      -4.507   8.973 138.874  0.00  0.00    +0.000 C 
BRANCH  52  53
ATOM     53  C   UNK A   5      -3.543   9.548 139.870  0.00  0.00    +0.000 C 
BRANCH  53  54
ATOM     54  C   UNK A   5      -2.866  10.780 139.404  0.00  0.00    +0.000 C 
BRANCH  54  55
ATOM     55  C   UNK A   5      -3.693  11.515 138.372  0.00  0.00    +0.000 C 
BRANCH  55  56
ATOM     56  N   UNK A   5      -4.304  12.732 138.929  0.00  0.00    +0.000 N 
ATOM     57  C   UNK A   5      -5.670  12.768 139.246  0.00  0.00    +0.000 C 
ATOM     58  O   UNK A   5      -6.408  11.797 139.069  0.00  0.00    +0.000 OA
ATOM     59  H   UNK A   5      -3.687  13.525 139.070  0.00  0.00    +0.000 HD
BRANCH  57  60
ATOM     60  C   UNK A   5      -6.255  14.063 139.824  0.00  0.00    +0.000 C 
BRANCH  60  61
ATOM     61  C   UNK A   5      -7.762  13.924 140.014  0.00  0.00    +0.000 C 
BRANCH  61  62
ATOM     62  C   UNK A   5      -8.441  15.272 140.010  0.00  0.00    +0.000 C 
BRANCH  62  63
ATOM     63  C   UNK A   5      -9.849  15.160 139.474  0.00  0.00    +0.000 C 
BRANCH  63  64
ATOM     64  C   UNK A   5     -10.491  13.873 139.929  0.00  0.00    +0.000 C 
BRANCH  64  65
ATOM     65  C   UNK A   5     -11.245  14.081 141.221  0.00  0.00    +0.000 C 
BRANCH  65  66
ATOM     66  C   UNK A   5     -10.533  13.405 142.368  0.00  0.00    +0.000 C 
BRANCH  66  67
ATOM     67  C   UNK A   5     -10.322  11.940 142.074  0.00  0.00    +0.000 C 
BRANCH  67  68
ATOM     68  C   UNK A   5      -9.036  11.450 142.700  0.00  0.00    +0.000 C 
BRANCH  68  69
ATOM     69  C   UNK A   5      -8.292  10.537 141.753  0.00  0.00    +0.000 C 
BRANCH  69  70
ATOM     70  N   UNK A   5      -8.929  10.541 140.444  0.00  0.00    +0.000 NA
ATOM     71  H   UNK A   5      -8.523   9.806 139.866  0.00  0.00    +0.000 HD
ATOM     72  H   UNK A   5      -8.768  11.437 139.986  0.00  0.00    +0.000 HD
ENDBRANCH  69  70
ENDBRANCH  68  69
ENDBRANCH  67  68
ENDBRANCH  66  67
ENDBRANCH  65  66
ENDBRANCH  64  65
ENDBRANCH  63  64
ENDBRANCH  62  63
ENDBRANCH  61  62
ENDBRANCH  60  61
ENDBRANCH  57  60
ENDBRANCH  55  56
ENDBRANCH  54  55
ENDBRANCH  53  54
ENDBRANCH  52  53
ENDBRANCH  42  52
ENDBRANCH  40  42
ENDBRANCH  37  38
ENDBRANCH  18  31
BRANCH  13  73
ATOM     73  O   UNK A   0      -8.689   0.950 127.065  0.00  0.00    +0.000 OA
ATOM     74  H   UNK A   0      -8.286   0.201 127.415  0.00  0.00    +0.000 HD
ENDBRANCH  13  73
BRANCH  22  75
ATOM     75  CB  ASN A   2      -6.918   0.464 131.665  0.00  0.00    +0.000 C 
BRANCH  75  76
ATOM     76  CG  ASN A   2      -8.227   0.539 132.149  0.00  0.00    +0.000 C 
ATOM     77  ND2 ASN A   2      -9.072   2.123 132.996  0.00  0.00    +0.000 N 
ATOM     78  OD1 ASN A   2      -9.171  -0.345 131.745  0.00  0.00    +0.000 OA
ATOM     79 HD21 ASN A   2      -8.153   2.646 132.070  0.00  0.00    +0.000 HD
ATOM     80 HD22 ASN A   2      -9.752   2.835 132.621  0.00  0.00    +0.000 HD
ENDBRANCH  75  76
ENDBRANCH  22  75
BRANCH   9  81
ATOM     81  CB  TYR A   1      -6.585   1.246 125.688  0.00  0.00    +0.000 C 
BRANCH  81  82
ATOM     82  CG  TYR A   1      -5.117   1.963 126.300  0.00  0.00    +0.000 A 
ATOM     83  CD1 TYR A   1      -4.957   3.872 125.241  0.00  0.00    +0.000 A 
ATOM     84  CE1 TYR A   1      -4.662   5.061 126.235  0.00  0.00    +0.000 A 
ATOM     85  CZ  TYR A   1      -3.626   4.755 127.049  0.00  0.00    +0.000 A 
ATOM     86  CE2 TYR A   1      -3.338   3.393 127.225  0.00  0.00    +0.000 A 
ATOM     87  CD2 TYR A   1      -4.266   2.212 127.232  0.00  0.00    +0.000 A 
BRANCH  85  88
ATOM     88  OH  TYR A   1      -2.775   5.685 127.563  0.00  0.00    +0.000 OA
ATOM     89  HH  TYR A   1      -2.006   5.929 127.015  0.00  0.00    +0.000 HD
ENDBRANCH  85  88
ENDBRANCH  81  82
ENDBRANCH   9  81
BRANCH   5  90
ATOM     90  CB  TYR A   1      -8.491   3.179 122.296  0.00  0.00    +0.000 C 
BRANCH  90  91
ATOM     91  CG  TYR A   1      -7.339   3.550 121.420  0.00  0.00    +0.000 A 
ATOM     92  CD1 TYR A   1      -6.066   3.593 121.918  0.00  0.00    +0.000 A 
ATOM     93  CE1 TYR A   1      -5.114   4.319 121.240  0.00  0.00    +0.000 A 
ATOM     94  CZ  TYR A   1      -5.290   4.716 119.947  0.00  0.00    +0.000 A 
ATOM     95  CE2 TYR A   1      -6.539   4.605 119.424  0.00  0.00    +0.000 A 
ATOM     96  CD2 TYR A   1      -7.548   4.000 120.135  0.00  0.00    +0.000 A 
ENDBRANCH  90  91
ENDBRANCH   5  90
BRANCH   1  97
ATOM     97  CB  TYR A   1      -7.282  -2.355 131.679  0.00  0.00    +0.000 C 
BRANCH  97  99
ATOM     98  CD1 TYR A   1      -6.815  -3.845 133.773  0.00  0.00    +0.000 C 
ATOM     99  CG  TYR A   1      -8.034  -3.163 133.685  0.00  0.00    +0.000 C 
ATOM    100  CD2 TYR A   1      -8.059  -3.374 135.768  0.00  0.00    +0.000 C 
ENDBRANCH  97  99
ENDBRANCH   1  97
TORSDOF 33
ENDMDL
MODEL 5
REMARK VINA RESULT:      -8.5      3.782     11.994
REMARK  Name = CHEMBL1765671
REMARK  35 active torsions:
REMARK  status: ('A' for Active; 'I' for Inactive)
REMARK    1  A    between atoms: CD1_1  and  CG_2
REMARK    2  A    between atoms: CG_2  and  CD2_3
REMARK    3  A    between atoms: CG_2  and  CB_4
REMARK    4  A    between atoms: CB_4  and  CA_5
REMARK    5  A    between atoms: CA_9  and  CB_10
REMARK    6  A    between atoms: CB_10  and  CG_11
REMARK    7  A    between atoms: CA_20  and  CB_21
REMARK    8  A    between atoms: CB_21  and  CG_22
REMARK    9  A    between atoms: CZ_25  and  OH_26
REMARK   10  A    between atoms: C_32  and  O_33
REMARK   11  A    between atoms: C_38  and  C_39
REMARK   12  A    between atoms: CA_45  and  C_46
REMARK   13  A    between atoms: N_48  and  C_49
REMARK   14  A    between atoms: C_49  and  C_50
REMARK   15  A    between atoms: C_49  and  C_68
REMARK   16  A    between atoms: C_50  and  C_51
REMARK   17  A    between atoms: C_51  and  C_52
REMARK   18  A    between atoms: C_52  and  C_53
REMARK   19  A    between atoms: C_53  and  N_54
REMARK   20  A    between atoms: C_55  and  C_57
REMARK   21  A    between atoms: C_57  and  C_58
REMARK   22  A    between atoms: C_58  and  C_59
REMARK   23  A    between atoms: C_59  and  C_60
REMARK   24  A    between atoms: C_60  and  C_61
REMARK   25  A    between atoms: C_61  and  C_62
REMARK   26  A    between atoms: C_62  and  C_63
REMARK   27  A    between atoms: C_63  and  C_64
REMARK   28  A    between atoms: C_64  and  C_65
REMARK   29  A    between atoms: C_65  and  C_66
REMARK   30  A    between atoms: C_66  and  N_67
REMARK   31  A    between atoms: N_70  and  CA_71
REMARK   32  A    between atoms: CA_71  and  C_72
REMARK   33  A    between atoms: C_72  and  OXT_74
REMARK   34  A    between atoms: CA_78  and  CB_79
REMARK   35  A    between atoms: CB_79  and  CG_80
REMARK                            x       y       z     vdW  Elec       q    Type
REMARK                         _______ _______ _______ _____ _____    ______ ____
ROOT
ATOM      1  CA  TYR A   1      -3.567   9.598 139.319  0.00  0.00    +0.000 C 
ATOM      2  N   TYR A   1      -1.256  10.736 138.722  0.00  0.00    +0.000 N 
ATOM      3  C   TYR A   1       0.657  11.655 137.716  0.00  0.00    +0.000 C 
ATOM      4  O   TYR A   1       1.249  13.099 136.942  0.00  0.00    +0.000 OA
ATOM      5  CA  TYR A   1       2.911  11.904 137.051  0.00  0.00    +0.000 C 
ATOM      6  N   TYR A   1       3.256  10.571 137.338  0.00  0.00    +0.000 N 
ATOM      7  C   TYR A   1       2.037  10.066 137.062  0.00  0.00    +0.000 C 
ATOM      8  O   TYR A   1       1.781   9.051 137.654  0.00  0.00    +0.000 OA
ATOM      9  CA  TYR A   1       1.016  10.873 136.055  0.00  0.00    +0.000 C 
ATOM     10  N   TYR A   1       0.667  10.072 135.018  0.00  0.00    +0.000 N 
ATOM     11  C   UNK A   0      -0.054   8.900 135.204  0.00  0.00    +0.000 C 
ATOM     12  O   UNK A   0      -0.368   8.212 134.235  0.00  0.00    +0.000 OA
ATOM     13  C   UNK A   0      -0.478   8.433 136.612  0.00  0.00    +0.000 C 
ATOM     14  C   UNK A   0      -1.957   8.336 136.732  0.00  0.00    +0.000 C 
ATOM     15  S   UNK A   3      -2.457   7.058 135.511  0.00  0.00    +0.000 S 
ATOM     16  S   UNK A   3      -4.335   6.861 135.337  0.00  0.00    +0.000 S 
ATOM     17  C   UNK A   3      -5.246   5.693 134.517  0.00  0.00    +0.000 C 
ATOM     18  C   UNK A   3      -6.749   5.630 134.652  0.00  0.00    +0.000 C 
ATOM     19  N   UNK A   3      -7.117   5.274 136.045  0.00  0.00    +0.000 N 
ATOM     20  C   ASN A   2      -6.796   6.031 137.179  0.00  0.00    +0.000 C 
ATOM     21  O   ASN A   2      -7.076   5.678 138.321  0.00  0.00    +0.000 OA
ATOM     22  CA  ASN A   2      -6.076   7.390 137.042  0.00  0.00    +0.000 C 
ATOM     23  N   ASN A   2      -6.632   8.589 137.520  0.00  0.00    +0.000 N 
ATOM     24  C   TYR A   1      -5.631   9.777 138.259  0.00  0.00    +0.000 C 
ATOM     25  O   TYR A   1      -7.115   9.595 139.035  0.00  0.00    +0.000 OA
ATOM     26  H   TYR A   1      -0.267  11.796 139.198  0.00  0.00    +0.000 HD
ATOM     27  H   TYR A   1       3.881  10.123 138.025  0.00  0.00    +0.000 HD
ATOM     28  H   TYR A   1       0.906  10.413 134.102  0.00  0.00    +0.000 HD
ATOM     29  H   UNK A   3      -7.628   4.386 136.165  0.00  0.00    +0.000 HD
ATOM     30  H   ASN A   2      -7.079   9.191 136.836  0.00  0.00    +0.000 HD
ENDROOT
BRANCH  18  31
ATOM     31  C   UNK A   3      -7.277   4.583 133.617  0.00  0.00    +0.000 C 
ATOM     32  O   UNK A   3      -7.225   3.388 133.926  0.00  0.00    +0.000 OA
ATOM     33  N   PRO A   4      -7.844   5.054 132.400  0.00  0.00    +0.000 N 
ATOM     34  CD  PRO A   4      -7.316   6.060 131.478  0.00  0.00    +0.000 C 
ATOM     35  CG  PRO A   4      -8.554   6.788 131.030  0.00  0.00    +0.000 C 
ATOM     36  CB  PRO A   4      -9.537   5.644 130.785  0.00  0.00    +0.000 C 
ATOM     37  CA  PRO A   4      -9.156   4.572 131.819  0.00  0.00    +0.000 C 
BRANCH  37  38
ATOM     38  C   PRO A   4      -9.010   3.237 131.113  0.00  0.00    +0.000 C 
ATOM     39  O   PRO A   4     -10.071   2.707 130.769  0.00  0.00    +0.000 OA
ATOM     40  N   UNK A   5      -7.741   2.645 130.958  0.00  0.00    +0.000 N 
ATOM     41  H   UNK A   5      -6.896   3.052 131.357  0.00  0.00    +0.000 HD
BRANCH  40  42
ATOM     42  C   UNK A   5      -7.554   1.365 130.213  0.00  0.00    +0.000 C 
BRANCH  42  43
ATOM     43  C   UNK A   5      -7.538   0.143 131.179  0.00  0.00    +0.000 C 
ATOM     44  O   UNK A   5      -8.569  -0.141 131.799  0.00  0.00    +0.000 OA
ATOM     45  N   GLY A   6      -6.362  -0.603 131.324  0.00  0.00    +0.000 N 
ATOM     46  H   GLY A   6      -5.500  -0.382 130.816  0.00  0.00    +0.000 HD
BRANCH  45  47
ATOM     47  CA  GLY A   6      -6.290  -1.774 132.238  0.00  0.00    +0.000 C 
BRANCH  47  48
ATOM     48  C   GLY A   6      -5.797  -3.030 131.508  0.00  0.00    +0.000 C 
ATOM     49  O   GLY A   6      -6.552  -3.630 130.744  0.00  0.00    +0.000 OA
BRANCH  48  50
ATOM     50  OXT GLY A   6      -4.519  -3.462 131.723  0.00  0.00    +0.000 OA
ATOM     51  HXT GLY A   6      -4.147  -4.236 131.252  0.00  0.00    +0.000 HD
ENDBRANCH  48  50
ENDBRANCH  47  48
ENDBRANCH  45  47
ENDBRANCH  42  43
BRANCH  42  52
ATOM     52  C   UNK A   5      -6.252   1.418 129.441  0.00  0.00    +0.000 C 
BRANCH  52  53
ATOM     53  C   UNK A   5      -5.422   2.609 129.822  0.00  0.00    +0.000 C 
BRANCH  53  54
ATOM     54  C   UNK A   5      -4.199   2.267 130.582  0.00  0.00    +0.000 C 
BRANCH  54  55
ATOM     55  C   UNK A   5      -4.040   3.140 131.808  0.00  0.00    +0.000 C 
BRANCH  55  56
ATOM     56  N   UNK A   5      -3.736   4.534 131.449  0.00  0.00    +0.000 N 
ATOM     57  C   UNK A   5      -2.515   5.120 131.816  0.00  0.00    +0.000 C 
ATOM     58  O   UNK A   5      -1.659   4.501 132.451  0.00  0.00    +0.000 OA
ATOM     59  H   UNK A   5      -4.449   5.033 130.926  0.00  0.00    +0.000 HD
BRANCH  57  60
ATOM     60  C   UNK A   5      -2.251   6.577 131.416  0.00  0.00    +0.000 C 
BRANCH  60  61
ATOM     61  C   UNK A   5      -2.958   6.901 130.103  0.00  0.00    +0.000 C 
BRANCH  61  62
ATOM     62  C   UNK A   5      -2.132   6.472 128.915  0.00  0.00    +0.000 C 
BRANCH  62  63
ATOM     63  C   UNK A   5      -2.956   5.640 127.962  0.00  0.00    +0.000 C 
BRANCH  63  64
ATOM     64  C   UNK A   5      -2.535   4.192 128.019  0.00  0.00    +0.000 C 
BRANCH  64  65
ATOM     65  C   UNK A   5      -2.593   3.566 126.647  0.00  0.00    +0.000 C 
BRANCH  65  66
ATOM     66  C   UNK A   5      -3.948   2.948 126.399  0.00  0.00    +0.000 C 
BRANCH  66  67
ATOM     67  C   UNK A   5      -4.748   3.791 125.436  0.00  0.00    +0.000 C 
BRANCH  67  68
ATOM     68  C   UNK A   5      -6.174   3.293 125.350  0.00  0.00    +0.000 C 
BRANCH  68  69
ATOM     69  C   UNK A   5      -7.128   4.441 125.110  0.00  0.00    +0.000 C 
BRANCH  69  70
ATOM     70  N   UNK A   5      -6.402   5.701 125.073  0.00  0.00    +0.000 NA
ATOM     71  H   UNK A   5      -6.390   6.114 126.006  0.00  0.00    +0.000 HD
ATOM     72  H   UNK A   5      -6.868   6.350 124.440  0.00  0.00    +0.000 HD
ENDBRANCH  69  70
ENDBRANCH  68  69
ENDBRANCH  67  68
ENDBRANCH  66  67
ENDBRANCH  65  66
ENDBRANCH  64  65
ENDBRANCH  63  64
ENDBRANCH  62  63
ENDBRANCH  61  62
ENDBRANCH  60  61
ENDBRANCH  57  60
ENDBRANCH  55  56
ENDBRANCH  54  55
ENDBRANCH  53  54
ENDBRANCH  52  53
ENDBRANCH  42  52
ENDBRANCH  40  42
ENDBRANCH  37  38
ENDBRANCH  18  31
BRANCH  13  73
ATOM     73  O   UNK A   0      -0.153   9.131 137.716  0.00  0.00    +0.000 OA
ATOM     74  H   UNK A   0       0.702   9.012 138.034  0.00  0.00    +0.000 HD
ENDBRANCH  13  73
BRANCH  22  75
ATOM     75  CB  ASN A   2      -4.736   7.253 137.685  0.00  0.00    +0.000 C 
BRANCH  75  76
ATOM     76  CG  ASN A   2      -4.264   6.085 138.290  0.00  0.00    +0.000 C 
ATOM     77  ND2 ASN A   2      -4.534   4.233 137.626  0.00  0.00    +0.000 N 
ATOM     78  OD1 ASN A   2      -3.251   6.125 139.189  0.00  0.00    +0.000 OA
ATOM     79 HD21 ASN A   2      -4.486   5.036 136.473  0.00  0.00    +0.000 HD
ATOM     80 HD22 ASN A   2      -3.891   3.575 137.113  0.00  0.00    +0.000 HD
ENDBRANCH  75  76
ENDBRANCH  22  75
BRANCH   9  81
ATOM     81  CB  TYR A   1      -0.442  11.323 136.482  0.00  0.00    +0.000 C 
BRANCH  81  82
ATOM     82  CG  TYR A   1      -1.574  11.832 135.257  0.00  0.00    +0.000 A 
ATOM     83  CD1 TYR A   1      -2.015  13.919 135.750  0.00  0.00    +0.000 A 
ATOM     84  CE1 TYR A   1      -1.895  14.849 134.482  0.00  0.00    +0.000 A 
ATOM     85  CZ  TYR A   1      -2.595  14.332 133.445  0.00  0.00    +0.000 A 
ATOM     86  CE2 TYR A   1      -2.859  12.955 133.482  0.00  0.00    +0.000 A 
ATOM     87  CD2 TYR A   1      -2.037  11.838 134.056  0.00  0.00    +0.000 A 
BRANCH  85  88
ATOM     88  OH  TYR A   1      -3.175  15.094 132.477  0.00  0.00    +0.000 OA
ATOM     89  HH  TYR A   1      -3.897  15.688 132.758  0.00  0.00    +0.000 HD
ENDBRANCH  85  88
ENDBRANCH  81  82
ENDBRANCH   9  81
BRANCH   5  90
ATOM     90  CB  TYR A   1       3.722  11.787 135.331  0.00  0.00    +0.000 C 
BRANCH  90  91
ATOM     91  CG  TYR A   1       2.942  12.264 134.150  0.00  0.00    +0.000 A 
ATOM     92  CD1 TYR A   1       2.307  13.475 134.171  0.00  0.00    +0.000 A 
ATOM     93  CE1 TYR A   1       1.283  13.702 133.280  0.00  0.00    +0.000 A 
ATOM     94  CZ  TYR A   1       1.094  12.920 132.179  0.00  0.00    +0.000 A 
ATOM     95  CE2 TYR A   1       1.780  11.749 132.118  0.00  0.00    +0.000 A 
ATOM     96  CD2 TYR A   1       2.718  11.433 133.073  0.00  0.00    +0.000 A 
ENDBRANCH  90  91
ENDBRANCH   5  90
BRANCH   1  97
ATOM     97  CB  TYR A   1      -5.222   7.974 140.393  0.00  0.00    +0.000 C 
BRANCH  97  99
ATOM     98  CD1 TYR A   1      -5.174   6.075 142.185  0.00  0.00    +0.000 C 
ATOM     99  CG  TYR A   1      -6.387   6.387 141.561  0.00  0.00    +0.000 C 
ATOM    100  CD2 TYR A   1      -7.241   5.516 143.263  0.00  0.00    +0.000 C 
ENDBRANCH  97  99
ENDBRANCH   1  97
TORSDOF 33
ENDMDL
MODEL 6
REMARK VINA RESULT:      -8.4      2.086      3.218
REMARK  Name = CHEMBL1765671
REMARK  35 active torsions:
REMARK  status: ('A' for Active; 'I' for Inactive)
REMARK    1  A    between atoms: CD1_1  and  CG_2
REMARK    2  A    between atoms: CG_2  and  CD2_3
REMARK    3  A    between atoms: CG_2  and  CB_4
REMARK    4  A    between atoms: CB_4  and  CA_5
REMARK    5  A    between atoms: CA_9  and  CB_10
REMARK    6  A    between atoms: CB_10  and  CG_11
REMARK    7  A    between atoms: CA_20  and  CB_21
REMARK    8  A    between atoms: CB_21  and  CG_22
REMARK    9  A    between atoms: CZ_25  and  OH_26
REMARK   10  A    between atoms: C_32  and  O_33
REMARK   11  A    between atoms: C_38  and  C_39
REMARK   12  A    between atoms: CA_45  and  C_46
REMARK   13  A    between atoms: N_48  and  C_49
REMARK   14  A    between atoms: C_49  and  C_50
REMARK   15  A    between atoms: C_49  and  C_68
REMARK   16  A    between atoms: C_50  and  C_51
REMARK   17  A    between atoms: C_51  and  C_52
REMARK   18  A    between atoms: C_52  and  C_53
REMARK   19  A    between atoms: C_53  and  N_54
REMARK   20  A    between atoms: C_55  and  C_57
REMARK   21  A    between atoms: C_57  and  C_58
REMARK   22  A    between atoms: C_58  and  C_59
REMARK   23  A    between atoms: C_59  and  C_60
REMARK   24  A    between atoms: C_60  and  C_61
REMARK   25  A    between atoms: C_61  and  C_62
REMARK   26  A    between atoms: C_62  and  C_63
REMARK   27  A    between atoms: C_63  and  C_64
REMARK   28  A    between atoms: C_64  and  C_65
REMARK   29  A    between atoms: C_65  and  C_66
REMARK   30  A    between atoms: C_66  and  N_67
REMARK   31  A    between atoms: N_70  and  CA_71
REMARK   32  A    between atoms: CA_71  and  C_72
REMARK   33  A    between atoms: C_72  and  OXT_74
REMARK   34  A    between atoms: CA_78  and  CB_79
REMARK   35  A    between atoms: CB_79  and  CG_80
REMARK                            x       y       z     vdW  Elec       q    Type
REMARK                         _______ _______ _______ _____ _____    ______ ____
ROOT
ATOM      1  CA  TYR A   1      -6.650  -1.769 129.449  0.00  0.00    +0.000 C 
ATOM      2  N   TYR A   1      -7.192  -0.946 126.995  0.00  0.00    +0.000 N 
ATOM      3  C   TYR A   1      -7.436   0.205 124.962  0.00  0.00    +0.000 C 
ATOM      4  O   TYR A   1      -6.589   0.605 123.493  0.00  0.00    +0.000 OA
ATOM      5  CA  TYR A   1      -8.467   1.362 123.178  0.00  0.00    +0.000 C 
ATOM      6  N   TYR A   1      -9.649   1.630 123.892  0.00  0.00    +0.000 N 
ATOM      7  C   TYR A   1      -9.051   1.699 125.098  0.00  0.00    +0.000 C 
ATOM      8  O   TYR A   1      -9.771   1.421 126.020  0.00  0.00    +0.000 OA
ATOM      9  CA  TYR A   1      -7.450   2.060 125.207  0.00  0.00    +0.000 C 
ATOM     10  N   TYR A   1      -7.279   3.157 125.985  0.00  0.00    +0.000 N 
ATOM     11  C   UNK A   0      -7.620   3.164 127.332  0.00  0.00    +0.000 C 
ATOM     12  O   UNK A   0      -7.431   4.174 128.007  0.00  0.00    +0.000 OA
ATOM     13  C   UNK A   0      -8.237   1.924 128.010  0.00  0.00    +0.000 C 
ATOM     14  C   UNK A   0      -7.384   1.429 129.123  0.00  0.00    +0.000 C 
ATOM     15  S   UNK A   3      -7.335   2.805 130.340  0.00  0.00    +0.000 S 
ATOM     16  S   UNK A   3      -6.157   2.496 131.795  0.00  0.00    +0.000 S 
ATOM     17  C   UNK A   3      -5.942   3.357 133.236  0.00  0.00    +0.000 C 
ATOM     18  C   UNK A   3      -5.058   2.831 134.342  0.00  0.00    +0.000 C 
ATOM     19  N   UNK A   3      -5.636   1.584 134.902  0.00  0.00    +0.000 N 
ATOM     20  C   ASN A   2      -5.857   0.406 134.178  0.00  0.00    +0.000 C 
ATOM     21  O   ASN A   2      -6.384  -0.590 134.665  0.00  0.00    +0.000 OA
ATOM     22  CA  ASN A   2      -5.420   0.293 132.702  0.00  0.00    +0.000 C 
ATOM     23  N   ASN A   2      -4.511  -0.683 132.258  0.00  0.00    +0.000 N 
ATOM     24  C   TYR A   1      -4.738  -1.452 130.735  0.00  0.00    +0.000 C 
ATOM     25  O   TYR A   1      -4.215  -2.512 131.935  0.00  0.00    +0.000 OA
ATOM     26  H   TYR A   1      -7.379  -1.440 125.563  0.00  0.00    +0.000 HD
ATOM     27  H   TYR A   1     -10.632   1.331 123.795  0.00  0.00    +0.000 HD
ATOM     28  H   TYR A   1      -6.830   3.941 125.544  0.00  0.00    +0.000 HD
ATOM     29  H   UNK A   3      -5.909   1.619 135.896  0.00  0.00    +0.000 HD
ATOM     30  H   ASN A   2      -3.550  -0.386 132.121  0.00  0.00    +0.000 HD
ENDROOT
BRANCH  18  31
ATOM     31  C   UNK A   3      -4.925   3.956 135.421  0.00  0.00    +0.000 C 
ATOM     32  O   UNK A   3      -5.169   5.118 135.078  0.00  0.00    +0.000 OA
ATOM     33  N   PRO A   4      -4.589   3.587 136.753  0.00  0.00    +0.000 N 
ATOM     34  CD  PRO A   4      -3.528   2.688 137.210  0.00  0.00    +0.000 C 
ATOM     35  CG  PRO A   4      -4.170   1.971 138.366  0.00  0.00    +0.000 C 
ATOM     36  CB  PRO A   4      -4.886   3.104 139.099  0.00  0.00    +0.000 C 
ATOM     37  CA  PRO A   4      -5.305   4.084 137.990  0.00  0.00    +0.000 C 
BRANCH  37  38
ATOM     38  C   PRO A   4      -4.866   5.484 138.378  0.00  0.00    +0.000 C 
ATOM     39  O   PRO A   4      -4.174   5.552 139.399  0.00  0.00    +0.000 OA
ATOM     40  N   UNK A   5      -5.307   6.601 137.644  0.00  0.00    +0.000 N 
ATOM     41  H   UNK A   5      -5.972   6.522 136.875  0.00  0.00    +0.000 HD
BRANCH  40  42
ATOM     42  C   UNK A   5      -4.844   7.985 137.958  0.00  0.00    +0.000 C 
BRANCH  42  43
ATOM     43  C   UNK A   5      -5.990   8.843 138.571  0.00  0.00    +0.000 C 
ATOM     44  O   UNK A   5      -5.879   9.246 139.734  0.00  0.00    +0.000 OA
ATOM     45  N   GLY A   6      -7.118   9.136 137.794  0.00  0.00    +0.000 N 
ATOM     46  H   GLY A   6      -7.225   8.811 136.828  0.00  0.00    +0.000 HD
BRANCH  45  47
ATOM     47  CA  GLY A   6      -8.246   9.944 138.332  0.00  0.00    +0.000 C 
BRANCH  47  48
ATOM     48  C   GLY A   6      -9.601   9.289 138.036  0.00  0.00    +0.000 C 
ATOM     49  O   GLY A   6      -9.662   8.080 137.815  0.00  0.00    +0.000 OA
BRANCH  48  50
ATOM     50  OXT GLY A   6     -10.723  10.067 138.022  0.00  0.00    +0.000 OA
ATOM     51  HXT GLY A   6     -11.619   9.684 137.923  0.00  0.00    +0.000 HD
ENDBRANCH  48  50
ENDBRANCH  47  48
ENDBRANCH  45  47
ENDBRANCH  42  43
BRANCH  42  52
ATOM     52  C   UNK A   5      -4.336   8.645 136.694  0.00  0.00    +0.000 C 
BRANCH  52  53
ATOM     53  C   UNK A   5      -3.193   9.579 136.968  0.00  0.00    +0.000 C 
BRANCH  53  54
ATOM     54  C   UNK A   5      -3.612  10.904 137.476  0.00  0.00    +0.000 C 
BRANCH  54  55
ATOM     55  C   UNK A   5      -2.423  11.791 137.773  0.00  0.00    +0.000 C 
BRANCH  55  56
ATOM     56  N   UNK A   5      -1.420  11.737 136.699  0.00  0.00    +0.000 N 
ATOM     57  C   UNK A   5      -0.405  12.703 136.616  0.00  0.00    +0.000 C 
ATOM     58  O   UNK A   5      -0.316  13.628 137.425  0.00  0.00    +0.000 OA
ATOM     59  H   UNK A   5      -1.503  10.971 136.038  0.00  0.00    +0.000 HD
BRANCH  57  60
ATOM     60  C   UNK A   5       0.615  12.598 135.475  0.00  0.00    +0.000 C 
BRANCH  60  61
ATOM     61  C   UNK A   5       0.253  13.565 134.352  0.00  0.00    +0.000 C 
BRANCH  61  62
ATOM     62  C   UNK A   5      -1.236  13.597 134.114  0.00  0.00    +0.000 C 
BRANCH  62  63
ATOM     63  C   UNK A   5      -1.553  13.338 132.661  0.00  0.00    +0.000 C 
BRANCH  63  64
ATOM     64  C   UNK A   5      -1.089  11.961 132.253  0.00  0.00    +0.000 C 
BRANCH  64  65
ATOM     65  C   UNK A   5      -1.927  10.897 132.919  0.00  0.00    +0.000 C 
BRANCH  65  66
ATOM     66  C   UNK A   5      -1.048   9.849 133.559  0.00  0.00    +0.000 C 
BRANCH  66  67
ATOM     67  C   UNK A   5      -1.758   8.518 133.609  0.00  0.00    +0.000 C 
BRANCH  67  68
ATOM     68  C   UNK A   5      -2.753   8.401 132.477  0.00  0.00    +0.000 C 
BRANCH  68  69
ATOM     69  C   UNK A   5      -2.954   6.955 132.087  0.00  0.00    +0.000 C 
BRANCH  69  70
ATOM     70  N   UNK A   5      -4.266   6.494 132.516  0.00  0.00    +0.000 NA
ATOM     71  H   UNK A   5      -4.881   7.296 132.652  0.00  0.00    +0.000 HD
ATOM     72  H   UNK A   5      -4.184   5.997 133.402  0.00  0.00    +0.000 HD
ENDBRANCH  69  70
ENDBRANCH  68  69
ENDBRANCH  67  68
ENDBRANCH  66  67
ENDBRANCH  65  66
ENDBRANCH  64  65
ENDBRANCH  63  64
ENDBRANCH  62  63
ENDBRANCH  61  62
ENDBRANCH  60  61
ENDBRANCH  57  60
ENDBRANCH  55  56
ENDBRANCH  54  55
ENDBRANCH  53  54
ENDBRANCH  52  53
ENDBRANCH  42  52
ENDBRANCH  40  42
ENDBRANCH  37  38
ENDBRANCH  18  31
BRANCH  13  73
ATOM     73  O   UNK A   0      -8.486   0.793 127.324  0.00  0.00    +0.000 OA
ATOM     74  H   UNK A   0      -9.326   0.434 127.425  0.00  0.00    +0.000 HD
ENDBRANCH  13  73
BRANCH  22  75
ATOM     75  CB  ASN A   2      -6.655   0.135 131.879  0.00  0.00    +0.000 C 
BRANCH  75  76
ATOM     76  CG  ASN A   2      -7.956   0.265 132.372  0.00  0.00    +0.000 C 
ATOM     77  ND2 ASN A   2      -8.761   1.917 133.125  0.00  0.00    +0.000 N 
ATOM     78  OD1 ASN A   2      -8.921  -0.625 132.037  0.00  0.00    +0.000 OA
ATOM     79 HD21 ASN A   2      -7.845   2.361 132.156  0.00  0.00    +0.000 HD
ATOM     80 HD22 ASN A   2      -9.433   2.616 132.712  0.00  0.00    +0.000 HD
ENDBRANCH  75  76
ENDBRANCH  22  75
BRANCH   9  81
ATOM     81  CB  TYR A   1      -6.399   1.117 125.928  0.00  0.00    +0.000 C 
BRANCH  81  82
ATOM     82  CG  TYR A   1      -4.884   1.784 126.475  0.00  0.00    +0.000 A 
ATOM     83  CD1 TYR A   1      -4.696   3.678 125.393  0.00  0.00    +0.000 A 
ATOM     84  CE1 TYR A   1      -4.320   4.863 126.364  0.00  0.00    +0.000 A 
ATOM     85  CZ  TYR A   1      -3.264   4.525 127.140  0.00  0.00    +0.000 A 
ATOM     86  CE2 TYR A   1      -3.019   3.155 127.317  0.00  0.00    +0.000 A 
ATOM     87  CD2 TYR A   1      -3.988   2.009 127.371  0.00  0.00    +0.000 A 
BRANCH  85  88
ATOM     88  OH  TYR A   1      -2.360   5.428 127.612  0.00  0.00    +0.000 OA
ATOM     89  HH  TYR A   1      -1.704   5.768 126.975  0.00  0.00    +0.000 HD
ENDBRANCH  85  88
ENDBRANCH  81  82
ENDBRANCH   9  81
BRANCH   5  90
ATOM     90  CB  TYR A   1      -8.335   3.181 122.631  0.00  0.00    +0.000 C 
BRANCH  90  91
ATOM     91  CG  TYR A   1      -7.262   3.548 121.657  0.00  0.00    +0.000 A 
ATOM     92  CD1 TYR A   1      -5.966   3.695 122.065  0.00  0.00    +0.000 A 
ATOM     93  CE1 TYR A   1      -5.101   4.420 121.277  0.00  0.00    +0.000 A 
ATOM     94  CZ  TYR A   1      -5.380   4.711 119.974  0.00  0.00    +0.000 A 
ATOM     95  CE2 TYR A   1      -6.651   4.496 119.544  0.00  0.00    +0.000 A 
ATOM     96  CD2 TYR A   1      -7.577   3.892 120.360  0.00  0.00    +0.000 A 
ENDBRANCH  90  91
ENDBRANCH   5  90
BRANCH   1  97
ATOM     97  CB  TYR A   1      -7.046  -2.681 131.803  0.00  0.00    +0.000 C 
BRANCH  97  99
ATOM     98  CD1 TYR A   1      -8.404  -3.335 133.934  0.00  0.00    +0.000 C 
ATOM     99  CG  TYR A   1      -7.053  -3.689 133.858  0.00  0.00    +0.000 C 
ATOM    100  CD2 TYR A   1      -7.575  -5.150 135.263  0.00  0.00    +0.000 C 
ENDBRANCH  97  99
ENDBRANCH   1  97
TORSDOF 33
ENDMDL
MODEL 7
REMARK VINA RESULT:      -8.4      3.980     13.162
REMARK  Name = CHEMBL1765671
REMARK  35 active torsions:
REMARK  status: ('A' for Active; 'I' for Inactive)
REMARK    1  A    between atoms: CD1_1  and  CG_2
REMARK    2  A    between atoms: CG_2  and  CD2_3
REMARK    3  A    between atoms: CG_2  and  CB_4
REMARK    4  A    between atoms: CB_4  and  CA_5
REMARK    5  A    between atoms: CA_9  and  CB_10
REMARK    6  A    between atoms: CB_10  and  CG_11
REMARK    7  A    between atoms: CA_20  and  CB_21
REMARK    8  A    between atoms: CB_21  and  CG_22
REMARK    9  A    between atoms: CZ_25  and  OH_26
REMARK   10  A    between atoms: C_32  and  O_33
REMARK   11  A    between atoms: C_38  and  C_39
REMARK   12  A    between atoms: CA_45  and  C_46
REMARK   13  A    between atoms: N_48  and  C_49
REMARK   14  A    between atoms: C_49  and  C_50
REMARK   15  A    between atoms: C_49  and  C_68
REMARK   16  A    between atoms: C_50  and  C_51
REMARK   17  A    between atoms: C_51  and  C_52
REMARK   18  A    between atoms: C_52  and  C_53
REMARK   19  A    between atoms: C_53  and  N_54
REMARK   20  A    between atoms: C_55  and  C_57
REMARK   21  A    between atoms: C_57  and  C_58
REMARK   22  A    between atoms: C_58  and  C_59
REMARK   23  A    between atoms: C_59  and  C_60
REMARK   24  A    between atoms: C_60  and  C_61
REMARK   25  A    between atoms: C_61  and  C_62
REMARK   26  A    between atoms: C_62  and  C_63
REMARK   27  A    between atoms: C_63  and  C_64
REMARK   28  A    between atoms: C_64  and  C_65
REMARK   29  A    between atoms: C_65  and  C_66
REMARK   30  A    between atoms: C_66  and  N_67
REMARK   31  A    between atoms: N_70  and  CA_71
REMARK   32  A    between atoms: CA_71  and  C_72
REMARK   33  A    between atoms: C_72  and  OXT_74
REMARK   34  A    between atoms: CA_78  and  CB_79
REMARK   35  A    between atoms: CB_79  and  CG_80
REMARK                            x       y       z     vdW  Elec       q    Type
REMARK                         _______ _______ _______ _____ _____    ______ ____
ROOT
ATOM      1  CA  TYR A   1      -3.607   8.381 139.137  0.00  0.00    +0.000 C 
ATOM      2  N   TYR A   1      -1.295   9.665 139.150  0.00  0.00    +0.000 N 
ATOM      3  C   TYR A   1       0.685  10.829 138.663  0.00  0.00    +0.000 C 
ATOM      4  O   TYR A   1       1.303  12.426 138.342  0.00  0.00    +0.000 OA
ATOM      5  CA  TYR A   1       2.992  11.266 138.392  0.00  0.00    +0.000 C 
ATOM      6  N   TYR A   1       3.360   9.909 138.400  0.00  0.00    +0.000 N 
ATOM      7  C   TYR A   1       2.214   9.466 137.848  0.00  0.00    +0.000 C 
ATOM      8  O   TYR A   1       1.932   8.335 138.141  0.00  0.00    +0.000 OA
ATOM      9  CA  TYR A   1       1.294  10.476 136.930  0.00  0.00    +0.000 C 
ATOM     10  N   TYR A   1       1.121   9.944 135.695  0.00  0.00    +0.000 N 
ATOM     11  C   UNK A   0       0.439   8.751 135.497  0.00  0.00    +0.000 C 
ATOM     12  O   UNK A   0       0.287   8.312 134.359  0.00  0.00    +0.000 OA
ATOM     13  C   UNK A   0      -0.141   7.952 136.683  0.00  0.00    +0.000 C 
ATOM     14  C   UNK A   0      -1.617   7.805 136.572  0.00  0.00    +0.000 C 
ATOM     15  S   UNK A   3      -1.892   6.852 135.026  0.00  0.00    +0.000 S 
ATOM     16  S   UNK A   3      -3.720   6.673 134.553  0.00  0.00    +0.000 S 
ATOM     17  C   UNK A   3      -4.460   5.723 133.363  0.00  0.00    +0.000 C 
ATOM     18  C   UNK A   3      -5.963   5.606 133.272  0.00  0.00    +0.000 C 
ATOM     19  N   UNK A   3      -6.491   4.919 134.477  0.00  0.00    +0.000 N 
ATOM     20  C   ASN A   2      -6.356   5.386 135.791  0.00  0.00    +0.000 C 
ATOM     21  O   ASN A   2      -6.764   4.763 136.767  0.00  0.00    +0.000 OA
ATOM     22  CA  ASN A   2      -5.691   6.748 136.080  0.00  0.00    +0.000 C 
ATOM     23  N   ASN A   2      -6.361   7.788 136.747  0.00  0.00    +0.000 N 
ATOM     24  C   TYR A   1      -5.522   8.778 137.877  0.00  0.00    +0.000 C 
ATOM     25  O   TYR A   1      -7.083   8.391 138.376  0.00  0.00    +0.000 OA
ATOM     26  H   TYR A   1      -0.429  10.594 139.995  0.00  0.00    +0.000 HD
ATOM     27  H   TYR A   1       3.913   9.317 139.041  0.00  0.00    +0.000 HD
ATOM     28  H   TYR A   1       1.460  10.499 134.928  0.00  0.00    +0.000 HD
ATOM     29  H   UNK A   3      -6.969   4.021 134.312  0.00  0.00    +0.000 HD
ATOM     30  H   ASN A   2      -6.744   8.530 136.170  0.00  0.00    +0.000 HD
ENDROOT
BRANCH  18  31
ATOM     31  C   UNK A   3      -6.302   4.832 131.956  0.00  0.00    +0.000 C 
ATOM     32  O   UNK A   3      -5.490   3.990 131.556  0.00  0.00    +0.000 OA
ATOM     33  N   PRO A   4      -7.545   5.088 131.315  0.00  0.00    +0.000 N 
ATOM     34  CD  PRO A   4      -8.161   6.378 131.002  0.00  0.00    +0.000 C 
ATOM     35  CG  PRO A   4      -9.621   6.125 131.256  0.00  0.00    +0.000 C 
ATOM     36  CB  PRO A   4      -9.832   4.751 130.622  0.00  0.00    +0.000 C 
ATOM     37  CA  PRO A   4      -8.496   4.018 130.823  0.00  0.00    +0.000 C 
BRANCH  37  38
ATOM     38  C   PRO A   4      -8.052   3.430 129.496  0.00  0.00    +0.000 C 
ATOM     39  O   PRO A   4      -8.204   2.209 129.386  0.00  0.00    +0.000 OA
ATOM     40  N   UNK A   5      -7.439   4.243 128.522  0.00  0.00    +0.000 N 
ATOM     41  H   UNK A   5      -7.221   5.224 128.689  0.00  0.00    +0.000 HD
BRANCH  40  42
ATOM     42  C   UNK A   5      -7.049   3.711 127.183  0.00  0.00    +0.000 C 
BRANCH  42  43
ATOM     43  C   UNK A   5      -5.519   3.864 126.935  0.00  0.00    +0.000 C 
ATOM     44  O   UNK A   5      -4.961   3.086 126.154  0.00  0.00    +0.000 OA
ATOM     45  N   GLY A   6      -4.813   4.873 127.602  0.00  0.00    +0.000 N 
ATOM     46  H   GLY A   6      -5.262   5.526 128.251  0.00  0.00    +0.000 HD
BRANCH  45  47
ATOM     47  CA  GLY A   6      -3.350   5.058 127.408  0.00  0.00    +0.000 C 
BRANCH  47  48
ATOM     48  C   GLY A   6      -2.658   5.488 128.708  0.00  0.00    +0.000 C 
ATOM     49  O   GLY A   6      -1.844   6.410 128.693  0.00  0.00    +0.000 OA
BRANCH  48  50
ATOM     50  OXT GLY A   6      -2.962   4.831 129.867  0.00  0.00    +0.000 OA
ATOM     51  HXT GLY A   6      -2.368   4.851 130.645  0.00  0.00    +0.000 HD
ENDBRANCH  48  50
ENDBRANCH  47  48
ENDBRANCH  45  47
ENDBRANCH  42  43
BRANCH  42  52
ATOM     52  C   UNK A   5      -7.814   4.451 126.106  0.00  0.00    +0.000 C 
BRANCH  52  53
ATOM     53  C   UNK A   5      -7.838   3.691 124.812  0.00  0.00    +0.000 C 
BRANCH  53  54
ATOM     54  C   UNK A   5      -8.931   2.697 124.723  0.00  0.00    +0.000 C 
BRANCH  54  55
ATOM     55  C   UNK A   5      -8.396   1.289 124.577  0.00  0.00    +0.000 C 
BRANCH  55  56
ATOM     56  N   UNK A   5      -8.090   0.683 125.883  0.00  0.00    +0.000 N 
ATOM     57  C   UNK A   5      -6.849   0.072 126.117  0.00  0.00    +0.000 C 
ATOM     58  O   UNK A   5      -5.976   0.013 125.249  0.00  0.00    +0.000 OA
ATOM     59  H   UNK A   5      -8.817   0.738 126.589  0.00  0.00    +0.000 HD
BRANCH  57  60
ATOM     60  C   UNK A   5      -6.584  -0.543 127.497  0.00  0.00    +0.000 C 
BRANCH  60  61
ATOM     61  C   UNK A   5      -6.767  -2.057 127.445  0.00  0.00    +0.000 C 
BRANCH  61  62
ATOM     62  C   UNK A   5      -8.157  -2.456 127.874  0.00  0.00    +0.000 C 
BRANCH  62  63
ATOM     63  C   UNK A   5      -8.737  -3.479 126.927  0.00  0.00    +0.000 C 
BRANCH  63  64
ATOM     64  C   UNK A   5      -9.166  -2.825 125.636  0.00  0.00    +0.000 C 
BRANCH  64  65
ATOM     65  C   UNK A   5      -8.656  -3.604 124.449  0.00  0.00    +0.000 C 
BRANCH  65  66
ATOM     66  C   UNK A   5      -7.420  -2.954 123.876  0.00  0.00    +0.000 C 
BRANCH  66  67
ATOM     67  C   UNK A   5      -6.182  -3.719 124.277  0.00  0.00    +0.000 C 
BRANCH  67  68
ATOM     68  C   UNK A   5      -5.000  -3.304 123.429  0.00  0.00    +0.000 C 
BRANCH  68  69
ATOM     69  C   UNK A   5      -3.860  -4.285 123.582  0.00  0.00    +0.000 C 
BRANCH  69  70
ATOM     70  N   UNK A   5      -4.228  -5.576 123.020  0.00  0.00    +0.000 NA
ATOM     71  H   UNK A   5      -4.878  -5.439 122.247  0.00  0.00    +0.000 HD
ATOM     72  H   UNK A   5      -4.688  -6.143 123.731  0.00  0.00    +0.000 HD
ENDBRANCH  69  70
ENDBRANCH  68  69
ENDBRANCH  67  68
ENDBRANCH  66  67
ENDBRANCH  65  66
ENDBRANCH  64  65
ENDBRANCH  63  64
ENDBRANCH  62  63
ENDBRANCH  61  62
ENDBRANCH  60  61
ENDBRANCH  57  60
ENDBRANCH  55  56
ENDBRANCH  54  55
ENDBRANCH  53  54
ENDBRANCH  52  53
ENDBRANCH  42  52
ENDBRANCH  40  42
ENDBRANCH  37  38
ENDBRANCH  18  31
BRANCH  13  73
ATOM     73  O   UNK A   0       0.005   8.367 137.955  0.00  0.00    +0.000 OA
ATOM     74  H   UNK A   0      -0.736   8.747 138.345  0.00  0.00    +0.000 HD
ENDBRANCH  13  73
BRANCH  22  75
ATOM     75  CB  ASN A   2      -4.440   6.482 136.851  0.00  0.00    +0.000 C 
BRANCH  75  76
ATOM     76  CG  ASN A   2      -3.986   5.208 137.206  0.00  0.00    +0.000 C 
ATOM     77  ND2 ASN A   2      -4.064   3.580 136.072  0.00  0.00    +0.000 N 
ATOM     78  OD1 ASN A   2      -3.102   5.041 138.219  0.00  0.00    +0.000 OA
ATOM     79 HD21 ASN A   2      -3.912   4.650 135.173  0.00  0.00    +0.000 HD
ATOM     80 HD22 ASN A   2      -3.324   3.088 135.506  0.00  0.00    +0.000 HD
ENDBRANCH  75  76
ENDBRANCH  22  75
BRANCH   9  81
ATOM     81  CB  TYR A   1      -0.227  10.787 137.247  0.00  0.00    +0.000 C 
BRANCH  81  82
ATOM     82  CG  TYR A   1      -1.133  11.819 136.171  0.00  0.00    +0.000 A 
ATOM     83  CD1 TYR A   1      -1.713  13.528 137.410  0.00  0.00    +0.000 A 
ATOM     84  CE1 TYR A   1      -1.392  14.896 136.693  0.00  0.00    +0.000 A 
ATOM     85  CZ  TYR A   1      -1.877  14.897 135.429  0.00  0.00    +0.000 A 
ATOM     86  CE2 TYR A   1      -2.106  13.645 134.836  0.00  0.00    +0.000 A 
ATOM     87  CD2 TYR A   1      -1.370  12.350 135.023  0.00  0.00    +0.000 A 
BRANCH  85  88
ATOM     88  OH  TYR A   1      -2.293  16.022 134.786  0.00  0.00    +0.000 OA
ATOM     89  HH  TYR A   1      -1.598  16.605 134.426  0.00  0.00    +0.000 HD
ENDBRANCH  85  88
ENDBRANCH  81  82
ENDBRANCH   9  81
BRANCH   5  90
ATOM     90  CB  TYR A   1       4.024  11.580 136.822  0.00  0.00    +0.000 C 
BRANCH  90  91
ATOM     91  CG  TYR A   1       3.453  12.475 135.771  0.00  0.00    +0.000 A 
ATOM     92  CD1 TYR A   1       2.810  13.633 136.110  0.00  0.00    +0.000 A 
ATOM     93  CE1 TYR A   1       1.952  14.206 135.199  0.00  0.00    +0.000 A 
ATOM     94  CZ  TYR A   1       1.966  13.866 133.878  0.00  0.00    +0.000 A 
ATOM     95  CE2 TYR A   1       2.667  12.756 133.525  0.00  0.00    +0.000 A 
ATOM     96  CD2 TYR A   1       3.430  12.083 134.450  0.00  0.00    +0.000 A 
ENDBRANCH  90  91
ENDBRANCH   5  90
BRANCH   1  97
ATOM     97  CB  TYR A   1      -5.306   6.520 139.558  0.00  0.00    +0.000 C 
BRANCH  97  99
ATOM     98  CD1 TYR A   1      -5.519   4.069 140.436  0.00  0.00    +0.000 C 
ATOM     99  CG  TYR A   1      -6.676   4.844 140.305  0.00  0.00    +0.000 C 
ATOM    100  CD2 TYR A   1      -7.469   3.515 141.715  0.00  0.00    +0.000 C 
ENDBRANCH  97  99
ENDBRANCH   1  97
TORSDOF 33
ENDMDL
MODEL 8
REMARK VINA RESULT:      -8.3      3.709     12.192
REMARK  Name = CHEMBL1765671
REMARK  35 active torsions:
REMARK  status: ('A' for Active; 'I' for Inactive)
REMARK    1  A    between atoms: CD1_1  and  CG_2
REMARK    2  A    between atoms: CG_2  and  CD2_3
REMARK    3  A    between atoms: CG_2  and  CB_4
REMARK    4  A    between atoms: CB_4  and  CA_5
REMARK    5  A    between atoms: CA_9  and  CB_10
REMARK    6  A    between atoms: CB_10  and  CG_11
REMARK    7  A    between atoms: CA_20  and  CB_21
REMARK    8  A    between atoms: CB_21  and  CG_22
REMARK    9  A    between atoms: CZ_25  and  OH_26
REMARK   10  A    between atoms: C_32  and  O_33
REMARK   11  A    between atoms: C_38  and  C_39
REMARK   12  A    between atoms: CA_45  and  C_46
REMARK   13  A    between atoms: N_48  and  C_49
REMARK   14  A    between atoms: C_49  and  C_50
REMARK   15  A    between atoms: C_49  and  C_68
REMARK   16  A    between atoms: C_50  and  C_51
REMARK   17  A    between atoms: C_51  and  C_52
REMARK   18  A    between atoms: C_52  and  C_53
REMARK   19  A    between atoms: C_53  and  N_54
REMARK   20  A    between atoms: C_55  and  C_57
REMARK   21  A    between atoms: C_57  and  C_58
REMARK   22  A    between atoms: C_58  and  C_59
REMARK   23  A    between atoms: C_59  and  C_60
REMARK   24  A    between atoms: C_60  and  C_61
REMARK   25  A    between atoms: C_61  and  C_62
REMARK   26  A    between atoms: C_62  and  C_63
REMARK   27  A    between atoms: C_63  and  C_64
REMARK   28  A    between atoms: C_64  and  C_65
REMARK   29  A    between atoms: C_65  and  C_66
REMARK   30  A    between atoms: C_66  and  N_67
REMARK   31  A    between atoms: N_70  and  CA_71
REMARK   32  A    between atoms: CA_71  and  C_72
REMARK   33  A    between atoms: C_72  and  OXT_74
REMARK   34  A    between atoms: CA_78  and  CB_79
REMARK   35  A    between atoms: CB_79  and  CG_80
REMARK                            x       y       z     vdW  Elec       q    Type
REMARK                         _______ _______ _______ _____ _____    ______ ____
ROOT
ATOM      1  CA  TYR A   1      -3.612   9.596 139.386  0.00  0.00    +0.000 C 
ATOM      2  N   TYR A   1      -1.291  10.678 138.727  0.00  0.00    +0.000 N 
ATOM      3  C   TYR A   1       0.617  11.548 137.669  0.00  0.00    +0.000 C 
ATOM      4  O   TYR A   1       1.223  12.974 136.872  0.00  0.00    +0.000 OA
ATOM      5  CA  TYR A   1       2.859  11.742 136.948  0.00  0.00    +0.000 C 
ATOM      6  N   TYR A   1       3.181  10.404 137.236  0.00  0.00    +0.000 N 
ATOM      7  C   TYR A   1       1.946   9.924 136.992  0.00  0.00    +0.000 C 
ATOM      8  O   TYR A   1       1.681   8.919 137.596  0.00  0.00    +0.000 OA
ATOM      9  CA  TYR A   1       0.919  10.749 136.005  0.00  0.00    +0.000 C 
ATOM     10  N   TYR A   1       0.527   9.951 134.982  0.00  0.00    +0.000 N 
ATOM     11  C   UNK A   0      -0.216   8.796 135.193  0.00  0.00    +0.000 C 
ATOM     12  O   UNK A   0      -0.568   8.110 134.235  0.00  0.00    +0.000 OA
ATOM     13  C   UNK A   0      -0.616   8.347 136.613  0.00  0.00    +0.000 C 
ATOM     14  C   UNK A   0      -2.094   8.284 136.770  0.00  0.00    +0.000 C 
ATOM     15  S   UNK A   3      -2.651   7.010 135.569  0.00  0.00    +0.000 S 
ATOM     16  S   UNK A   3      -4.537   6.854 135.441  0.00  0.00    +0.000 S 
ATOM     17  C   UNK A   3      -5.494   5.702 134.651  0.00  0.00    +0.000 C 
ATOM     18  C   UNK A   3      -6.994   5.674 134.823  0.00  0.00    +0.000 C 
ATOM     19  N   UNK A   3      -7.336   5.335 136.226  0.00  0.00    +0.000 N 
ATOM     20  C   ASN A   2      -6.971   6.091 137.347  0.00  0.00    +0.000 C 
ATOM     21  O   ASN A   2      -7.231   5.750 138.498  0.00  0.00    +0.000 OA
ATOM     22  CA  ASN A   2      -6.224   7.432 137.185  0.00  0.00    +0.000 C 
ATOM     23  N   ASN A   2      -6.741   8.646 137.668  0.00  0.00    +0.000 N 
ATOM     24  C   TYR A   1      -5.695   9.815 138.376  0.00  0.00    +0.000 C 
ATOM     25  O   TYR A   1      -7.164   9.671 139.188  0.00  0.00    +0.000 OA
ATOM     26  H   TYR A   1      -0.267  11.718 139.173  0.00  0.00    +0.000 HD
ATOM     27  H   TYR A   1       3.813   9.945 137.910  0.00  0.00    +0.000 HD
ATOM     28  H   TYR A   1       0.751  10.280 134.059  0.00  0.00    +0.000 HD
ATOM     29  H   UNK A   3      -7.863   4.460 136.364  0.00  0.00    +0.000 HD
ATOM     30  H   ASN A   2      -7.191   9.254 136.991  0.00  0.00    +0.000 HD
ENDROOT
BRANCH  18  31
ATOM     31  C   UNK A   3      -7.571   4.634 133.807  0.00  0.00    +0.000 C 
ATOM     32  O   UNK A   3      -7.578   3.444 134.140  0.00  0.00    +0.000 OA
ATOM     33  N   PRO A   4      -8.110   5.107 132.579  0.00  0.00    +0.000 N 
ATOM     34  CD  PRO A   4      -7.532   6.068 131.639  0.00  0.00    +0.000 C 
ATOM     35  CG  PRO A   4      -8.731   6.846 131.172  0.00  0.00    +0.000 C 
ATOM     36  CB  PRO A   4      -9.769   5.747 130.947  0.00  0.00    +0.000 C 
ATOM     37  CA  PRO A   4      -9.443   4.679 132.003  0.00  0.00    +0.000 C 
BRANCH  37  38
ATOM     38  C   PRO A   4      -9.361   3.324 131.325  0.00  0.00    +0.000 C 
ATOM     39  O   PRO A   4     -10.440   2.867 130.934  0.00  0.00    +0.000 OA
ATOM     40  N   UNK A   5      -8.133   2.639 131.243  0.00  0.00    +0.000 N 
ATOM     41  H   UNK A   5      -7.281   2.990 131.679  0.00  0.00    +0.000 HD
BRANCH  40  42
ATOM     42  C   UNK A   5      -8.004   1.335 130.527  0.00  0.00    +0.000 C 
BRANCH  42  43
ATOM     43  C   UNK A   5      -7.073   0.353 131.298  0.00  0.00    +0.000 C 
ATOM     44  O   UNK A   5      -6.724  -0.696 130.746  0.00  0.00    +0.000 OA
ATOM     45  N   GLY A   6      -6.653   0.680 132.594  0.00  0.00    +0.000 N 
ATOM     46  H   GLY A   6      -6.931   1.546 133.064  0.00  0.00    +0.000 HD
BRANCH  45  47
ATOM     47  CA  GLY A   6      -5.769  -0.224 133.377  0.00  0.00    +0.000 C 
BRANCH  47  48
ATOM     48  C   GLY A   6      -4.317  -0.157 132.888  0.00  0.00    +0.000 C 
ATOM     49  O   GLY A   6      -3.566   0.719 133.316  0.00  0.00    +0.000 OA
BRANCH  48  50
ATOM     50  OXT GLY A   6      -3.882  -1.078 131.979  0.00  0.00    +0.000 OA
ATOM     51  HXT GLY A   6      -3.575  -0.820 131.085  0.00  0.00    +0.000 HD
ENDBRANCH  48  50
ENDBRANCH  47  48
ENDBRANCH  45  47
ENDBRANCH  42  43
BRANCH  42  52
ATOM     52  C   UNK A   5      -7.450   1.576 129.139  0.00  0.00    +0.000 C 
BRANCH  52  53
ATOM     53  C   UNK A   5      -8.538   1.690 128.112  0.00  0.00    +0.000 C 
BRANCH  53  54
ATOM     54  C   UNK A   5      -8.281   0.910 126.880  0.00  0.00    +0.000 C 
BRANCH  54  55
ATOM     55  C   UNK A   5      -8.633   1.696 125.636  0.00  0.00    +0.000 C 
BRANCH  55  56
ATOM     56  N   UNK A   5      -7.509   2.531 125.182  0.00  0.00    +0.000 N 
ATOM     57  C   UNK A   5      -7.579   3.930 125.256  0.00  0.00    +0.000 C 
ATOM     58  O   UNK A   5      -8.575   4.512 125.693  0.00  0.00    +0.000 OA
ATOM     59  H   UNK A   5      -6.696   2.041 124.825  0.00  0.00    +0.000 HD
BRANCH  57  60
ATOM     60  C   UNK A   5      -6.379   4.751 124.770  0.00  0.00    +0.000 C 
BRANCH  60  61
ATOM     61  C   UNK A   5      -5.074   4.065 125.163  0.00  0.00    +0.000 C 
BRANCH  61  62
ATOM     62  C   UNK A   5      -4.767   4.271 126.626  0.00  0.00    +0.000 C 
BRANCH  62  63
ATOM     63  C   UNK A   5      -3.635   3.374 127.067  0.00  0.00    +0.000 C 
BRANCH  63  64
ATOM     64  C   UNK A   5      -2.570   4.172 127.778  0.00  0.00    +0.000 C 
BRANCH  64  65
ATOM     65  C   UNK A   5      -2.956   5.629 127.852  0.00  0.00    +0.000 C 
BRANCH  65  66
ATOM     66  C   UNK A   5      -2.618   6.202 129.207  0.00  0.00    +0.000 C 
BRANCH  66  67
ATOM     67  C   UNK A   5      -2.552   5.108 130.246  0.00  0.00    +0.000 C 
BRANCH  67  68
ATOM     68  C   UNK A   5      -3.817   5.081 131.073  0.00  0.00    +0.000 C 
BRANCH  68  69
ATOM     69  C   UNK A   5      -3.808   3.909 132.028  0.00  0.00    +0.000 C 
BRANCH  69  70
ATOM     70  N   UNK A   5      -5.092   3.225 131.998  0.00  0.00    +0.000 NA
ATOM     71  H   UNK A   5      -5.170   2.612 132.810  0.00  0.00    +0.000 HD
ATOM     72  H   UNK A   5      -5.159   2.653 131.156  0.00  0.00    +0.000 HD
ENDBRANCH  69  70
ENDBRANCH  68  69
ENDBRANCH  67  68
ENDBRANCH  66  67
ENDBRANCH  65  66
ENDBRANCH  64  65
ENDBRANCH  63  64
ENDBRANCH  62  63
ENDBRANCH  61  62
ENDBRANCH  60  61
ENDBRANCH  57  60
ENDBRANCH  55  56
ENDBRANCH  54  55
ENDBRANCH  53  54
ENDBRANCH  52  53
ENDBRANCH  42  52
ENDBRANCH  40  42
ENDBRANCH  37  38
ENDBRANCH  18  31
BRANCH  13  73
ATOM     73  O   UNK A   0      -0.248   9.043 137.705  0.00  0.00    +0.000 OA
ATOM     74  H   UNK A   0       0.628   8.952 137.968  0.00  0.00    +0.000 HD
ENDBRANCH  13  73
BRANCH  22  75
ATOM     75  CB  ASN A   2      -4.872   7.269 137.796  0.00  0.00    +0.000 C 
BRANCH  75  76
ATOM     76  CG  ASN A   2      -4.409   6.091 138.389  0.00  0.00    +0.000 C 
ATOM     77  ND2 ASN A   2      -4.780   4.243 137.764  0.00  0.00    +0.000 N 
ATOM     78  OD1 ASN A   2      -3.347   6.105 139.230  0.00  0.00    +0.000 OA
ATOM     79 HD21 ASN A   2      -4.767   5.031 136.600  0.00  0.00    +0.000 HD
ATOM     80 HD22 ASN A   2      -4.189   3.557 137.225  0.00  0.00    +0.000 HD
ENDBRANCH  75  76
ENDBRANCH  22  75
BRANCH   9  81
ATOM     81  CB  TYR A   1      -0.518  11.234 136.465  0.00  0.00    +0.000 C 
BRANCH  81  82
ATOM     82  CG  TYR A   1      -1.668  11.762 135.265  0.00  0.00    +0.000 A 
ATOM     83  CD1 TYR A   1      -2.009  13.875 135.723  0.00  0.00    +0.000 A 
ATOM     84  CE1 TYR A   1      -1.893  14.772 134.432  0.00  0.00    +0.000 A 
ATOM     85  CZ  TYR A   1      -2.646  14.262 133.429  0.00  0.00    +0.000 A 
ATOM     86  CE2 TYR A   1      -2.964  12.898 133.505  0.00  0.00    +0.000 A 
ATOM     87  CD2 TYR A   1      -2.168  11.761 134.079  0.00  0.00    +0.000 A 
BRANCH  85  88
ATOM     88  OH  TYR A   1      -3.226  15.026 132.462  0.00  0.00    +0.000 OA
ATOM     89  HH  TYR A   1      -2.872  15.928 132.343  0.00  0.00    +0.000 HD
ENDBRANCH  85  88
ENDBRANCH  81  82
ENDBRANCH   9  81
BRANCH   5  90
ATOM     90  CB  TYR A   1       3.626  11.598 135.211  0.00  0.00    +0.000 C 
BRANCH  90  91
ATOM     91  CG  TYR A   1       2.860  12.153 134.054  0.00  0.00    +0.000 A 
ATOM     92  CD1 TYR A   1       2.331  13.413 134.104  0.00  0.00    +0.000 A 
ATOM     93  CE1 TYR A   1       1.309  13.736 133.241  0.00  0.00    +0.000 A 
ATOM     94  CZ  TYR A   1       1.028  12.987 132.137  0.00  0.00    +0.000 A 
ATOM     95  CE2 TYR A   1       1.611  11.763 132.047  0.00  0.00    +0.000 A 
ATOM     96  CD2 TYR A   1       2.542  11.358 132.974  0.00  0.00    +0.000 A 
ENDBRANCH  90  91
ENDBRANCH   5  90
BRANCH   1  97
ATOM     97  CB  TYR A   1      -5.275   8.015 140.510  0.00  0.00    +0.000 C 
BRANCH  97  99
ATOM     98  CD1 TYR A   1      -5.766   5.788 141.782  0.00  0.00    +0.000 C 
ATOM     99  CG  TYR A   1      -6.705   6.823 141.842  0.00  0.00    +0.000 C 
ATOM    100  CD2 TYR A   1      -7.326   5.870 143.600  0.00  0.00    +0.000 C 
ENDBRANCH  97  99
ENDBRANCH   1  97
TORSDOF 33
ENDMDL
MODEL 9
REMARK VINA RESULT:      -8.3      2.162      4.458
REMARK  Name = CHEMBL1765671
REMARK  35 active torsions:
REMARK  status: ('A' for Active; 'I' for Inactive)
REMARK    1  A    between atoms: CD1_1  and  CG_2
REMARK    2  A    between atoms: CG_2  and  CD2_3
REMARK    3  A    between atoms: CG_2  and  CB_4
REMARK    4  A    between atoms: CB_4  and  CA_5
REMARK    5  A    between atoms: CA_9  and  CB_10
REMARK    6  A    between atoms: CB_10  and  CG_11
REMARK    7  A    between atoms: CA_20  and  CB_21
REMARK    8  A    between atoms: CB_21  and  CG_22
REMARK    9  A    between atoms: CZ_25  and  OH_26
REMARK   10  A    between atoms: C_32  and  O_33
REMARK   11  A    between atoms: C_38  and  C_39
REMARK   12  A    between atoms: CA_45  and  C_46
REMARK   13  A    between atoms: N_48  and  C_49
REMARK   14  A    between atoms: C_49  and  C_50
REMARK   15  A    between atoms: C_49  and  C_68
REMARK   16  A    between atoms: C_50  and  C_51
REMARK   17  A    between atoms: C_51  and  C_52
REMARK   18  A    between atoms: C_52  and  C_53
REMARK   19  A    between atoms: C_53  and  N_54
REMARK   20  A    between atoms: C_55  and  C_57
REMARK   21  A    between atoms: C_57  and  C_58
REMARK   22  A    between atoms: C_58  and  C_59
REMARK   23  A    between atoms: C_59  and  C_60
REMARK   24  A    between atoms: C_60  and  C_61
REMARK   25  A    between atoms: C_61  and  C_62
REMARK   26  A    between atoms: C_62  and  C_63
REMARK   27  A    between atoms: C_63  and  C_64
REMARK   28  A    between atoms: C_64  and  C_65
REMARK   29  A    between atoms: C_65  and  C_66
REMARK   30  A    between atoms: C_66  and  N_67
REMARK   31  A    between atoms: N_70  and  CA_71
REMARK   32  A    between atoms: CA_71  and  C_72
REMARK   33  A    between atoms: C_72  and  OXT_74
REMARK   34  A    between atoms: CA_78  and  CB_79
REMARK   35  A    between atoms: CB_79  and  CG_80
REMARK                            x       y       z     vdW  Elec       q    Type
REMARK                         _______ _______ _______ _____ _____    ______ ____
ROOT
ATOM      1  CA  TYR A   1      -6.584  -1.458 129.496  0.00  0.00    +0.000 C 
ATOM      2  N   TYR A   1      -7.117  -0.753 127.004  0.00  0.00    +0.000 N 
ATOM      3  C   TYR A   1      -7.379   0.310 124.926  0.00  0.00    +0.000 C 
ATOM      4  O   TYR A   1      -6.524   0.705 123.461  0.00  0.00    +0.000 OA
ATOM      5  CA  TYR A   1      -8.433   1.344 123.081  0.00  0.00    +0.000 C 
ATOM      6  N   TYR A   1      -9.643   1.570 123.760  0.00  0.00    +0.000 N 
ATOM      7  C   TYR A   1      -9.077   1.715 124.975  0.00  0.00    +0.000 C 
ATOM      8  O   TYR A   1      -9.801   1.429 125.892  0.00  0.00    +0.000 OA
ATOM      9  CA  TYR A   1      -7.501   2.169 125.104  0.00  0.00    +0.000 C 
ATOM     10  N   TYR A   1      -7.408   3.300 125.844  0.00  0.00    +0.000 N 
ATOM     11  C   UNK A   0      -7.780   3.336 127.182  0.00  0.00    +0.000 C 
ATOM     12  O   UNK A   0      -7.662   4.377 127.824  0.00  0.00    +0.000 OA
ATOM     13  C   UNK A   0      -8.342   2.087 127.893  0.00  0.00    +0.000 C 
ATOM     14  C   UNK A   0      -7.487   1.681 129.040  0.00  0.00    +0.000 C 
ATOM     15  S   UNK A   3      -7.541   3.099 130.207  0.00  0.00    +0.000 S 
ATOM     16  S   UNK A   3      -6.381   2.908 131.695  0.00  0.00    +0.000 S 
ATOM     17  C   UNK A   3      -6.246   3.830 133.109  0.00  0.00    +0.000 C 
ATOM     18  C   UNK A   3      -5.358   3.394 134.251  0.00  0.00    +0.000 C 
ATOM     19  N   UNK A   3      -5.879   2.137 134.844  0.00  0.00    +0.000 N 
ATOM     20  C   ASN A   2      -6.018   0.924 134.158  0.00  0.00    +0.000 C 
ATOM     21  O   ASN A   2      -6.499  -0.083 134.671  0.00  0.00    +0.000 OA
ATOM     22  CA  ASN A   2      -5.542   0.784 132.697  0.00  0.00    +0.000 C 
ATOM     23  N   ASN A   2      -4.572  -0.155 132.307  0.00  0.00    +0.000 N 
ATOM     24  C   TYR A   1      -4.722  -0.989 130.809  0.00  0.00    +0.000 C 
ATOM     25  O   TYR A   1      -4.167  -1.975 132.057  0.00  0.00    +0.000 OA
ATOM     26  H   TYR A   1      -7.244  -1.307 125.588  0.00  0.00    +0.000 HD
ATOM     27  H   TYR A   1     -10.606   1.213 123.654  0.00  0.00    +0.000 HD
ATOM     28  H   TYR A   1      -6.995   4.093 125.384  0.00  0.00    +0.000 HD
ATOM     29  H   UNK A   3      -6.175   2.191 135.830  0.00  0.00    +0.000 HD
ATOM     30  H   ASN A   2      -3.625   0.191 132.178  0.00  0.00    +0.000 HD
ENDROOT
BRANCH  18  31
ATOM     31  C   UNK A   3      -5.312   4.562 135.291  0.00  0.00    +0.000 C 
ATOM     32  O   UNK A   3      -6.191   4.598 136.158  0.00  0.00    +0.000 OA
ATOM     33  N   PRO A   4      -4.235   5.488 135.227  0.00  0.00    +0.000 N 
ATOM     34  CD  PRO A   4      -3.700   6.185 134.057  0.00  0.00    +0.000 C 
ATOM     35  CG  PRO A   4      -2.219   6.196 134.320  0.00  0.00    +0.000 C 
ATOM     36  CB  PRO A   4      -2.151   6.561 135.802  0.00  0.00    +0.000 C 
ATOM     37  CA  PRO A   4      -3.413   5.936 136.417  0.00  0.00    +0.000 C 
BRANCH  37  38
ATOM     38  C   PRO A   4      -4.133   6.988 137.242  0.00  0.00    +0.000 C 
ATOM     39  O   PRO A   4      -3.824   8.156 136.986  0.00  0.00    +0.000 OA
ATOM     40  N   UNK A   5      -5.019   6.609 138.269  0.00  0.00    +0.000 N 
ATOM     41  H   UNK A   5      -5.165   5.635 138.533  0.00  0.00    +0.000 HD
BRANCH  40  42
ATOM     42  C   UNK A   5      -5.791   7.616 139.055  0.00  0.00    +0.000 C 
BRANCH  42  43
ATOM     43  C   UNK A   5      -6.276   7.026 140.413  0.00  0.00    +0.000 C 
ATOM     44  O   UNK A   5      -6.241   7.741 141.420  0.00  0.00    +0.000 OA
ATOM     45  N   GLY A   6      -6.737   5.705 140.461  0.00  0.00    +0.000 N 
ATOM     46  H   GLY A   6      -6.774   5.100 139.635  0.00  0.00    +0.000 HD
BRANCH  45  47
ATOM     47  CA  GLY A   6      -7.204   5.090 141.732  0.00  0.00    +0.000 C 
BRANCH  47  48
ATOM     48  C   GLY A   6      -7.902   3.745 141.486  0.00  0.00    +0.000 C 
ATOM     49  O   GLY A   6      -7.230   2.737 141.273  0.00  0.00    +0.000 OA
BRANCH  48  50
ATOM     50  OXT GLY A   6      -9.266   3.695 141.506  0.00  0.00    +0.000 OA
ATOM     51  HXT GLY A   6      -9.755   2.848 141.438  0.00  0.00    +0.000 HD
ENDBRANCH  48  50
ENDBRANCH  47  48
ENDBRANCH  45  47
ENDBRANCH  42  43
BRANCH  42  52
ATOM     52  C   UNK A   5      -6.985   8.077 138.247  0.00  0.00    +0.000 C 
BRANCH  52  53
ATOM     53  C   UNK A   5      -6.767   9.435 137.647  0.00  0.00    +0.000 C 
BRANCH  53  54
ATOM     54  C   UNK A   5      -6.915  10.547 138.614  0.00  0.00    +0.000 C 
BRANCH  54  55
ATOM     55  C   UNK A   5      -5.584  11.195 138.929  0.00  0.00    +0.000 C 
BRANCH  55  56
ATOM     56  N   UNK A   5      -4.605  10.983 137.851  0.00  0.00    +0.000 N 
ATOM     57  C   UNK A   5      -3.268  11.377 138.009  0.00  0.00    +0.000 C 
ATOM     58  O   UNK A   5      -2.863  11.915 139.041  0.00  0.00    +0.000 OA
ATOM     59  H   UNK A   5      -4.951  10.540 137.006  0.00  0.00    +0.000 HD
BRANCH  57  60
ATOM     60  C   UNK A   5      -2.290  11.132 136.853  0.00  0.00    +0.000 C 
BRANCH  60  61
ATOM     61  C   UNK A   5      -3.038  11.109 135.523  0.00  0.00    +0.000 C 
BRANCH  61  62
ATOM     62  C   UNK A   5      -2.480  10.055 134.599  0.00  0.00    +0.000 C 
BRANCH  62  63
ATOM     63  C   UNK A   5      -2.173  10.641 133.242  0.00  0.00    +0.000 C 
BRANCH  63  64
ATOM     64  C   UNK A   5      -0.800  11.269 133.232  0.00  0.00    +0.000 C 
BRANCH  64  65
ATOM     65  C   UNK A   5       0.209  10.354 133.883  0.00  0.00    +0.000 C 
BRANCH  65  66
ATOM     66  C   UNK A   5       0.952  11.076 134.981  0.00  0.00    +0.000 C 
BRANCH  66  67
ATOM     67  C   UNK A   5       1.442  10.100 136.023  0.00  0.00    +0.000 C 
BRANCH  67  68
ATOM     68  C   UNK A   5       0.713   8.781 135.903  0.00  0.00    +0.000 C 
BRANCH  68  69
ATOM     69  C   UNK A   5       1.577   7.644 136.400  0.00  0.00    +0.000 C 
BRANCH  69  70
ATOM     70  N   UNK A   5       1.063   7.136 137.663  0.00  0.00    +0.000 NA
ATOM     71  H   UNK A   5       1.841   6.838 138.251  0.00  0.00    +0.000 HD
ATOM     72  H   UNK A   5       0.462   6.331 137.492  0.00  0.00    +0.000 HD
ENDBRANCH  69  70
ENDBRANCH  68  69
ENDBRANCH  67  68
ENDBRANCH  66  67
ENDBRANCH  65  66
ENDBRANCH  64  65
ENDBRANCH  63  64
ENDBRANCH  62  63
ENDBRANCH  61  62
ENDBRANCH  60  61
ENDBRANCH  57  60
ENDBRANCH  55  56
ENDBRANCH  54  55
ENDBRANCH  53  54
ENDBRANCH  52  53
ENDBRANCH  42  52
ENDBRANCH  40  42
ENDBRANCH  37  38
ENDBRANCH  18  31
BRANCH  13  73
ATOM     73  O   UNK A   0      -8.512   0.920 127.244  0.00  0.00    +0.000 OA
ATOM     74  H   UNK A   0      -8.070   0.835 126.442  0.00  0.00    +0.000 HD
ENDBRANCH  13  73
BRANCH  22  75
ATOM     75  CB  ASN A   2      -6.748   0.527 131.855  0.00  0.00    +0.000 C 
BRANCH  75  76
ATOM     76  CG  ASN A   2      -8.064   0.573 132.324  0.00  0.00    +0.000 C 
ATOM     77  ND2 ASN A   2      -8.962   2.148 133.134  0.00  0.00    +0.000 N 
ATOM     78  OD1 ASN A   2      -8.979  -0.344 131.926  0.00  0.00    +0.000 OA
ATOM     79 HD21 ASN A   2      -8.048   2.680 132.208  0.00  0.00    +0.000 HD
ATOM     80 HD22 ASN A   2      -9.658   2.834 132.739  0.00  0.00    +0.000 HD
ENDBRANCH  75  76
ENDBRANCH  22  75
BRANCH   9  81
ATOM     81  CB  TYR A   1      -6.416   1.312 125.879  0.00  0.00    +0.000 C 
BRANCH  81  82
ATOM     82  CG  TYR A   1      -4.995   2.101 126.512  0.00  0.00    +0.000 A 
ATOM     83  CD1 TYR A   1      -4.853   3.968 125.378  0.00  0.00    +0.000 A 
ATOM     84  CE1 TYR A   1      -4.633   5.207 126.329  0.00  0.00    +0.000 A 
ATOM     85  CZ  TYR A   1      -3.619   4.968 127.194  0.00  0.00    +0.000 A 
ATOM     86  CE2 TYR A   1      -3.297   3.625 127.440  0.00  0.00    +0.000 A 
ATOM     87  CD2 TYR A   1      -4.188   2.416 127.464  0.00  0.00    +0.000 A 
BRANCH  85  88
ATOM     88  OH  TYR A   1      -2.818   5.946 127.698  0.00  0.00    +0.000 OA
ATOM     89  HH  TYR A   1      -1.869   5.896 127.475  0.00  0.00    +0.000 HD
ENDBRANCH  85  88
ENDBRANCH  81  82
ENDBRANCH   9  81
BRANCH   5  90
ATOM     90  CB  TYR A   1      -8.390   3.147 122.471  0.00  0.00    +0.000 C 
BRANCH  90  91
ATOM     91  CG  TYR A   1      -7.282   3.555 121.555  0.00  0.00    +0.000 A 
ATOM     92  CD1 TYR A   1      -6.002   3.687 122.018  0.00  0.00    +0.000 A 
ATOM     93  CE1 TYR A   1      -5.111   4.445 121.294  0.00  0.00    +0.000 A 
ATOM     94  CZ  TYR A   1      -5.340   4.788 119.994  0.00  0.00    +0.000 A 
ATOM     95  CE2 TYR A   1      -6.593   4.589 119.507  0.00  0.00    +0.000 A 
ATOM     96  CD2 TYR A   1      -7.548   3.951 120.262  0.00  0.00    +0.000 A 
ENDBRANCH  90  91
ENDBRANCH   5  90
BRANCH   1  97
ATOM     97  CB  TYR A   1      -6.980  -2.307 131.874  0.00  0.00    +0.000 C 
BRANCH  97  99
ATOM     98  CD1 TYR A   1      -8.418  -3.087 133.909  0.00  0.00    +0.000 C 
ATOM     99  CG  TYR A   1      -7.039  -3.324 133.923  0.00  0.00    +0.000 C 
ATOM    100  CD2 TYR A   1      -7.528  -4.833 135.290  0.00  0.00    +0.000 C 
ENDBRANCH  97  99
ENDBRANCH   1  97
TORSDOF 33
ENDMDL
