MODEL 1
REMARK VINA RESULT:     -11.3      0.000      0.000
REMARK  Name = CHEMBL322162
REMARK  8 active torsions:
REMARK  status: ('A' for Active; 'I' for Inactive)
REMARK    1  A    between atoms: C_1  and  O_2
REMARK    2  A    between atoms: O_2  and  C_3
REMARK    3  A    between atoms: C_5  and  O_6
REMARK    4  A    between atoms: O_6  and  C_7
REMARK    5  A    between atoms: C_7  and  C_8
REMARK    6  A    between atoms: C_7  and  C_14
REMARK    7  A    between atoms: C_22  and  C_23
REMARK    8  A    between atoms: C_28  and  N_29
REMARK                            x       y       z     vdW  Elec       q    Type
REMARK                         _______ _______ _______ _____ _____    ______ ____
ROOT
ATOM      1  C   UNL     1      -4.405   2.867 127.135  0.00  0.00    +0.000 A 
ATOM      2  C   UNL     1      -4.721   1.955 126.108  0.00  0.00    +0.000 A 
ATOM      3  C   UNL     1      -5.499   0.830 126.352  0.00  0.00    +0.000 A 
ATOM      4  C   UNL     1      -5.872   0.565 127.664  0.00  0.00    +0.000 A 
ATOM      5  C   UNL     1      -5.646   1.515 128.676  0.00  0.00    +0.000 A 
ATOM      6  C   UNL     1      -4.903   2.704 128.447  0.00  0.00    +0.000 A 
ENDROOT
BRANCH   6   7
ATOM      7  C   UNL     1      -4.625   3.570 129.682  0.00  0.00    +0.000 C 
ATOM      8  O   UNL     1      -3.441   3.835 129.925  0.00  0.00    +0.000 OA
ATOM      9  N   UNL     1      -5.658   4.187 130.445  0.00  0.00    +0.000 N 
ATOM     10  C   UNL     1      -5.759   5.680 130.390  0.00  0.00    +0.000 C 
ATOM     11  C   UNL     1      -6.267   6.277 131.670  0.00  0.00    +0.000 C 
ATOM     12  C   UNL     1      -7.959   5.830 131.851  0.00  0.00    +0.000 C 
ATOM     13  C   UNL     1      -7.499   4.149 132.098  0.00  0.00    +0.000 C 
ATOM     14  C   UNL     1      -6.870   3.473 130.899  0.00  0.00    +0.000 C 
BRANCH  12  15
ATOM     15  N   UNL     1      -9.128   7.004 131.013  0.00  0.00    +0.000 N 
ATOM     16  C   UNL     1     -10.048   6.495 131.980  0.00  0.00    +0.000 C 
ATOM     17  O   UNL     1      -9.928   6.496 133.253  0.00  0.00    +0.000 OA
ATOM     18  O   UNL     1     -11.020   5.733 131.528  0.00  0.00    +0.000 OA
ATOM     19  C   UNL     1     -11.955   6.737 131.428  0.00  0.00    +0.000 C 
ATOM     20  C   UNL     1     -11.659   6.888 130.008  0.00  0.00    +0.000 A 
ATOM     21  C   UNL     1     -12.595   6.412 129.030  0.00  0.00    +0.000 A 
ATOM     22  C   UNL     1     -12.758   6.958 127.780  0.00  0.00    +0.000 A 
ATOM     23  C   UNL     1     -12.171   8.186 127.711  0.00  0.00    +0.000 A 
ATOM     24  C   UNL     1     -10.994   8.458 128.713  0.00  0.00    +0.000 A 
ATOM     25  C   UNL     1     -10.401   7.392 129.718  0.00  0.00    +0.000 A 
ENDBRANCH  12  15
ENDBRANCH   6   7
BRANCH   1  27
ATOM     26  C   UNL     1      -2.258   3.565 126.626  0.00  0.00    +0.000 C 
ATOM     27  O   UNL     1      -3.634   3.886 126.631  0.00  0.00    +0.000 OA
ENDBRANCH   1  27
BRANCH   3  28
ATOM     28  O   UNL     1      -6.004   0.183 125.247  0.00  0.00    +0.000 OA
BRANCH  28  29
ATOM     29  C   UNL     1      -7.410   0.384 124.905  0.00  0.00    +0.000 C 
BRANCH  29  30
ATOM     30  C   UNL     1      -7.686   1.363 123.753  0.00  0.00    +0.000 A 
ATOM     31  C   UNL     1      -8.990   1.702 123.369  0.00  0.00    +0.000 A 
ATOM     32  C   UNL     1      -9.185   2.588 122.305  0.00  0.00    +0.000 A 
ATOM     33  C   UNL     1      -8.101   3.255 121.729  0.00  0.00    +0.000 A 
ATOM     34  C   UNL     1      -6.811   2.938 122.111  0.00  0.00    +0.000 A 
ATOM     35  C   UNL     1      -6.618   1.940 123.045  0.00  0.00    +0.000 A 
ENDBRANCH  29  30
BRANCH  29  36
ATOM     36  C   UNL     1      -7.986  -0.985 124.572  0.00  0.00    +0.000 A 
ATOM     37  C   UNL     1      -7.772  -1.562 123.313  0.00  0.00    +0.000 A 
ATOM     38  C   UNL     1      -8.430  -2.743 122.967  0.00  0.00    +0.000 A 
ATOM     39  C   UNL     1      -9.196  -3.423 123.912  0.00  0.00    +0.000 A 
ATOM     40  C   UNL     1      -9.361  -2.894 125.189  0.00  0.00    +0.000 A 
ATOM     41  C   UNL     1      -8.770  -1.677 125.512  0.00  0.00    +0.000 A 
ENDBRANCH  29  36
ENDBRANCH  28  29
ENDBRANCH   3  28
TORSDOF 7
ENDMDL
MODEL 2
REMARK VINA RESULT:     -11.1      2.166      3.037
REMARK  Name = CHEMBL322162
REMARK  8 active torsions:
REMARK  status: ('A' for Active; 'I' for Inactive)
REMARK    1  A    between atoms: C_1  and  O_2
REMARK    2  A    between atoms: O_2  and  C_3
REMARK    3  A    between atoms: C_5  and  O_6
REMARK    4  A    between atoms: O_6  and  C_7
REMARK    5  A    between atoms: C_7  and  C_8
REMARK    6  A    between atoms: C_7  and  C_14
REMARK    7  A    between atoms: C_22  and  C_23
REMARK    8  A    between atoms: C_28  and  N_29
REMARK                            x       y       z     vdW  Elec       q    Type
REMARK                         _______ _______ _______ _____ _____    ______ ____
ROOT
ATOM      1  C   UNL     1      -5.844   2.062 129.143  0.00  0.00    +0.000 A 
ATOM      2  C   UNL     1      -5.614   1.094 128.145  0.00  0.00    +0.000 A 
ATOM      3  C   UNL     1      -5.130  -0.170 128.459  0.00  0.00    +0.000 A 
ATOM      4  C   UNL     1      -4.774  -0.424 129.778  0.00  0.00    +0.000 A 
ATOM      5  C   UNL     1      -5.091   0.497 130.793  0.00  0.00    +0.000 A 
ATOM      6  C   UNL     1      -5.640   1.776 130.511  0.00  0.00    +0.000 A 
ENDROOT
BRANCH   6   7
ATOM      7  C   UNL     1      -5.799   2.719 131.711  0.00  0.00    +0.000 C 
ATOM      8  O   UNL     1      -4.814   2.862 132.445  0.00  0.00    +0.000 OA
ATOM      9  N   UNL     1      -6.955   3.527 131.913  0.00  0.00    +0.000 N 
ATOM     10  C   UNL     1      -6.795   5.009 131.769  0.00  0.00    +0.000 C 
ATOM     11  C   UNL     1      -7.712   5.784 132.668  0.00  0.00    +0.000 C 
ATOM     12  C   UNL     1      -9.361   5.565 132.094  0.00  0.00    +0.000 C 
ATOM     13  C   UNL     1      -9.314   3.872 132.576  0.00  0.00    +0.000 C 
ATOM     14  C   UNL     1      -8.336   3.012 131.805  0.00  0.00    +0.000 C 
BRANCH  12  15
ATOM     15  N   UNL     1      -9.856   6.783 130.784  0.00  0.00    +0.000 N 
ATOM     16  C   UNL     1     -11.101   6.756 131.483  0.00  0.00    +0.000 C 
ATOM     17  O   UNL     1     -11.312   7.009 132.719  0.00  0.00    +0.000 OA
ATOM     18  O   UNL     1     -12.115   6.190 130.866  0.00  0.00    +0.000 OA
ATOM     19  C   UNL     1     -12.635   7.353 130.347  0.00  0.00    +0.000 C 
ATOM     20  C   UNL     1     -11.959   7.104 129.079  0.00  0.00    +0.000 A 
ATOM     21  C   UNL     1     -12.717   6.680 127.937  0.00  0.00    +0.000 A 
ATOM     22  C   UNL     1     -12.382   6.958 126.634  0.00  0.00    +0.000 A 
ATOM     23  C   UNL     1     -11.445   7.946 126.579  0.00  0.00    +0.000 A 
ATOM     24  C   UNL     1     -10.535   8.121 127.845  0.00  0.00    +0.000 A 
ATOM     25  C   UNL     1     -10.576   7.189 129.121  0.00  0.00    +0.000 A 
ENDBRANCH  12  15
ENDBRANCH   6   7
BRANCH   1  27
ATOM     26  C   UNL     1      -5.891   3.369 127.234  0.00  0.00    +0.000 C 
ATOM     27  O   UNL     1      -6.324   3.215 128.569  0.00  0.00    +0.000 OA
ENDBRANCH   1  27
BRANCH   3  28
ATOM     28  O   UNL     1      -5.233  -1.128 127.477  0.00  0.00    +0.000 OA
BRANCH  28  29
ATOM     29  C   UNL     1      -6.414  -1.118 126.616  0.00  0.00    +0.000 C 
BRANCH  29  30
ATOM     30  C   UNL     1      -6.173  -1.484 125.144  0.00  0.00    +0.000 A 
ATOM     31  C   UNL     1      -5.422  -2.609 124.777  0.00  0.00    +0.000 A 
ATOM     32  C   UNL     1      -5.222  -2.889 123.422  0.00  0.00    +0.000 A 
ATOM     33  C   UNL     1      -5.891  -2.157 122.439  0.00  0.00    +0.000 A 
ATOM     34  C   UNL     1      -6.646  -1.054 122.791  0.00  0.00    +0.000 A 
ATOM     35  C   UNL     1      -6.703  -0.681 124.119  0.00  0.00    +0.000 A 
ENDBRANCH  29  30
BRANCH  29  36
ATOM     36  C   UNL     1      -7.420  -2.080 127.233  0.00  0.00    +0.000 A 
ATOM     37  C   UNL     1      -7.342  -2.421 128.590  0.00  0.00    +0.000 A 
ATOM     38  C   UNL     1      -8.171  -3.418 129.106  0.00  0.00    +0.000 A 
ATOM     39  C   UNL     1      -9.167  -3.985 128.312  0.00  0.00    +0.000 A 
ATOM     40  C   UNL     1      -9.298  -3.605 126.980  0.00  0.00    +0.000 A 
ATOM     41  C   UNL     1      -8.423  -2.668 126.441  0.00  0.00    +0.000 A 
ENDBRANCH  29  36
ENDBRANCH  28  29
ENDBRANCH   3  28
TORSDOF 7
ENDMDL
MODEL 3
REMARK VINA RESULT:     -10.7      1.771      2.366
REMARK  Name = CHEMBL322162
REMARK  8 active torsions:
REMARK  status: ('A' for Active; 'I' for Inactive)
REMARK    1  A    between atoms: C_1  and  O_2
REMARK    2  A    between atoms: O_2  and  C_3
REMARK    3  A    between atoms: C_5  and  O_6
REMARK    4  A    between atoms: O_6  and  C_7
REMARK    5  A    between atoms: C_7  and  C_8
REMARK    6  A    between atoms: C_7  and  C_14
REMARK    7  A    between atoms: C_22  and  C_23
REMARK    8  A    between atoms: C_28  and  N_29
REMARK                            x       y       z     vdW  Elec       q    Type
REMARK                         _______ _______ _______ _____ _____    ______ ____
ROOT
ATOM      1  C   UNL     1      -6.869   4.061 127.115  0.00  0.00    +0.000 A 
ATOM      2  C   UNL     1      -6.881   3.437 125.851  0.00  0.00    +0.000 A 
ATOM      3  C   UNL     1      -5.787   2.716 125.388  0.00  0.00    +0.000 A 
ATOM      4  C   UNL     1      -4.633   2.713 126.161  0.00  0.00    +0.000 A 
ATOM      5  C   UNL     1      -4.643   3.247 127.462  0.00  0.00    +0.000 A 
ATOM      6  C   UNL     1      -5.765   3.941 127.987  0.00  0.00    +0.000 A 
ENDROOT
BRANCH   6   7
ATOM      7  C   UNL     1      -5.572   4.585 129.366  0.00  0.00    +0.000 C 
ATOM      8  O   UNL     1      -4.505   5.179 129.562  0.00  0.00    +0.000 OA
ATOM      9  N   UNL     1      -6.608   4.652 130.342  0.00  0.00    +0.000 N 
ATOM     10  C   UNL     1      -7.172   6.003 130.659  0.00  0.00    +0.000 C 
ATOM     11  C   UNL     1      -7.626   6.125 132.084  0.00  0.00    +0.000 C 
ATOM     12  C   UNL     1      -9.045   5.108 132.298  0.00  0.00    +0.000 C 
ATOM     13  C   UNL     1      -8.056   3.666 132.090  0.00  0.00    +0.000 C 
ATOM     14  C   UNL     1      -7.451   3.497 130.713  0.00  0.00    +0.000 C 
BRANCH  12  15
ATOM     15  N   UNL     1     -10.638   5.961 131.873  0.00  0.00    +0.000 N 
ATOM     16  C   UNL     1     -10.691   4.963 130.852  0.00  0.00    +0.000 C 
ATOM     17  O   UNL     1     -10.652   3.693 130.994  0.00  0.00    +0.000 OA
ATOM     18  O   UNL     1     -10.530   5.374 129.614  0.00  0.00    +0.000 OA
ATOM     19  C   UNL     1     -11.870   5.488 129.324  0.00  0.00    +0.000 C 
ATOM     20  C   UNL     1     -11.823   6.917 129.612  0.00  0.00    +0.000 A 
ATOM     21  C   UNL     1     -11.880   7.864 128.535  0.00  0.00    +0.000 A 
ATOM     22  C   UNL     1     -12.411   9.127 128.638  0.00  0.00    +0.000 A 
ATOM     23  C   UNL     1     -13.160   9.243 129.770  0.00  0.00    +0.000 A 
ATOM     24  C   UNL     1     -12.805   8.271 130.949  0.00  0.00    +0.000 A 
ATOM     25  C   UNL     1     -11.604   7.244 130.941  0.00  0.00    +0.000 A 
ENDBRANCH  12  15
ENDBRANCH   6   7
BRANCH   1  27
ATOM     26  C   UNL     1      -8.609   5.235 126.139  0.00  0.00    +0.000 C 
ATOM     27  O   UNL     1      -8.067   4.699 127.329  0.00  0.00    +0.000 OA
ENDBRANCH   1  27
BRANCH   3  28
ATOM     28  O   UNL     1      -6.006   1.900 124.303  0.00  0.00    +0.000 OA
BRANCH  28  29
ATOM     29  C   UNL     1      -7.323   1.919 123.671  0.00  0.00    +0.000 C 
BRANCH  29  30
ATOM     30  C   UNL     1      -7.421   2.696 122.349  0.00  0.00    +0.000 A 
ATOM     31  C   UNL     1      -8.650   3.145 121.845  0.00  0.00    +0.000 A 
ATOM     32  C   UNL     1      -8.683   3.835 120.630  0.00  0.00    +0.000 A 
ATOM     33  C   UNL     1      -7.498   4.218 119.998  0.00  0.00    +0.000 A 
ATOM     34  C   UNL     1      -6.280   3.794 120.495  0.00  0.00    +0.000 A 
ATOM     35  C   UNL     1      -6.262   2.969 121.602  0.00  0.00    +0.000 A 
ENDBRANCH  29  30
BRANCH  29  36
ATOM     36  C   UNL     1      -7.732   0.469 123.452  0.00  0.00    +0.000 A 
ATOM     37  C   UNL     1      -6.764  -0.541 123.373  0.00  0.00    +0.000 A 
ATOM     38  C   UNL     1      -7.138  -1.838 123.020  0.00  0.00    +0.000 A 
ATOM     39  C   UNL     1      -8.485  -2.166 122.875  0.00  0.00    +0.000 A 
ATOM     40  C   UNL     1      -9.462  -1.185 123.017  0.00  0.00    +0.000 A 
ATOM     41  C   UNL     1      -9.087   0.126 123.292  0.00  0.00    +0.000 A 
ENDBRANCH  29  36
ENDBRANCH  28  29
ENDBRANCH   3  28
TORSDOF 7
ENDMDL
MODEL 4
REMARK VINA RESULT:     -10.6      3.898      9.324
REMARK  Name = CHEMBL322162
REMARK  8 active torsions:
REMARK  status: ('A' for Active; 'I' for Inactive)
REMARK    1  A    between atoms: C_1  and  O_2
REMARK    2  A    between atoms: O_2  and  C_3
REMARK    3  A    between atoms: C_5  and  O_6
REMARK    4  A    between atoms: O_6  and  C_7
REMARK    5  A    between atoms: C_7  and  C_8
REMARK    6  A    between atoms: C_7  and  C_14
REMARK    7  A    between atoms: C_22  and  C_23
REMARK    8  A    between atoms: C_28  and  N_29
REMARK                            x       y       z     vdW  Elec       q    Type
REMARK                         _______ _______ _______ _____ _____    ______ ____
ROOT
ATOM      1  C   UNL     1      -8.281   3.119 133.456  0.00  0.00    +0.000 A 
ATOM      2  C   UNL     1      -9.190   4.110 133.034  0.00  0.00    +0.000 A 
ATOM      3  C   UNL     1      -8.938   5.460 133.241  0.00  0.00    +0.000 A 
ATOM      4  C   UNL     1      -7.810   5.809 133.973  0.00  0.00    +0.000 A 
ATOM      5  C   UNL     1      -6.850   4.839 134.312  0.00  0.00    +0.000 A 
ATOM      6  C   UNL     1      -7.051   3.455 134.064  0.00  0.00    +0.000 A 
ENDROOT
BRANCH   6   7
ATOM      7  C   UNL     1      -5.976   2.511 134.616  0.00  0.00    +0.000 C 
ATOM      8  O   UNL     1      -5.784   2.534 135.838  0.00  0.00    +0.000 OA
ATOM      9  N   UNL     1      -5.322   1.530 133.817  0.00  0.00    +0.000 N 
ATOM     10  C   UNL     1      -5.620   0.091 134.107  0.00  0.00    +0.000 C 
ATOM     11  C   UNL     1      -4.455  -0.813 133.832  0.00  0.00    +0.000 C 
ATOM     12  C   UNL     1      -4.196  -0.865 132.093  0.00  0.00    +0.000 C 
ATOM     13  C   UNL     1      -3.678   0.817 132.109  0.00  0.00    +0.000 C 
ATOM     14  C   UNL     1      -4.752   1.816 132.484  0.00  0.00    +0.000 C 
BRANCH  12  15
ATOM     15  N   UNL     1      -5.212  -2.159 131.233  0.00  0.00    +0.000 N 
ATOM     16  C   UNL     1      -4.125  -2.139 130.306  0.00  0.00    +0.000 C 
ATOM     17  O   UNL     1      -2.885  -2.341 130.547  0.00  0.00    +0.000 OA
ATOM     18  O   UNL     1      -4.371  -1.636 129.116  0.00  0.00    +0.000 OA
ATOM     19  C   UNL     1      -4.639  -2.837 128.504  0.00  0.00    +0.000 C 
ATOM     20  C   UNL     1      -6.070  -2.626 128.688  0.00  0.00    +0.000 A 
ATOM     21  C   UNL     1      -6.891  -2.281 127.563  0.00  0.00    +0.000 A 
ATOM     22  C   UNL     1      -8.219  -2.610 127.440  0.00  0.00    +0.000 A 
ATOM     23  C   UNL     1      -8.564  -3.568 128.345  0.00  0.00    +0.000 A 
ATOM     24  C   UNL     1      -7.687  -3.655 129.644  0.00  0.00    +0.000 A 
ATOM     25  C   UNL     1      -6.507  -2.666 130.003  0.00  0.00    +0.000 A 
ENDBRANCH  12  15
ENDBRANCH   6   7
BRANCH   1  27
ATOM     26  C   UNL     1      -9.770   1.935 132.138  0.00  0.00    +0.000 C 
ATOM     27  O   UNL     1      -8.764   1.875 133.128  0.00  0.00    +0.000 OA
ENDBRANCH   1  27
BRANCH   3  28
ATOM     28  O   UNL     1      -9.716   6.345 132.530  0.00  0.00    +0.000 OA
BRANCH  28  29
ATOM     29  C   UNL     1      -9.246   6.788 131.219  0.00  0.00    +0.000 C 
BRANCH  29  30
ATOM     30  C   UNL     1      -8.395   5.777 130.436  0.00  0.00    +0.000 A 
ATOM     31  C   UNL     1      -6.995   5.786 130.499  0.00  0.00    +0.000 A 
ATOM     32  C   UNL     1      -6.268   4.852 129.755  0.00  0.00    +0.000 A 
ATOM     33  C   UNL     1      -6.921   3.817 129.081  0.00  0.00    +0.000 A 
ATOM     34  C   UNL     1      -8.301   3.790 129.026  0.00  0.00    +0.000 A 
ATOM     35  C   UNL     1      -9.013   4.812 129.622  0.00  0.00    +0.000 A 
ENDBRANCH  29  30
BRANCH  29  36
ATOM     36  C   UNL     1     -10.480   7.164 130.410  0.00  0.00    +0.000 A 
ATOM     37  C   UNL     1     -10.359   7.899 129.223  0.00  0.00    +0.000 A 
ATOM     38  C   UNL     1     -11.501   8.368 128.575  0.00  0.00    +0.000 A 
ATOM     39  C   UNL     1     -12.768   7.999 129.027  0.00  0.00    +0.000 A 
ATOM     40  C   UNL     1     -12.900   7.213 130.167  0.00  0.00    +0.000 A 
ATOM     41  C   UNL     1     -11.764   6.808 130.861  0.00  0.00    +0.000 A 
ENDBRANCH  29  36
ENDBRANCH  28  29
ENDBRANCH   3  28
TORSDOF 7
ENDMDL
MODEL 5
REMARK VINA RESULT:     -10.6      2.174      3.516
REMARK  Name = CHEMBL322162
REMARK  8 active torsions:
REMARK  status: ('A' for Active; 'I' for Inactive)
REMARK    1  A    between atoms: C_1  and  O_2
REMARK    2  A    between atoms: O_2  and  C_3
REMARK    3  A    between atoms: C_5  and  O_6
REMARK    4  A    between atoms: O_6  and  C_7
REMARK    5  A    between atoms: C_7  and  C_8
REMARK    6  A    between atoms: C_7  and  C_14
REMARK    7  A    between atoms: C_22  and  C_23
REMARK    8  A    between atoms: C_28  and  N_29
REMARK                            x       y       z     vdW  Elec       q    Type
REMARK                         _______ _______ _______ _____ _____    ______ ____
ROOT
ATOM      1  C   UNL     1      -6.122   2.844 127.714  0.00  0.00    +0.000 A 
ATOM      2  C   UNL     1      -6.237   1.860 126.711  0.00  0.00    +0.000 A 
ATOM      3  C   UNL     1      -5.726   0.581 126.889  0.00  0.00    +0.000 A 
ATOM      4  C   UNL     1      -5.000   0.322 128.045  0.00  0.00    +0.000 A 
ATOM      5  C   UNL     1      -4.964   1.262 129.091  0.00  0.00    +0.000 A 
ATOM      6  C   UNL     1      -5.526   2.560 128.962  0.00  0.00    +0.000 A 
ENDROOT
BRANCH   6   7
ATOM      7  C   UNL     1      -5.284   3.517 130.137  0.00  0.00    +0.000 C 
ATOM      8  O   UNL     1      -4.107   3.765 130.424  0.00  0.00    +0.000 OA
ATOM      9  N   UNL     1      -6.334   4.226 130.788  0.00  0.00    +0.000 N 
ATOM     10  C   UNL     1      -6.379   5.712 130.608  0.00  0.00    +0.000 C 
ATOM     11  C   UNL     1      -6.934   6.428 131.804  0.00  0.00    +0.000 C 
ATOM     12  C   UNL     1      -8.648   6.050 131.926  0.00  0.00    +0.000 C 
ATOM     13  C   UNL     1      -8.262   4.381 132.333  0.00  0.00    +0.000 C 
ATOM     14  C   UNL     1      -7.593   3.590 131.230  0.00  0.00    +0.000 C 
BRANCH  12  15
ATOM     15  N   UNL     1      -9.728   7.186 130.931  0.00  0.00    +0.000 N 
ATOM     16  C   UNL     1     -10.736   6.722 131.830  0.00  0.00    +0.000 C 
ATOM     17  O   UNL     1     -10.735   6.781 133.108  0.00  0.00    +0.000 OA
ATOM     18  O   UNL     1     -11.667   5.942 131.325  0.00  0.00    +0.000 OA
ATOM     19  C   UNL     1     -12.583   6.941 131.094  0.00  0.00    +0.000 C 
ATOM     20  C   UNL     1     -12.156   7.027 129.702  0.00  0.00    +0.000 A 
ATOM     21  C   UNL     1     -13.000   6.508 128.664  0.00  0.00    +0.000 A 
ATOM     22  C   UNL     1     -13.044   6.998 127.381  0.00  0.00    +0.000 A 
ATOM     23  C   UNL     1     -12.446   8.220 127.311  0.00  0.00    +0.000 A 
ATOM     24  C   UNL     1     -11.366   8.536 128.404  0.00  0.00    +0.000 A 
ATOM     25  C   UNL     1     -10.874   7.516 129.508  0.00  0.00    +0.000 A 
ENDBRANCH  12  15
ENDBRANCH   6   7
BRANCH   1  27
ATOM     26  C   UNL     1      -6.164   4.474 126.072  0.00  0.00    +0.000 C 
ATOM     27  O   UNL     1      -6.710   4.011 127.289  0.00  0.00    +0.000 OA
ENDBRANCH   1  27
BRANCH   3  28
ATOM     28  O   UNL     1      -6.154  -0.379 126.001  0.00  0.00    +0.000 OA
BRANCH  28  29
ATOM     29  C   UNL     1      -5.925  -1.784 126.331  0.00  0.00    +0.000 C 
BRANCH  29  30
ATOM     30  C   UNL     1      -7.089  -2.507 127.025  0.00  0.00    +0.000 A 
ATOM     31  C   UNL     1      -8.204  -2.967 126.311  0.00  0.00    +0.000 A 
ATOM     32  C   UNL     1      -9.242  -3.607 126.994  0.00  0.00    +0.000 A 
ATOM     33  C   UNL     1      -9.107  -3.933 128.346  0.00  0.00    +0.000 A 
ATOM     34  C   UNL     1      -8.005  -3.497 129.056  0.00  0.00    +0.000 A 
ATOM     35  C   UNL     1      -7.062  -2.719 128.414  0.00  0.00    +0.000 A 
ENDBRANCH  29  30
BRANCH  29  36
ATOM     36  C   UNL     1      -5.576  -2.493 125.030  0.00  0.00    +0.000 A 
ATOM     37  C   UNL     1      -4.881  -3.710 125.044  0.00  0.00    +0.000 A 
ATOM     38  C   UNL     1      -4.434  -4.271 123.848  0.00  0.00    +0.000 A 
ATOM     39  C   UNL     1      -4.787  -3.697 122.627  0.00  0.00    +0.000 A 
ATOM     40  C   UNL     1      -5.535  -2.524 122.598  0.00  0.00    +0.000 A 
ATOM     41  C   UNL     1      -5.916  -1.920 123.791  0.00  0.00    +0.000 A 
ENDBRANCH  29  36
ENDBRANCH  28  29
ENDBRANCH   3  28
TORSDOF 7
ENDMDL
MODEL 6
REMARK VINA RESULT:     -10.6      2.316      3.902
REMARK  Name = CHEMBL322162
REMARK  8 active torsions:
REMARK  status: ('A' for Active; 'I' for Inactive)
REMARK    1  A    between atoms: C_1  and  O_2
REMARK    2  A    between atoms: O_2  and  C_3
REMARK    3  A    between atoms: C_5  and  O_6
REMARK    4  A    between atoms: O_6  and  C_7
REMARK    5  A    between atoms: C_7  and  C_8
REMARK    6  A    between atoms: C_7  and  C_14
REMARK    7  A    between atoms: C_22  and  C_23
REMARK    8  A    between atoms: C_28  and  N_29
REMARK                            x       y       z     vdW  Elec       q    Type
REMARK                         _______ _______ _______ _____ _____    ______ ____
ROOT
ATOM      1  C   UNL     1      -7.031  -0.830 129.779  0.00  0.00    +0.000 A 
ATOM      2  C   UNL     1      -7.450  -1.551 128.643  0.00  0.00    +0.000 A 
ATOM      3  C   UNL     1      -7.873  -0.904 127.489  0.00  0.00    +0.000 A 
ATOM      4  C   UNL     1      -7.975   0.481 127.517  0.00  0.00    +0.000 A 
ATOM      5  C   UNL     1      -7.469   1.213 128.606  0.00  0.00    +0.000 A 
ATOM      6  C   UNL     1      -6.976   0.581 129.779  0.00  0.00    +0.000 A 
ENDROOT
BRANCH   6   7
ATOM      7  C   UNL     1      -6.590   1.515 130.933  0.00  0.00    +0.000 C 
ATOM      8  O   UNL     1      -5.448   1.396 131.392  0.00  0.00    +0.000 OA
ATOM      9  N   UNL     1      -7.422   2.584 131.376  0.00  0.00    +0.000 N 
ATOM     10  C   UNL     1      -6.944   3.981 131.124  0.00  0.00    +0.000 C 
ATOM     11  C   UNL     1      -7.384   4.948 132.183  0.00  0.00    +0.000 C 
ATOM     12  C   UNL     1      -9.126   5.157 132.048  0.00  0.00    +0.000 C 
ATOM     13  C   UNL     1      -9.377   3.500 132.587  0.00  0.00    +0.000 C 
ATOM     14  C   UNL     1      -8.868   2.434 131.641  0.00  0.00    +0.000 C 
BRANCH  12  15
ATOM     15  N   UNL     1      -9.621   6.480 130.844  0.00  0.00    +0.000 N 
ATOM     16  C   UNL     1     -10.801   6.520 131.648  0.00  0.00    +0.000 C 
ATOM     17  O   UNL     1     -10.884   6.724 132.908  0.00  0.00    +0.000 OA
ATOM     18  O   UNL     1     -11.908   6.074 131.098  0.00  0.00    +0.000 OA
ATOM     19  C   UNL     1     -12.366   7.301 130.680  0.00  0.00    +0.000 C 
ATOM     20  C   UNL     1     -11.823   7.064 129.347  0.00  0.00    +0.000 A 
ATOM     21  C   UNL     1     -12.709   6.766 128.259  0.00  0.00    +0.000 A 
ATOM     22  C   UNL     1     -12.461   7.084 126.946  0.00  0.00    +0.000 A 
ATOM     23  C   UNL     1     -11.450   7.992 126.853  0.00  0.00    +0.000 A 
ATOM     24  C   UNL     1     -10.424   8.023 128.040  0.00  0.00    +0.000 A 
ATOM     25  C   UNL     1     -10.440   7.032 129.271  0.00  0.00    +0.000 A 
ENDBRANCH  12  15
ENDBRANCH   6   7
BRANCH   1  27
ATOM     26  C   UNL     1      -7.149  -3.010 130.547  0.00  0.00    +0.000 C 
ATOM     27  O   UNL     1      -6.662  -1.703 130.774  0.00  0.00    +0.000 OA
ENDBRANCH   1  27
BRANCH   3  28
ATOM     28  O   UNL     1      -7.961  -1.674 126.352  0.00  0.00    +0.000 OA
BRANCH  28  29
ATOM     29  C   UNL     1      -7.161  -1.293 125.190  0.00  0.00    +0.000 C 
BRANCH  29  30
ATOM     30  C   UNL     1      -6.304  -2.409 124.572  0.00  0.00    +0.000 A 
ATOM     31  C   UNL     1      -5.141  -2.128 123.842  0.00  0.00    +0.000 A 
ATOM     32  C   UNL     1      -4.406  -3.182 123.290  0.00  0.00    +0.000 A 
ATOM     33  C   UNL     1      -4.728  -4.507 123.590  0.00  0.00    +0.000 A 
ATOM     34  C   UNL     1      -5.865  -4.794 124.322  0.00  0.00    +0.000 A 
ATOM     35  C   UNL     1      -6.681  -3.755 124.723  0.00  0.00    +0.000 A 
ENDBRANCH  29  30
BRANCH  29  36
ATOM     36  C   UNL     1      -8.125  -0.742 124.149  0.00  0.00    +0.000 A 
ATOM     37  C   UNL     1      -8.311   0.640 124.008  0.00  0.00    +0.000 A 
ATOM     38  C   UNL     1      -9.306   1.126 123.160  0.00  0.00    +0.000 A 
ATOM     39  C   UNL     1     -10.030   0.250 122.352  0.00  0.00    +0.000 A 
ATOM     40  C   UNL     1      -9.807  -1.121 122.433  0.00  0.00    +0.000 A 
ATOM     41  C   UNL     1      -8.869  -1.614 123.334  0.00  0.00    +0.000 A 
ENDBRANCH  29  36
ENDBRANCH  28  29
ENDBRANCH   3  28
TORSDOF 7
ENDMDL
MODEL 7
REMARK VINA RESULT:     -10.5      3.485     10.388
REMARK  Name = CHEMBL322162
REMARK  8 active torsions:
REMARK  status: ('A' for Active; 'I' for Inactive)
REMARK    1  A    between atoms: C_1  and  O_2
REMARK    2  A    between atoms: O_2  and  C_3
REMARK    3  A    between atoms: C_5  and  O_6
REMARK    4  A    between atoms: O_6  and  C_7
REMARK    5  A    between atoms: C_7  and  C_8
REMARK    6  A    between atoms: C_7  and  C_14
REMARK    7  A    between atoms: C_22  and  C_23
REMARK    8  A    between atoms: C_28  and  N_29
REMARK                            x       y       z     vdW  Elec       q    Type
REMARK                         _______ _______ _______ _____ _____    ______ ____
ROOT
ATOM      1  C   UNL     1      -5.983   4.572 128.192  0.00  0.00    +0.000 A 
ATOM      2  C   UNL     1      -5.134   4.284 129.279  0.00  0.00    +0.000 A 
ATOM      3  C   UNL     1      -3.777   4.046 129.096  0.00  0.00    +0.000 A 
ATOM      4  C   UNL     1      -3.293   3.993 127.795  0.00  0.00    +0.000 A 
ATOM      5  C   UNL     1      -4.109   4.374 126.714  0.00  0.00    +0.000 A 
ATOM      6  C   UNL     1      -5.486   4.679 126.875  0.00  0.00    +0.000 A 
ENDROOT
BRANCH   6   7
ATOM      7  C   UNL     1      -6.272   4.940 125.583  0.00  0.00    +0.000 C 
ATOM      8  O   UNL     1      -6.107   6.039 125.039  0.00  0.00    +0.000 OA
ATOM      9  N   UNL     1      -7.040   3.936 124.927  0.00  0.00    +0.000 N 
ATOM     10  C   UNL     1      -6.547   3.445 123.600  0.00  0.00    +0.000 C 
ATOM     11  C   UNL     1      -7.660   3.036 122.680  0.00  0.00    +0.000 C 
ATOM     12  C   UNL     1      -8.400   1.577 123.326  0.00  0.00    +0.000 C 
ATOM     13  C   UNL     1      -9.036   2.491 124.690  0.00  0.00    +0.000 C 
ATOM     14  C   UNL     1      -7.990   3.049 125.631  0.00  0.00    +0.000 C 
BRANCH  12  15
ATOM     15  N   UNL     1      -7.565   0.015 122.770  0.00  0.00    +0.000 N 
ATOM     16  C   UNL     1      -8.777  -0.584 123.230  0.00  0.00    +0.000 C 
ATOM     17  O   UNL     1      -9.972  -0.320 122.861  0.00  0.00    +0.000 OA
ATOM     18  O   UNL     1      -8.696  -1.325 124.313  0.00  0.00    +0.000 OA
ATOM     19  C   UNL     1      -8.560  -2.526 123.657  0.00  0.00    +0.000 C 
ATOM     20  C   UNL     1      -7.112  -2.462 123.814  0.00  0.00    +0.000 A 
ATOM     21  C   UNL     1      -6.458  -3.318 124.762  0.00  0.00    +0.000 A 
ATOM     22  C   UNL     1      -5.174  -3.787 124.628  0.00  0.00    +0.000 A 
ATOM     23  C   UNL     1      -4.728  -3.614 123.353  0.00  0.00    +0.000 A 
ATOM     24  C   UNL     1      -5.402  -2.465 122.524  0.00  0.00    +0.000 A 
ATOM     25  C   UNL     1      -6.484  -1.461 123.089  0.00  0.00    +0.000 A 
ENDBRANCH  12  15
ENDBRANCH   6   7
BRANCH   1  27
ATOM     26  C   UNL     1      -7.461   4.251 129.943  0.00  0.00    +0.000 C 
ATOM     27  O   UNL     1      -7.265   4.770 128.644  0.00  0.00    +0.000 OA
ENDBRANCH   1  27
BRANCH   3  28
ATOM     28  O   UNL     1      -2.990   4.085 130.224  0.00  0.00    +0.000 OA
BRANCH  28  29
ATOM     29  C   UNL     1      -3.556   4.645 131.449  0.00  0.00    +0.000 C 
BRANCH  29  30
ATOM     30  C   UNL     1      -3.706   3.669 132.626  0.00  0.00    +0.000 A 
ATOM     31  C   UNL     1      -3.261   2.342 132.545  0.00  0.00    +0.000 A 
ATOM     32  C   UNL     1      -3.434   1.492 133.641  0.00  0.00    +0.000 A 
ATOM     33  C   UNL     1      -3.897   1.990 134.861  0.00  0.00    +0.000 A 
ATOM     34  C   UNL     1      -4.325   3.301 134.955  0.00  0.00    +0.000 A 
ATOM     35  C   UNL     1      -4.309   4.091 133.823  0.00  0.00    +0.000 A 
ENDBRANCH  29  30
BRANCH  29  36
ATOM     36  C   UNL     1      -2.667   5.813 131.854  0.00  0.00    +0.000 A 
ATOM     37  C   UNL     1      -1.318   5.607 132.170  0.00  0.00    +0.000 A 
ATOM     38  C   UNL     1      -0.555   6.656 132.685  0.00  0.00    +0.000 A 
ATOM     39  C   UNL     1      -1.091   7.941 132.765  0.00  0.00    +0.000 A 
ATOM     40  C   UNL     1      -2.410   8.172 132.390  0.00  0.00    +0.000 A 
ATOM     41  C   UNL     1      -3.197   7.113 131.949  0.00  0.00    +0.000 A 
ENDBRANCH  29  36
ENDBRANCH  28  29
ENDBRANCH   3  28
TORSDOF 7
ENDMDL
MODEL 8
REMARK VINA RESULT:     -10.2      1.451      3.514
REMARK  Name = CHEMBL322162
REMARK  8 active torsions:
REMARK  status: ('A' for Active; 'I' for Inactive)
REMARK    1  A    between atoms: C_1  and  O_2
REMARK    2  A    between atoms: O_2  and  C_3
REMARK    3  A    between atoms: C_5  and  O_6
REMARK    4  A    between atoms: O_6  and  C_7
REMARK    5  A    between atoms: C_7  and  C_8
REMARK    6  A    between atoms: C_7  and  C_14
REMARK    7  A    between atoms: C_22  and  C_23
REMARK    8  A    between atoms: C_28  and  N_29
REMARK                            x       y       z     vdW  Elec       q    Type
REMARK                         _______ _______ _______ _____ _____    ______ ____
ROOT
ATOM      1  C   UNL     1      -6.096   0.006 128.616  0.00  0.00    +0.000 A 
ATOM      2  C   UNL     1      -6.136  -0.574 127.332  0.00  0.00    +0.000 A 
ATOM      3  C   UNL     1      -5.577   0.064 126.231  0.00  0.00    +0.000 A 
ATOM      4  C   UNL     1      -5.068   1.344 126.407  0.00  0.00    +0.000 A 
ATOM      5  C   UNL     1      -4.935   1.889 127.697  0.00  0.00    +0.000 A 
ATOM      6  C   UNL     1      -5.446   1.237 128.850  0.00  0.00    +0.000 A 
ENDROOT
BRANCH   6   7
ATOM      7  C   UNL     1      -5.347   2.023 130.164  0.00  0.00    +0.000 C 
ATOM      8  O   UNL     1      -4.241   2.055 130.717  0.00  0.00    +0.000 OA
ATOM      9  N   UNL     1      -6.415   2.818 130.673  0.00  0.00    +0.000 N 
ATOM     10  C   UNL     1      -6.224   4.304 130.683  0.00  0.00    +0.000 C 
ATOM     11  C   UNL     1      -6.933   4.974 131.823  0.00  0.00    +0.000 C 
ATOM     12  C   UNL     1      -8.665   4.857 131.540  0.00  0.00    +0.000 C 
ATOM     13  C   UNL     1      -8.600   3.117 131.796  0.00  0.00    +0.000 C 
ATOM     14  C   UNL     1      -7.812   2.345 130.760  0.00  0.00    +0.000 C 
BRANCH  12  15
ATOM     15  N   UNL     1      -9.341   6.240 130.501  0.00  0.00    +0.000 N 
ATOM     16  C   UNL     1     -10.337   6.281 131.523  0.00  0.00    +0.000 C 
ATOM     17  O   UNL     1     -10.165   6.437 132.781  0.00  0.00    +0.000 OA
ATOM     18  O   UNL     1     -11.546   5.887 131.187  0.00  0.00    +0.000 OA
ATOM     19  C   UNL     1     -12.034   7.143 130.908  0.00  0.00    +0.000 C 
ATOM     20  C   UNL     1     -11.771   6.943 129.488  0.00  0.00    +0.000 A 
ATOM     21  C   UNL     1     -12.863   6.713 128.586  0.00  0.00    +0.000 A 
ATOM     22  C   UNL     1     -12.866   7.075 127.261  0.00  0.00    +0.000 A 
ATOM     23  C   UNL     1     -11.861   7.957 127.001  0.00  0.00    +0.000 A 
ATOM     24  C   UNL     1     -10.623   7.914 127.963  0.00  0.00    +0.000 A 
ATOM     25  C   UNL     1     -10.431   6.876 129.140  0.00  0.00    +0.000 A 
ENDBRANCH  12  15
ENDBRANCH   6   7
BRANCH   1  27
ATOM     26  C   UNL     1      -7.045  -2.077 128.956  0.00  0.00    +0.000 C 
ATOM     27  O   UNL     1      -6.711  -0.826 129.520  0.00  0.00    +0.000 OA
ENDBRANCH   1  27
BRANCH   3  28
ATOM     28  O   UNL     1      -5.391  -0.706 125.106  0.00  0.00    +0.000 OA
BRANCH  28  29
ATOM     29  C   UNL     1      -6.411  -0.669 124.060  0.00  0.00    +0.000 C 
BRANCH  29  30
ATOM     30  C   UNL     1      -7.408  -1.837 124.055  0.00  0.00    +0.000 A 
ATOM     31  C   UNL     1      -7.347  -2.864 125.008  0.00  0.00    +0.000 A 
ATOM     32  C   UNL     1      -8.271  -3.911 124.949  0.00  0.00    +0.000 A 
ATOM     33  C   UNL     1      -9.344  -3.863 124.057  0.00  0.00    +0.000 A 
ATOM     34  C   UNL     1      -9.422  -2.847 123.123  0.00  0.00    +0.000 A 
ATOM     35  C   UNL     1      -8.413  -1.906 123.075  0.00  0.00    +0.000 A 
ENDBRANCH  29  30
BRANCH  29  36
ATOM     36  C   UNL     1      -7.157   0.649 124.217  0.00  0.00    +0.000 A 
ATOM     37  C   UNL     1      -8.274   0.742 125.058  0.00  0.00    +0.000 A 
ATOM     38  C   UNL     1      -9.038   1.909 125.075  0.00  0.00    +0.000 A 
ATOM     39  C   UNL     1      -8.623   3.031 124.358  0.00  0.00    +0.000 A 
ATOM     40  C   UNL     1      -7.477   2.973 123.571  0.00  0.00    +0.000 A 
ATOM     41  C   UNL     1      -6.756   1.786 123.492  0.00  0.00    +0.000 A 
ENDBRANCH  29  36
ENDBRANCH  28  29
ENDBRANCH   3  28
TORSDOF 7
ENDMDL
MODEL 9
REMARK VINA RESULT:     -10.2      2.304      3.426
REMARK  Name = CHEMBL322162
REMARK  8 active torsions:
REMARK  status: ('A' for Active; 'I' for Inactive)
REMARK    1  A    between atoms: C_1  and  O_2
REMARK    2  A    between atoms: O_2  and  C_3
REMARK    3  A    between atoms: C_5  and  O_6
REMARK    4  A    between atoms: O_6  and  C_7
REMARK    5  A    between atoms: C_7  and  C_8
REMARK    6  A    between atoms: C_7  and  C_14
REMARK    7  A    between atoms: C_22  and  C_23
REMARK    8  A    between atoms: C_28  and  N_29
REMARK                            x       y       z     vdW  Elec       q    Type
REMARK                         _______ _______ _______ _____ _____    ______ ____
ROOT
ATOM      1  C   UNL     1      -6.973  -1.239 129.285  0.00  0.00    +0.000 A 
ATOM      2  C   UNL     1      -7.392  -1.909 128.118  0.00  0.00    +0.000 A 
ATOM      3  C   UNL     1      -8.077  -1.246 127.108  0.00  0.00    +0.000 A 
ATOM      4  C   UNL     1      -8.437   0.079 127.322  0.00  0.00    +0.000 A 
ATOM      5  C   UNL     1      -7.941   0.781 128.435  0.00  0.00    +0.000 A 
ATOM      6  C   UNL     1      -7.189   0.146 129.459  0.00  0.00    +0.000 A 
ENDROOT
BRANCH   6   7
ATOM      7  C   UNL     1      -6.841   1.015 130.674  0.00  0.00    +0.000 C 
ATOM      8  O   UNL     1      -5.730   0.840 131.188  0.00  0.00    +0.000 OA
ATOM      9  N   UNL     1      -7.665   2.088 131.121  0.00  0.00    +0.000 N 
ATOM     10  C   UNL     1      -7.135   3.480 130.960  0.00  0.00    +0.000 C 
ATOM     11  C   UNL     1      -7.606   4.411 132.038  0.00  0.00    +0.000 C 
ATOM     12  C   UNL     1      -9.330   4.680 131.818  0.00  0.00    +0.000 C 
ATOM     13  C   UNL     1      -9.658   3.008 132.265  0.00  0.00    +0.000 C 
ATOM     14  C   UNL     1      -9.127   1.971 131.299  0.00  0.00    +0.000 C 
BRANCH  12  15
ATOM     15  N   UNL     1      -9.720   6.070 130.651  0.00  0.00    +0.000 N 
ATOM     16  C   UNL     1     -10.786   6.305 131.572  0.00  0.00    +0.000 C 
ATOM     17  O   UNL     1     -10.703   6.517 132.831  0.00  0.00    +0.000 OA
ATOM     18  O   UNL     1     -12.004   6.052 131.146  0.00  0.00    +0.000 OA
ATOM     19  C   UNL     1     -12.291   7.340 130.759  0.00  0.00    +0.000 C 
ATOM     20  C   UNL     1     -11.937   7.019 129.381  0.00  0.00    +0.000 A 
ATOM     21  C   UNL     1     -12.969   6.876 128.394  0.00  0.00    +0.000 A 
ATOM     22  C   UNL     1     -12.809   7.152 127.058  0.00  0.00    +0.000 A 
ATOM     23  C   UNL     1     -11.675   7.877 126.848  0.00  0.00    +0.000 A 
ATOM     24  C   UNL     1     -10.541   7.733 127.922  0.00  0.00    +0.000 A 
ATOM     25  C   UNL     1     -10.594   6.755 129.163  0.00  0.00    +0.000 A 
ENDBRANCH  12  15
ENDBRANCH   6   7
BRANCH   1  27
ATOM     26  C   UNL     1      -5.716  -3.177 129.404  0.00  0.00    +0.000 C 
ATOM     27  O   UNL     1      -6.318  -2.116 130.115  0.00  0.00    +0.000 OA
ENDBRANCH   1  27
BRANCH   3  28
ATOM     28  O   UNL     1      -8.164  -1.896 125.898  0.00  0.00    +0.000 OA
BRANCH  28  29
ATOM     29  C   UNL     1      -7.403  -1.368 124.767  0.00  0.00    +0.000 C 
BRANCH  29  30
ATOM     30  C   UNL     1      -6.613  -0.078 125.036  0.00  0.00    +0.000 A 
ATOM     31  C   UNL     1      -7.009   1.155 124.498  0.00  0.00    +0.000 A 
ATOM     32  C   UNL     1      -6.246   2.296 124.763  0.00  0.00    +0.000 A 
ATOM     33  C   UNL     1      -5.194   2.251 125.680  0.00  0.00    +0.000 A 
ATOM     34  C   UNL     1      -4.805   1.042 126.228  0.00  0.00    +0.000 A 
ATOM     35  C   UNL     1      -5.456  -0.110 125.833  0.00  0.00    +0.000 A 
ENDBRANCH  29  30
BRANCH  29  36
ATOM     36  C   UNL     1      -6.456  -2.471 124.316  0.00  0.00    +0.000 A 
ATOM     37  C   UNL     1      -6.712  -3.809 124.644  0.00  0.00    +0.000 A 
ATOM     38  C   UNL     1      -5.761  -4.790 124.358  0.00  0.00    +0.000 A 
ATOM     39  C   UNL     1      -4.616  -4.468 123.631  0.00  0.00    +0.000 A 
ATOM     40  C   UNL     1      -4.383  -3.153 123.241  0.00  0.00    +0.000 A 
ATOM     41  C   UNL     1      -5.291  -2.160 123.591  0.00  0.00    +0.000 A 
ENDBRANCH  29  36
ENDBRANCH  28  29
ENDBRANCH   3  28
TORSDOF 7
ENDMDL
