MODEL 1
REMARK VINA RESULT:     -10.0      0.000      0.000
REMARK  Name = CHEMBL3814232
REMARK  25 active torsions:
REMARK  status: ('A' for Active; 'I' for Inactive)
REMARK    1  A    between atoms: C_1  and  C_2
REMARK    2  A    between atoms: C_2  and  C_3
REMARK    3  A    between atoms: C_3  and  C_4
REMARK    4  A    between atoms: C_3  and  C_5
REMARK    5  A    between atoms: C_9  and  C_10
REMARK    6  A    between atoms: C_10  and  C_11
REMARK    7  A    between atoms: C_14  and  O_15
REMARK    8  A    between atoms: C_21  and  N_22
REMARK    9  A    between atoms: N_22  and  C_23
REMARK   10  A    between atoms: C_28  and  C_29
REMARK   11  A    between atoms: C_35  and  C_36
REMARK   12  A    between atoms: N_38  and  C_39
REMARK   13  A    between atoms: C_39  and  C_40
REMARK   14  A    between atoms: C_39  and  C_44
REMARK   15  A    between atoms: C_40  and  C_41
REMARK   16  A    between atoms: C_41  and  C_42
REMARK   17  A    between atoms: C_41  and  C_43
REMARK   18  A    between atoms: N_46  and  C_47
REMARK   19  A    between atoms: C_47  and  C_48
REMARK   20  A    between atoms: N_51  and  C_52
REMARK   21  A    between atoms: C_55  and  C_56
REMARK   22  A    between atoms: C_56  and  C_57
REMARK   23  A    between atoms: C_63  and  C_64
REMARK   24  A    between atoms: C_64  and  C_65
REMARK   25  A    between atoms: C_65  and  C_66
REMARK                            x       y       z     vdW  Elec       q    Type
REMARK                         _______ _______ _______ _____ _____    ______ ____
ROOT
ATOM      1  C   UNL     1      -4.016   1.784 132.280  0.00  0.00    +0.000 C 
ATOM      2  N   UNL     1      -2.894   4.183 133.363  0.00  0.00    +0.000 N 
ATOM      3  C   UNL     1      -1.981   6.572 134.372  0.00  0.00    +0.000 C 
ATOM      4  O   UNL     1      -0.771   7.716 135.216  0.00  0.00    +0.000 OA
ATOM      5  C   UNL     1      -2.004   9.241 135.296  0.00  0.00    +0.000 C 
ATOM      6  N   UNL     1      -2.403  10.841 134.695  0.00  0.00    +0.000 N 
ATOM      7  C   UNL     1      -2.311   9.704 134.044  0.00  0.00    +0.000 C 
ATOM      8  O   UNL     1      -2.532   9.475 132.901  0.00  0.00    +0.000 OA
ATOM      9  C   UNL     1      -2.313   8.180 134.580  0.00  0.00    +0.000 C 
ATOM     10  C   UNL     1      -3.149   7.262 135.261  0.00  0.00    +0.000 C 
ATOM     11  S   UNL     1      -3.344   6.864 133.185  0.00  0.00    +0.000 S 
ATOM     12  S   UNL     1      -4.583   5.363 133.542  0.00  0.00    +0.000 S 
ATOM     13  C   UNL     1      -4.718   4.579 131.890  0.00  0.00    +0.000 C 
ATOM     14  C   UNL     1      -5.710   3.513 131.971  0.00  0.00    +0.000 C 
ATOM     15  N   UNL     1      -5.159   2.764 132.945  0.00  0.00    +0.000 N 
ATOM     16  C   UNL     1      -4.759   2.624 134.250  0.00  0.00    +0.000 C 
ATOM     17  C   UNL     1      -5.803   1.619 132.918  0.00  0.00    +0.000 C 
ATOM     18  O   UNL     1      -5.548   1.332 131.718  0.00  0.00    +0.000 OA
ATOM     19  C   UNL     1      -4.588   0.088 133.287  0.00  0.00    +0.000 C 
ATOM     20  N   UNL     1      -5.244  -1.121 133.406  0.00  0.00    +0.000 N 
ATOM     21  C   UNL     1      -5.897  -1.724 132.541  0.00  0.00    +0.000 C 
ATOM     22  O   UNL     1      -6.823  -3.286 132.322  0.00  0.00    +0.000 OA
ATOM     23  C   UNL     1      -5.213  -1.194 130.408  0.00  0.00    +0.000 C 
ATOM     24  N   UNL     1      -4.416  -2.211 129.969  0.00  0.00    +0.000 N 
ATOM     25  C   UNL     1      -4.324  -0.689 131.337  0.00  0.00    +0.000 C 
ATOM     26  O   UNL     1      -4.368  -2.413 130.577  0.00  0.00    +0.000 OA
ATOM     27  H   UNL     1      -2.067   5.572 134.008  0.00  0.00    +0.000 HD
ATOM     28  H   UNL     1      -2.788  11.694 134.210  0.00  0.00    +0.000 HD
ATOM     29  H   UNL     1      -5.678  -1.540 134.104  0.00  0.00    +0.000 HD
ATOM     30  H   UNL     1      -3.517  -2.513 129.629  0.00  0.00    +0.000 HD
ENDROOT
BRANCH  14  31
ATOM     31  C   UNL     1      -6.031   2.979 130.541  0.00  0.00    +0.000 C 
ATOM     32  O   UNL     1      -5.255   2.402 129.841  0.00  0.00    +0.000 OA
ATOM     33  N   UNL     1      -7.301   3.091 130.015  0.00  0.00    +0.000 N 
ATOM     34  C   UNL     1      -8.193   4.245 130.011  0.00  0.00    +0.000 C 
ATOM     35  C   UNL     1      -9.550   3.593 130.047  0.00  0.00    +0.000 C 
ATOM     36  C   UNL     1      -9.412   2.439 129.060  0.00  0.00    +0.000 C 
ATOM     37  C   UNL     1      -7.971   2.020 129.205  0.00  0.00    +0.000 C 
BRANCH  37  38
ATOM     38  C   UNL     1      -7.684   2.096 127.731  0.00  0.00    +0.000 C 
ATOM     39  O   UNL     1      -8.896   2.172 126.914  0.00  0.00    +0.000 OA
ATOM     40  N   UNL     1      -6.496   2.751 127.197  0.00  0.00    +0.000 N 
ATOM     41  H   UNL     1      -5.672   2.695 127.748  0.00  0.00    +0.000 HD
BRANCH  40  42
ATOM     42  C   UNL     1      -6.361   3.269 125.795  0.00  0.00    +0.000 C 
BRANCH  42  43
ATOM     43  C   UNL     1      -6.814   2.177 124.796  0.00  0.00    +0.000 C 
ATOM     44  O   UNL     1      -6.191   1.106 124.755  0.00  0.00    +0.000 OA
ATOM     45  N   UNL     1      -7.938   2.423 123.968  0.00  0.00    +0.000 N 
ATOM     46  H   UNL     1      -8.442   3.294 124.003  0.00  0.00    +0.000 HD
BRANCH  45  47
ATOM     47  C   UNL     1      -8.402   1.418 123.006  0.00  0.00    +0.000 C 
BRANCH  47  48
ATOM     48  C   UNL     1      -9.891   1.072 123.200  0.00  0.00    +0.000 C 
ATOM     49  N   UNL     1     -10.584   1.691 124.269  0.00  0.00    +0.000 N 
ATOM     50  O   UNL     1     -10.446   0.272 122.440  0.00  0.00    +0.000 OA
ATOM     51  H   UNL     1     -10.165   2.345 124.904  0.00  0.00    +0.000 HD
ATOM     52  H   UNL     1     -11.567   1.491 124.430  0.00  0.00    +0.000 HD
ENDBRANCH  47  48
ENDBRANCH  45  47
ENDBRANCH  42  43
BRANCH  42  53
ATOM     53  C   UNL     1      -4.965   3.709 125.488  0.00  0.00    +0.000 C 
BRANCH  53  54
ATOM     54  C   UNL     1      -4.081   3.701 126.690  0.00  0.00    +0.000 C 
ATOM     55  C   UNL     1      -2.783   3.153 126.400  0.00  0.00    +0.000 C 
ATOM     56  C   UNL     1      -3.839   5.026 127.269  0.00  0.00    +0.000 C 
ENDBRANCH  53  54
ENDBRANCH  42  53
ENDBRANCH  40  42
ENDBRANCH  37  38
ENDBRANCH  14  31
BRANCH   9  57
ATOM     57  N   UNL     1      -1.484   8.639 136.635  0.00  0.00    +0.000 NA
ATOM     58  C   UNL     1      -1.737   7.340 137.704  0.00  0.00    +0.000 C 
ATOM     59  H   UNL     1      -1.940   9.189 137.163  0.00  0.00    +0.000 HD
ENDBRANCH   9  57
BRANCH   1  60
ATOM     60  C   UNL     1      -5.925  -0.159 131.482  0.00  0.00    +0.000 C 
ATOM     61  C   UNL     1      -7.764  -1.832 130.746  0.00  0.00    +0.000 C 
BRANCH  60  63
ATOM     62  C   UNL     1      -8.204   0.640 132.419  0.00  0.00    +0.000 C 
ATOM     63  C   UNL     1      -7.985  -0.734 131.226  0.00  0.00    +0.000 C 
ENDBRANCH  60  63
ENDBRANCH   1  60
BRANCH  19  64
ATOM     64  C   UNL     1      -2.984  -0.541 132.508  0.00  0.00    +0.000 C 
BRANCH  64  65
ATOM     65  C   UNL     1      -2.169  -1.318 133.524  0.00  0.00    +0.000 C 
ATOM     66  N   UNL     1      -1.412  -0.797 134.591  0.00  0.00    +0.000 N 
ATOM     67  O   UNL     1      -2.301  -2.514 133.636  0.00  0.00    +0.000 OA
ATOM     68  H   UNL     1      -1.167   0.425 134.981  0.00  0.00    +0.000 HD
ATOM     69  H   UNL     1      -0.645  -1.023 135.096  0.00  0.00    +0.000 HD
ENDBRANCH  64  65
ENDBRANCH  19  64
BRANCH   5  70
ATOM     70  C   UNL     1      -2.842  10.272 137.032  0.00  0.00    +0.000 C 
BRANCH  70  71
ATOM     71  C   UNL     1      -4.255  10.532 137.629  0.00  0.00    +0.000 A 
ATOM     72  C   UNL     1      -4.429  11.606 138.487  0.00  0.00    +0.000 A 
ATOM     73  C   UNL     1      -5.617  11.834 139.146  0.00  0.00    +0.000 A 
ATOM     74  C   UNL     1      -6.682  10.994 138.897  0.00  0.00    +0.000 A 
ATOM     75  C   UNL     1      -6.533   9.918 138.049  0.00  0.00    +0.000 A 
ATOM     76  C   UNL     1      -5.331   9.695 137.414  0.00  0.00    +0.000 A 
BRANCH  74  77
ATOM     77  O   UNL     1      -7.908  11.150 139.456  0.00  0.00    +0.000 OA
ATOM     78  H   UNL     1      -8.572  11.617 138.932  0.00  0.00    +0.000 HD
ENDBRANCH  74  77
ENDBRANCH  70  71
ENDBRANCH   5  70
BRANCH  23  79
ATOM     79  C   UNL     1      -6.413  -0.850 129.521  0.00  0.00    +0.000 C 
BRANCH  79  80
ATOM     80  C   UNL     1      -6.325  -0.696 127.914  0.00  0.00    +0.000 C 
BRANCH  80  81
ATOM     81  C   UNL     1      -6.480  -2.066 127.414  0.00  0.00    +0.000 C 
ATOM     82  N   UNL     1      -7.729  -2.616 127.079  0.00  0.00    +0.000 N 
ATOM     83  O   UNL     1      -5.422  -2.641 127.096  0.00  0.00    +0.000 OA
ATOM     84  H   UNL     1      -8.628  -2.173 127.275  0.00  0.00    +0.000 HD
ATOM     85  H   UNL     1      -7.828  -3.486 126.618  0.00  0.00    +0.000 HD
ENDBRANCH  80  81
ENDBRANCH  79  80
ENDBRANCH  23  79
TORSDOF 19
ENDMDL
MODEL 2
REMARK VINA RESULT:      -9.7      1.917      2.329
REMARK  Name = CHEMBL3814232
REMARK  25 active torsions:
REMARK  status: ('A' for Active; 'I' for Inactive)
REMARK    1  A    between atoms: C_1  and  C_2
REMARK    2  A    between atoms: C_2  and  C_3
REMARK    3  A    between atoms: C_3  and  C_4
REMARK    4  A    between atoms: C_3  and  C_5
REMARK    5  A    between atoms: C_9  and  C_10
REMARK    6  A    between atoms: C_10  and  C_11
REMARK    7  A    between atoms: C_14  and  O_15
REMARK    8  A    between atoms: C_21  and  N_22
REMARK    9  A    between atoms: N_22  and  C_23
REMARK   10  A    between atoms: C_28  and  C_29
REMARK   11  A    between atoms: C_35  and  C_36
REMARK   12  A    between atoms: N_38  and  C_39
REMARK   13  A    between atoms: C_39  and  C_40
REMARK   14  A    between atoms: C_39  and  C_44
REMARK   15  A    between atoms: C_40  and  C_41
REMARK   16  A    between atoms: C_41  and  C_42
REMARK   17  A    between atoms: C_41  and  C_43
REMARK   18  A    between atoms: N_46  and  C_47
REMARK   19  A    between atoms: C_47  and  C_48
REMARK   20  A    between atoms: N_51  and  C_52
REMARK   21  A    between atoms: C_55  and  C_56
REMARK   22  A    between atoms: C_56  and  C_57
REMARK   23  A    between atoms: C_63  and  C_64
REMARK   24  A    between atoms: C_64  and  C_65
REMARK   25  A    between atoms: C_65  and  C_66
REMARK                            x       y       z     vdW  Elec       q    Type
REMARK                         _______ _______ _______ _____ _____    ______ ____
ROOT
ATOM      1  C   UNL     1      -4.182   2.839 132.503  0.00  0.00    +0.000 C 
ATOM      2  N   UNL     1      -2.277   4.774 133.409  0.00  0.00    +0.000 N 
ATOM      3  C   UNL     1      -0.587   6.760 134.275  0.00  0.00    +0.000 C 
ATOM      4  O   UNL     1       1.012   7.479 134.919  0.00  0.00    +0.000 OA
ATOM      5  C   UNL     1       0.284   9.277 135.216  0.00  0.00    +0.000 C 
ATOM      6  N   UNL     1       0.261  10.956 134.704  0.00  0.00    +0.000 N 
ATOM      7  C   UNL     1      -0.072   9.875 134.036  0.00  0.00    +0.000 C 
ATOM      8  O   UNL     1      -0.524   9.779 132.944  0.00  0.00    +0.000 OA
ATOM      9  C   UNL     1      -0.418   8.383 134.551  0.00  0.00    +0.000 C 
ATOM     10  C   UNL     1      -1.361   7.695 135.352  0.00  0.00    +0.000 C 
ATOM     11  S   UNL     1      -1.981   7.480 133.333  0.00  0.00    +0.000 S 
ATOM     12  S   UNL     1      -3.519   6.360 133.876  0.00  0.00    +0.000 S 
ATOM     13  C   UNL     1      -4.124   5.736 132.261  0.00  0.00    +0.000 C 
ATOM     14  C   UNL     1      -5.350   4.981 132.495  0.00  0.00    +0.000 C 
ATOM     15  N   UNL     1      -4.886   4.057 133.357  0.00  0.00    +0.000 N 
ATOM     16  C   UNL     1      -4.343   3.740 134.577  0.00  0.00    +0.000 C 
ATOM     17  C   UNL     1      -5.821   3.136 133.427  0.00  0.00    +0.000 C 
ATOM     18  O   UNL     1      -5.847   2.857 132.198  0.00  0.00    +0.000 OA
ATOM     19  C   UNL     1      -5.042   1.313 133.575  0.00  0.00    +0.000 C 
ATOM     20  N   UNL     1      -5.983   0.326 133.789  0.00  0.00    +0.000 N 
ATOM     21  C   UNL     1      -6.906  -0.026 133.038  0.00  0.00    +0.000 C 
ATOM     22  O   UNL     1      -8.255  -1.259 132.960  0.00  0.00    +0.000 OA
ATOM     23  C   UNL     1      -6.442   0.413 130.827  0.00  0.00    +0.000 C 
ATOM     24  N   UNL     1      -6.040  -0.758 130.252  0.00  0.00    +0.000 N 
ATOM     25  C   UNL     1      -5.313   0.602 131.601  0.00  0.00    +0.000 C 
ATOM     26  O   UNL     1      -5.957  -0.998 130.842  0.00  0.00    +0.000 OA
ATOM     27  H   UNL     1      -1.005   5.844 133.921  0.00  0.00    +0.000 HD
ATOM     28  H   UNL     1       0.059  11.908 134.298  0.00  0.00    +0.000 HD
ATOM     29  H   UNL     1      -6.402   0.004 134.545  0.00  0.00    +0.000 HD
ATOM     30  H   UNL     1      -5.327  -1.276 129.766  0.00  0.00    +0.000 HD
ENDROOT
BRANCH  14  31
ATOM     31  C   UNL     1      -6.027   4.636 131.132  0.00  0.00    +0.000 C 
ATOM     32  O   UNL     1      -5.578   3.884 130.322  0.00  0.00    +0.000 OA
ATOM     33  N   UNL     1      -7.265   5.152 130.810  0.00  0.00    +0.000 N 
ATOM     34  C   UNL     1      -7.750   6.521 130.942  0.00  0.00    +0.000 C 
ATOM     35  C   UNL     1      -9.220   6.310 131.188  0.00  0.00    +0.000 C 
ATOM     36  C   UNL     1      -9.590   5.215 130.193  0.00  0.00    +0.000 C 
ATOM     37  C   UNL     1      -8.342   4.373 130.114  0.00  0.00    +0.000 C 
BRANCH  37  38
ATOM     38  C   UNL     1      -8.267   4.427 128.614  0.00  0.00    +0.000 C 
ATOM     39  O   UNL     1      -9.133   5.453 128.032  0.00  0.00    +0.000 OA
ATOM     40  N   UNL     1      -7.049   4.109 127.879  0.00  0.00    +0.000 N 
ATOM     41  H   UNL     1      -6.463   3.408 128.270  0.00  0.00    +0.000 HD
BRANCH  40  42
ATOM     42  C   UNL     1      -6.749   4.564 126.481  0.00  0.00    +0.000 C 
BRANCH  42  43
ATOM     43  C   UNL     1      -7.568   3.720 125.476  0.00  0.00    +0.000 C 
ATOM     44  O   UNL     1      -8.645   4.167 125.055  0.00  0.00    +0.000 OA
ATOM     45  N   UNL     1      -7.058   2.468 125.050  0.00  0.00    +0.000 N 
ATOM     46  H   UNL     1      -6.184   2.107 125.393  0.00  0.00    +0.000 HD
BRANCH  45  47
ATOM     47  C   UNL     1      -7.800   1.634 124.098  0.00  0.00    +0.000 C 
BRANCH  47  48
ATOM     48  C   UNL     1      -9.134   1.132 124.681  0.00  0.00    +0.000 C 
ATOM     49  N   UNL     1     -10.325   1.782 124.274  0.00  0.00    +0.000 N 
ATOM     50  O   UNL     1      -9.147   0.193 125.484  0.00  0.00    +0.000 OA
ATOM     51  H   UNL     1     -10.351   2.547 123.624  0.00  0.00    +0.000 HD
ATOM     52  H   UNL     1     -11.225   1.481 124.634  0.00  0.00    +0.000 HD
ENDBRANCH  47  48
ENDBRANCH  45  47
ENDBRANCH  42  43
BRANCH  42  53
ATOM     53  C   UNL     1      -5.290   4.483 126.161  0.00  0.00    +0.000 C 
BRANCH  53  54
ATOM     54  C   UNL     1      -4.428   4.588 127.375  0.00  0.00    +0.000 C 
ATOM     55  C   UNL     1      -3.265   3.747 127.284  0.00  0.00    +0.000 C 
ATOM     56  C   UNL     1      -3.927   5.940 127.642  0.00  0.00    +0.000 C 
ENDBRANCH  53  54
ENDBRANCH  42  53
ENDBRANCH  40  42
ENDBRANCH  37  38
ENDBRANCH  14  31
BRANCH   9  57
ATOM     57  N   UNL     1       0.817   8.482 136.445  0.00  0.00    +0.000 NA
ATOM     58  C   UNL     1       0.445   7.192 137.489  0.00  0.00    +0.000 C 
ATOM     59  H   UNL     1       0.593   9.077 137.067  0.00  0.00    +0.000 HD
ENDBRANCH   9  57
BRANCH   1  60
ATOM     60  C   UNL     1      -6.659   1.543 132.013  0.00  0.00    +0.000 C 
ATOM     61  C   UNL     1      -8.985   0.482 131.583  0.00  0.00    +0.000 C 
BRANCH  60  63
ATOM     62  C   UNL     1      -8.432   2.863 133.364  0.00  0.00    +0.000 C 
ATOM     63  C   UNL     1      -8.809   1.548 132.145  0.00  0.00    +0.000 C 
ENDBRANCH  60  63
ENDBRANCH   1  60
BRANCH  19  64
ATOM     64  C   UNL     1      -3.820   0.311 132.536  0.00  0.00    +0.000 C 
BRANCH  64  65
ATOM     65  C   UNL     1      -2.978  -0.586 133.423  0.00  0.00    +0.000 C 
ATOM     66  N   UNL     1      -1.756  -0.266 134.046  0.00  0.00    +0.000 N 
ATOM     67  O   UNL     1      -3.431  -1.614 133.868  0.00  0.00    +0.000 OA
ATOM     68  H   UNL     1      -1.010   0.805 134.022  0.00  0.00    +0.000 HD
ATOM     69  H   UNL     1      -0.971  -0.705 134.338  0.00  0.00    +0.000 HD
ENDBRANCH  64  65
ENDBRANCH  19  64
BRANCH   5  70
ATOM     70  C   UNL     1       0.050  10.401 137.076  0.00  0.00    +0.000 C 
BRANCH  70  71
ATOM     71  C   UNL     1      -1.126  10.926 137.950  0.00  0.00    +0.000 A 
ATOM     72  C   UNL     1      -2.371  11.089 137.363  0.00  0.00    +0.000 A 
ATOM     73  C   UNL     1      -3.429  11.657 138.036  0.00  0.00    +0.000 A 
ATOM     74  C   UNL     1      -3.256  12.021 139.355  0.00  0.00    +0.000 A 
ATOM     75  C   UNL     1      -2.026  11.869 139.959  0.00  0.00    +0.000 A 
ATOM     76  C   UNL     1      -0.973  11.317 139.264  0.00  0.00    +0.000 A 
BRANCH  74  77
ATOM     77  O   UNL     1      -4.240  12.548 140.125  0.00  0.00    +0.000 OA
ATOM     78  H   UNL     1      -5.053  12.813 139.676  0.00  0.00    +0.000 HD
ENDBRANCH  74  77
ENDBRANCH  70  71
ENDBRANCH   5  70
BRANCH  23  79
ATOM     79  C   UNL     1      -7.620   1.122 130.154  0.00  0.00    +0.000 C 
BRANCH  79  80
ATOM     80  C   UNL     1      -8.086   0.841 128.631  0.00  0.00    +0.000 C 
BRANCH  80  81
ATOM     81  C   UNL     1      -6.832   0.584 127.915  0.00  0.00    +0.000 C 
ATOM     82  N   UNL     1      -6.663  -0.508 127.046  0.00  0.00    +0.000 N 
ATOM     83  O   UNL     1      -5.998   1.508 127.951  0.00  0.00    +0.000 OA
ATOM     84  H   UNL     1      -7.331  -1.273 126.943  0.00  0.00    +0.000 HD
ATOM     85  H   UNL     1      -5.873  -0.613 126.460  0.00  0.00    +0.000 HD
ENDBRANCH  80  81
ENDBRANCH  79  80
ENDBRANCH  23  79
TORSDOF 19
ENDMDL
MODEL 3
REMARK VINA RESULT:      -9.6      2.839      6.285
REMARK  Name = CHEMBL3814232
REMARK  25 active torsions:
REMARK  status: ('A' for Active; 'I' for Inactive)
REMARK    1  A    between atoms: C_1  and  C_2
REMARK    2  A    between atoms: C_2  and  C_3
REMARK    3  A    between atoms: C_3  and  C_4
REMARK    4  A    between atoms: C_3  and  C_5
REMARK    5  A    between atoms: C_9  and  C_10
REMARK    6  A    between atoms: C_10  and  C_11
REMARK    7  A    between atoms: C_14  and  O_15
REMARK    8  A    between atoms: C_21  and  N_22
REMARK    9  A    between atoms: N_22  and  C_23
REMARK   10  A    between atoms: C_28  and  C_29
REMARK   11  A    between atoms: C_35  and  C_36
REMARK   12  A    between atoms: N_38  and  C_39
REMARK   13  A    between atoms: C_39  and  C_40
REMARK   14  A    between atoms: C_39  and  C_44
REMARK   15  A    between atoms: C_40  and  C_41
REMARK   16  A    between atoms: C_41  and  C_42
REMARK   17  A    between atoms: C_41  and  C_43
REMARK   18  A    between atoms: N_46  and  C_47
REMARK   19  A    between atoms: C_47  and  C_48
REMARK   20  A    between atoms: N_51  and  C_52
REMARK   21  A    between atoms: C_55  and  C_56
REMARK   22  A    between atoms: C_56  and  C_57
REMARK   23  A    between atoms: C_63  and  C_64
REMARK   24  A    between atoms: C_64  and  C_65
REMARK   25  A    between atoms: C_65  and  C_66
REMARK                            x       y       z     vdW  Elec       q    Type
REMARK                         _______ _______ _______ _____ _____    ______ ____
ROOT
ATOM      1  C   UNL     1      -7.743   4.030 131.598  0.00  0.00    +0.000 C 
ATOM      2  N   UNL     1      -7.777   5.057 134.269  0.00  0.00    +0.000 N 
ATOM      3  C   UNL     1      -7.621   6.052 136.826  0.00  0.00    +0.000 C 
ATOM      4  O   UNL     1      -8.282   6.731 138.435  0.00  0.00    +0.000 OA
ATOM      5  C   UNL     1      -6.517   7.168 139.175  0.00  0.00    +0.000 C 
ATOM      6  N   UNL     1      -5.286   6.783 140.365  0.00  0.00    +0.000 N 
ATOM      7  C   UNL     1      -5.773   6.040 139.397  0.00  0.00    +0.000 C 
ATOM      8  O   UNL     1      -5.457   4.948 139.059  0.00  0.00    +0.000 OA
ATOM      9  C   UNL     1      -6.612   6.446 138.078  0.00  0.00    +0.000 C 
ATOM     10  C   UNL     1      -6.480   7.203 136.888  0.00  0.00    +0.000 C 
ATOM     11  S   UNL     1      -6.072   5.180 136.390  0.00  0.00    +0.000 S 
ATOM     12  S   UNL     1      -5.809   5.653 134.487  0.00  0.00    +0.000 S 
ATOM     13  C   UNL     1      -5.725   4.003 133.692  0.00  0.00    +0.000 C 
ATOM     14  C   UNL     1      -5.405   4.192 132.282  0.00  0.00    +0.000 C 
ATOM     15  N   UNL     1      -6.437   4.978 131.920  0.00  0.00    +0.000 N 
ATOM     16  C   UNL     1      -7.117   6.166 132.025  0.00  0.00    +0.000 C 
ATOM     17  C   UNL     1      -6.430   4.989 130.606  0.00  0.00    +0.000 C 
ATOM     18  O   UNL     1      -6.535   3.743 130.446  0.00  0.00    +0.000 OA
ATOM     19  C   UNL     1      -8.276   4.993 129.865  0.00  0.00    +0.000 C 
ATOM     20  N   UNL     1      -8.319   5.143 128.493  0.00  0.00    +0.000 N 
ATOM     21  C   UNL     1      -7.871   4.377 127.626  0.00  0.00    +0.000 C 
ATOM     22  O   UNL     1      -7.784   4.221 125.806  0.00  0.00    +0.000 OA
ATOM     23  C   UNL     1      -7.757   2.200 128.364  0.00  0.00    +0.000 C 
ATOM     24  N   UNL     1      -8.833   1.536 127.849  0.00  0.00    +0.000 N 
ATOM     25  C   UNL     1      -8.467   2.974 129.261  0.00  0.00    +0.000 C 
ATOM     26  O   UNL     1      -9.096   2.105 127.712  0.00  0.00    +0.000 OA
ATOM     27  H   UNL     1      -7.951   5.635 135.901  0.00  0.00    +0.000 HD
ATOM     28  H   UNL     1      -4.447   6.451 140.911  0.00  0.00    +0.000 HD
ATOM     29  H   UNL     1      -8.296   5.877 127.936  0.00  0.00    +0.000 HD
ATOM     30  H   UNL     1      -9.672   1.005 128.011  0.00  0.00    +0.000 HD
ENDROOT
BRANCH  14  31
ATOM     31  C   UNL     1      -5.090   2.815 131.621  0.00  0.00    +0.000 C 
ATOM     32  O   UNL     1      -4.435   2.668 130.635  0.00  0.00    +0.000 OA
ATOM     33  N   UNL     1      -5.512   1.639 132.208  0.00  0.00    +0.000 N 
ATOM     34  C   UNL     1      -6.819   1.310 132.762  0.00  0.00    +0.000 C 
ATOM     35  C   UNL     1      -6.462   0.338 133.854  0.00  0.00    +0.000 C 
ATOM     36  C   UNL     1      -5.405  -0.549 133.204  0.00  0.00    +0.000 C 
ATOM     37  C   UNL     1      -4.685   0.388 132.267  0.00  0.00    +0.000 C 
BRANCH  37  38
ATOM     38  C   UNL     1      -4.843  -0.509 131.071  0.00  0.00    +0.000 C 
ATOM     39  O   UNL     1      -3.596  -0.700 130.329  0.00  0.00    +0.000 OA
ATOM     40  N   UNL     1      -5.796  -1.611 131.039  0.00  0.00    +0.000 N 
ATOM     41  H   UNL     1      -6.645  -1.479 131.537  0.00  0.00    +0.000 HD
BRANCH  40  42
ATOM     42  C   UNL     1      -5.705  -2.795 130.122  0.00  0.00    +0.000 C 
BRANCH  42  43
ATOM     43  C   UNL     1      -7.122  -3.180 129.633  0.00  0.00    +0.000 C 
ATOM     44  O   UNL     1      -8.016  -3.366 130.472  0.00  0.00    +0.000 OA
ATOM     45  N   UNL     1      -7.365  -3.292 128.241  0.00  0.00    +0.000 N 
ATOM     46  H   UNL     1      -6.637  -3.141 127.561  0.00  0.00    +0.000 HD
BRANCH  45  47
ATOM     47  C   UNL     1      -8.691  -3.655 127.732  0.00  0.00    +0.000 C 
BRANCH  47  48
ATOM     48  C   UNL     1      -8.884  -3.237 126.262  0.00  0.00    +0.000 C 
ATOM     49  N   UNL     1      -7.758  -3.278 125.405  0.00  0.00    +0.000 N 
ATOM     50  O   UNL     1      -9.995  -2.875 125.861  0.00  0.00    +0.000 OA
ATOM     51  H   UNL     1      -6.842  -3.567 125.697  0.00  0.00    +0.000 HD
ATOM     52  H   UNL     1      -7.843  -3.012 124.428  0.00  0.00    +0.000 HD
ENDBRANCH  47  48
ENDBRANCH  45  47
ENDBRANCH  42  43
BRANCH  42  53
ATOM     53  C   UNL     1      -5.044  -3.967 130.776  0.00  0.00    +0.000 C 
BRANCH  53  54
ATOM     54  C   UNL     1      -5.003  -3.847 132.263  0.00  0.00    +0.000 C 
ATOM     55  C   UNL     1      -5.706  -4.924 132.909  0.00  0.00    +0.000 C 
ATOM     56  C   UNL     1      -3.652  -3.851 132.831  0.00  0.00    +0.000 C 
ENDBRANCH  53  54
ENDBRANCH  42  53
ENDBRANCH  40  42
ENDBRANCH  37  38
ENDBRANCH  14  31
BRANCH   9  57
ATOM     57  N   UNL     1      -7.528   8.329 138.935  0.00  0.00    +0.000 NA
ATOM     58  C   UNL     1      -8.245   9.274 137.716  0.00  0.00    +0.000 C 
ATOM     59  H   UNL     1      -6.988   8.997 139.164  0.00  0.00    +0.000 HD
ENDBRANCH   9  57
BRANCH   1  60
ATOM     60  C   UNL     1      -6.878   3.469 128.953  0.00  0.00    +0.000 C 
ATOM     61  C   UNL     1      -5.957   2.976 126.580  0.00  0.00    +0.000 C 
BRANCH  60  63
ATOM     62  C   UNL     1      -4.822   4.978 128.495  0.00  0.00    +0.000 C 
ATOM     63  C   UNL     1      -5.338   3.565 127.450  0.00  0.00    +0.000 C 
ENDBRANCH  60  63
ENDBRANCH   1  60
BRANCH  19  64
ATOM     64  C   UNL     1      -9.783   3.870 130.071  0.00  0.00    +0.000 C 
BRANCH  64  65
ATOM     65  C   UNL     1     -11.006   4.685 130.449  0.00  0.00    +0.000 C 
ATOM     66  N   UNL     1     -11.249   5.343 131.669  0.00  0.00    +0.000 N 
ATOM     67  O   UNL     1     -11.797   5.036 129.606  0.00  0.00    +0.000 OA
ATOM     68  H   UNL     1     -10.567   5.417 132.780  0.00  0.00    +0.000 HD
ATOM     69  H   UNL     1     -11.986   5.603 132.202  0.00  0.00    +0.000 HD
ENDBRANCH  64  65
ENDBRANCH  19  64
BRANCH   5  70
ATOM     70  C   UNL     1      -5.670   9.109 139.716  0.00  0.00    +0.000 C 
BRANCH  70  71
ATOM     71  C   UNL     1      -4.864  10.238 139.010  0.00  0.00    +0.000 A 
ATOM     72  C   UNL     1      -3.953   9.890 138.026  0.00  0.00    +0.000 A 
ATOM     73  C   UNL     1      -3.119  10.815 137.438  0.00  0.00    +0.000 A 
ATOM     74  C   UNL     1      -3.239  12.140 137.804  0.00  0.00    +0.000 A 
ATOM     75  C   UNL     1      -4.138  12.509 138.782  0.00  0.00    +0.000 A 
ATOM     76  C   UNL     1      -4.950  11.566 139.373  0.00  0.00    +0.000 A 
BRANCH  74  77
ATOM     77  O   UNL     1      -2.503  13.140 137.260  0.00  0.00    +0.000 OA
ATOM     78  H   UNL     1      -2.725  14.041 137.525  0.00  0.00    +0.000 HD
ENDBRANCH  74  77
ENDBRANCH  70  71
ENDBRANCH   5  70
BRANCH  23  79
ATOM     79  C   UNL     1      -6.384   1.593 128.061  0.00  0.00    +0.000 C 
BRANCH  79  80
ATOM     80  C   UNL     1      -6.117   0.005 127.917  0.00  0.00    +0.000 C 
BRANCH  80  81
ATOM     81  C   UNL     1      -6.125  -0.230 126.469  0.00  0.00    +0.000 C 
ATOM     82  N   UNL     1      -4.975  -0.606 125.754  0.00  0.00    +0.000 N 
ATOM     83  O   UNL     1      -7.252  -0.289 125.944  0.00  0.00    +0.000 OA
ATOM     84  H   UNL     1      -4.031  -0.617 126.142  0.00  0.00    +0.000 HD
ATOM     85  H   UNL     1      -4.999  -0.894 124.808  0.00  0.00    +0.000 HD
ENDBRANCH  80  81
ENDBRANCH  79  80
ENDBRANCH  23  79
TORSDOF 19
ENDMDL
MODEL 4
REMARK VINA RESULT:      -9.5      1.425      2.244
REMARK  Name = CHEMBL3814232
REMARK  25 active torsions:
REMARK  status: ('A' for Active; 'I' for Inactive)
REMARK    1  A    between atoms: C_1  and  C_2
REMARK    2  A    between atoms: C_2  and  C_3
REMARK    3  A    between atoms: C_3  and  C_4
REMARK    4  A    between atoms: C_3  and  C_5
REMARK    5  A    between atoms: C_9  and  C_10
REMARK    6  A    between atoms: C_10  and  C_11
REMARK    7  A    between atoms: C_14  and  O_15
REMARK    8  A    between atoms: C_21  and  N_22
REMARK    9  A    between atoms: N_22  and  C_23
REMARK   10  A    between atoms: C_28  and  C_29
REMARK   11  A    between atoms: C_35  and  C_36
REMARK   12  A    between atoms: N_38  and  C_39
REMARK   13  A    between atoms: C_39  and  C_40
REMARK   14  A    between atoms: C_39  and  C_44
REMARK   15  A    between atoms: C_40  and  C_41
REMARK   16  A    between atoms: C_41  and  C_42
REMARK   17  A    between atoms: C_41  and  C_43
REMARK   18  A    between atoms: N_46  and  C_47
REMARK   19  A    between atoms: C_47  and  C_48
REMARK   20  A    between atoms: N_51  and  C_52
REMARK   21  A    between atoms: C_55  and  C_56
REMARK   22  A    between atoms: C_56  and  C_57
REMARK   23  A    between atoms: C_63  and  C_64
REMARK   24  A    between atoms: C_64  and  C_65
REMARK   25  A    between atoms: C_65  and  C_66
REMARK                            x       y       z     vdW  Elec       q    Type
REMARK                         _______ _______ _______ _____ _____    ______ ____
ROOT
ATOM      1  C   UNL     1      -4.040   1.671 132.105  0.00  0.00    +0.000 C 
ATOM      2  N   UNL     1      -2.842   4.058 133.134  0.00  0.00    +0.000 N 
ATOM      3  C   UNL     1      -1.854   6.439 134.088  0.00  0.00    +0.000 C 
ATOM      4  O   UNL     1      -0.609   7.563 134.907  0.00  0.00    +0.000 OA
ATOM      5  C   UNL     1      -1.791   9.128 134.949  0.00  0.00    +0.000 C 
ATOM      6  N   UNL     1      -2.137  10.726 134.309  0.00  0.00    +0.000 N 
ATOM      7  C   UNL     1      -2.082   9.571 133.685  0.00  0.00    +0.000 C 
ATOM      8  O   UNL     1      -2.308   9.322 132.548  0.00  0.00    +0.000 OA
ATOM      9  C   UNL     1      -2.135   8.061 134.257  0.00  0.00    +0.000 C 
ATOM     10  C   UNL     1      -3.001   7.188 134.958  0.00  0.00    +0.000 C 
ATOM     11  S   UNL     1      -3.205   6.747 132.891  0.00  0.00    +0.000 S 
ATOM     12  S   UNL     1      -4.492   5.295 133.281  0.00  0.00    +0.000 S 
ATOM     13  C   UNL     1      -4.650   4.477 131.648  0.00  0.00    +0.000 C 
ATOM     14  C   UNL     1      -5.677   3.446 131.752  0.00  0.00    +0.000 C 
ATOM     15  N   UNL     1      -5.151   2.703 132.744  0.00  0.00    +0.000 N 
ATOM     16  C   UNL     1      -4.758   2.581 134.053  0.00  0.00    +0.000 C 
ATOM     17  C   UNL     1      -5.832   1.579 132.743  0.00  0.00    +0.000 C 
ATOM     18  O   UNL     1      -5.585   1.256 131.551  0.00  0.00    +0.000 OA
ATOM     19  C   UNL     1      -4.669   0.019 133.151  0.00  0.00    +0.000 C 
ATOM     20  N   UNL     1      -5.364  -1.165 133.296  0.00  0.00    +0.000 N 
ATOM     21  C   UNL     1      -6.034  -1.767 132.444  0.00  0.00    +0.000 C 
ATOM     22  O   UNL     1      -7.010  -3.303 132.260  0.00  0.00    +0.000 OA
ATOM     23  C   UNL     1      -5.330  -1.310 130.302  0.00  0.00    +0.000 C 
ATOM     24  N   UNL     1      -4.566  -2.363 129.888  0.00  0.00    +0.000 N 
ATOM     25  C   UNL     1      -4.427  -0.812 131.220  0.00  0.00    +0.000 C 
ATOM     26  O   UNL     1      -4.526  -2.551 130.501  0.00  0.00    +0.000 OA
ATOM     27  H   UNL     1      -1.972   5.434 133.747  0.00  0.00    +0.000 HD
ATOM     28  H   UNL     1      -2.495  11.580 133.804  0.00  0.00    +0.000 HD
ATOM     29  H   UNL     1      -5.811  -1.553 134.003  0.00  0.00    +0.000 HD
ATOM     30  H   UNL     1      -3.677  -2.701 129.557  0.00  0.00    +0.000 HD
ENDROOT
BRANCH  14  31
ATOM     31  C   UNL     1      -6.013   2.890 130.334  0.00  0.00    +0.000 C 
ATOM     32  O   UNL     1      -5.242   2.309 129.632  0.00  0.00    +0.000 OA
ATOM     33  N   UNL     1      -7.291   2.983 129.825  0.00  0.00    +0.000 N 
ATOM     34  C   UNL     1      -8.193   4.129 129.817  0.00  0.00    +0.000 C 
ATOM     35  C   UNL     1      -9.543   3.467 129.881  0.00  0.00    +0.000 C 
ATOM     36  C   UNL     1      -9.409   2.300 128.908  0.00  0.00    +0.000 C 
ATOM     37  C   UNL     1      -7.962   1.895 129.038  0.00  0.00    +0.000 C 
BRANCH  37  38
ATOM     38  C   UNL     1      -7.697   1.953 127.560  0.00  0.00    +0.000 C 
ATOM     39  O   UNL     1      -6.294   2.220 127.239  0.00  0.00    +0.000 OA
ATOM     40  N   UNL     1      -8.445   1.152 126.599  0.00  0.00    +0.000 N 
ATOM     41  H   UNL     1      -9.399   0.976 126.813  0.00  0.00    +0.000 HD
BRANCH  40  42
ATOM     42  C   UNL     1      -7.966   0.802 125.221  0.00  0.00    +0.000 C 
BRANCH  42  43
ATOM     43  C   UNL     1      -7.831   2.092 124.377  0.00  0.00    +0.000 C 
ATOM     44  O   UNL     1      -8.857   2.714 124.065  0.00  0.00    +0.000 OA
ATOM     45  N   UNL     1      -6.540   2.537 123.998  0.00  0.00    +0.000 N 
ATOM     46  H   UNL     1      -5.708   2.030 124.253  0.00  0.00    +0.000 HD
BRANCH  45  47
ATOM     47  C   UNL     1      -6.364   3.754 123.199  0.00  0.00    +0.000 C 
BRANCH  47  48
ATOM     48  C   UNL     1      -6.601   3.503 121.698  0.00  0.00    +0.000 C 
ATOM     49  N   UNL     1      -7.886   3.780 121.172  0.00  0.00    +0.000 N 
ATOM     50  O   UNL     1      -5.688   3.068 120.989  0.00  0.00    +0.000 OA
ATOM     51  H   UNL     1      -8.651   4.134 121.718  0.00  0.00    +0.000 HD
ATOM     52  H   UNL     1      -8.084   3.629 120.187  0.00  0.00    +0.000 HD
ENDBRANCH  47  48
ENDBRANCH  45  47
ENDBRANCH  42  43
BRANCH  42  53
ATOM     53  C   UNL     1      -8.873  -0.174 124.539  0.00  0.00    +0.000 C 
BRANCH  53  54
ATOM     54  C   UNL     1      -8.199  -0.902 123.423  0.00  0.00    +0.000 C 
ATOM     55  C   UNL     1      -6.879  -1.343 123.788  0.00  0.00    +0.000 C 
ATOM     56  C   UNL     1      -8.913  -2.099 122.969  0.00  0.00    +0.000 C 
ENDBRANCH  53  54
ENDBRANCH  42  53
ENDBRANCH  40  42
ENDBRANCH  37  38
ENDBRANCH  14  31
BRANCH   9  57
ATOM     57  N   UNL     1      -1.294   8.541 136.303  0.00  0.00    +0.000 NA
ATOM     58  C   UNL     1      -1.581   7.273 137.399  0.00  0.00    +0.000 C 
ATOM     59  H   UNL     1      -1.735   9.115 136.819  0.00  0.00    +0.000 HD
ENDBRANCH   9  57
BRANCH   1  60
ATOM     60  C   UNL     1      -6.010  -0.227 131.349  0.00  0.00    +0.000 C 
ATOM     61  C   UNL     1      -7.904  -1.858 130.658  0.00  0.00    +0.000 C 
BRANCH  60  63
ATOM     62  C   UNL     1      -8.245   0.645 132.325  0.00  0.00    +0.000 C 
ATOM     63  C   UNL     1      -8.087  -0.768 131.169  0.00  0.00    +0.000 C 
ENDBRANCH  60  63
ENDBRANCH   1  60
BRANCH  19  64
ATOM     64  C   UNL     1      -3.084  -0.680 132.391  0.00  0.00    +0.000 C 
BRANCH  64  65
ATOM     65  C   UNL     1      -2.231  -1.343 133.455  0.00  0.00    +0.000 C 
ATOM     66  N   UNL     1      -1.463  -0.709 134.451  0.00  0.00    +0.000 N 
ATOM     67  O   UNL     1      -2.335  -2.525 133.681  0.00  0.00    +0.000 OA
ATOM     68  H   UNL     1      -1.236   0.548 134.720  0.00  0.00    +0.000 HD
ATOM     69  H   UNL     1      -0.681  -0.872 134.957  0.00  0.00    +0.000 HD
ENDBRANCH  64  65
ENDBRANCH  19  64
BRANCH   5  70
ATOM     70  C   UNL     1      -2.598  10.227 136.658  0.00  0.00    +0.000 C 
BRANCH  70  71
ATOM     71  C   UNL     1      -3.987  10.425 137.332  0.00  0.00    +0.000 A 
ATOM     72  C   UNL     1      -4.152  11.471 138.225  0.00  0.00    +0.000 A 
ATOM     73  C   UNL     1      -5.311  11.642 138.949  0.00  0.00    +0.000 A 
ATOM     74  C   UNL     1      -6.360  10.774 138.731  0.00  0.00    +0.000 A 
ATOM     75  C   UNL     1      -6.219   9.725 137.848  0.00  0.00    +0.000 A 
ATOM     76  C   UNL     1      -5.045   9.558 137.148  0.00  0.00    +0.000 A 
BRANCH  74  77
ATOM     77  O   UNL     1      -7.561  10.875 139.354  0.00  0.00    +0.000 OA
ATOM     78  H   UNL     1      -8.281  11.279 138.854  0.00  0.00    +0.000 HD
ENDBRANCH  74  77
ENDBRANCH  70  71
ENDBRANCH   5  70
BRANCH  23  79
ATOM     79  C   UNL     1      -6.517  -0.948 129.404  0.00  0.00    +0.000 C 
BRANCH  79  80
ATOM     80  C   UNL     1      -6.833  -1.679 127.997  0.00  0.00    +0.000 C 
BRANCH  80  81
ATOM     81  C   UNL     1      -5.604  -1.501 127.216  0.00  0.00    +0.000 C 
ATOM     82  N   UNL     1      -4.986  -0.250 127.047  0.00  0.00    +0.000 N 
ATOM     83  O   UNL     1      -5.021  -2.553 126.893  0.00  0.00    +0.000 OA
ATOM     84  H   UNL     1      -5.396   0.641 127.329  0.00  0.00    +0.000 HD
ATOM     85  H   UNL     1      -4.091  -0.143 126.638  0.00  0.00    +0.000 HD
ENDBRANCH  80  81
ENDBRANCH  79  80
ENDBRANCH  23  79
TORSDOF 19
ENDMDL
MODEL 5
REMARK VINA RESULT:      -9.4      3.724     12.020
REMARK  Name = CHEMBL3814232
REMARK  25 active torsions:
REMARK  status: ('A' for Active; 'I' for Inactive)
REMARK    1  A    between atoms: C_1  and  C_2
REMARK    2  A    between atoms: C_2  and  C_3
REMARK    3  A    between atoms: C_3  and  C_4
REMARK    4  A    between atoms: C_3  and  C_5
REMARK    5  A    between atoms: C_9  and  C_10
REMARK    6  A    between atoms: C_10  and  C_11
REMARK    7  A    between atoms: C_14  and  O_15
REMARK    8  A    between atoms: C_21  and  N_22
REMARK    9  A    between atoms: N_22  and  C_23
REMARK   10  A    between atoms: C_28  and  C_29
REMARK   11  A    between atoms: C_35  and  C_36
REMARK   12  A    between atoms: N_38  and  C_39
REMARK   13  A    between atoms: C_39  and  C_40
REMARK   14  A    between atoms: C_39  and  C_44
REMARK   15  A    between atoms: C_40  and  C_41
REMARK   16  A    between atoms: C_41  and  C_42
REMARK   17  A    between atoms: C_41  and  C_43
REMARK   18  A    between atoms: N_46  and  C_47
REMARK   19  A    between atoms: C_47  and  C_48
REMARK   20  A    between atoms: N_51  and  C_52
REMARK   21  A    between atoms: C_55  and  C_56
REMARK   22  A    between atoms: C_56  and  C_57
REMARK   23  A    between atoms: C_63  and  C_64
REMARK   24  A    between atoms: C_64  and  C_65
REMARK   25  A    between atoms: C_65  and  C_66
REMARK                            x       y       z     vdW  Elec       q    Type
REMARK                         _______ _______ _______ _____ _____    ______ ____
ROOT
ATOM      1  C   UNL     1      -6.309   4.895 132.104  0.00  0.00    +0.000 C 
ATOM      2  N   UNL     1      -7.140   4.270 129.437  0.00  0.00    +0.000 N 
ATOM      3  C   UNL     1      -7.766   3.598 126.846  0.00  0.00    +0.000 C 
ATOM      4  O   UNL     1      -8.877   3.383 125.361  0.00  0.00    +0.000 OA
ATOM      5  C   UNL     1      -7.529   2.464 124.270  0.00  0.00    +0.000 C 
ATOM      6  N   UNL     1      -6.452   2.548 122.887  0.00  0.00    +0.000 N 
ATOM      7  C   UNL     1      -6.478   3.290 123.971  0.00  0.00    +0.000 C 
ATOM      8  O   UNL     1      -5.743   4.160 124.301  0.00  0.00    +0.000 OA
ATOM      9  C   UNL     1      -7.181   3.038 125.403  0.00  0.00    +0.000 C 
ATOM     10  C   UNL     1      -7.136   2.143 126.500  0.00  0.00    +0.000 C 
ATOM     11  S   UNL     1      -5.959   3.832 127.022  0.00  0.00    +0.000 S 
ATOM     12  S   UNL     1      -5.577   3.071 128.808  0.00  0.00    +0.000 S 
ATOM     13  C   UNL     1      -4.782   4.485 129.662  0.00  0.00    +0.000 C 
ATOM     14  C   UNL     1      -4.327   4.030 130.971  0.00  0.00    +0.000 C 
ATOM     15  N   UNL     1      -5.498   3.605 131.482  0.00  0.00    +0.000 N 
ATOM     16  C   UNL     1      -6.564   2.741 131.444  0.00  0.00    +0.000 C 
ATOM     17  C   UNL     1      -5.283   3.434 132.767  0.00  0.00    +0.000 C 
ATOM     18  O   UNL     1      -4.909   4.612 133.013  0.00  0.00    +0.000 OA
ATOM     19  C   UNL     1      -6.862   3.968 133.851  0.00  0.00    +0.000 C 
ATOM     20  N   UNL     1      -6.733   3.679 135.194  0.00  0.00    +0.000 N 
ATOM     21  C   UNL     1      -5.907   4.136 135.999  0.00  0.00    +0.000 C 
ATOM     22  O   UNL     1      -5.477   4.032 137.773  0.00  0.00    +0.000 OA
ATOM     23  C   UNL     1      -5.146   6.216 135.375  0.00  0.00    +0.000 C 
ATOM     24  N   UNL     1      -5.815   7.139 136.126  0.00  0.00    +0.000 N 
ATOM     25  C   UNL     1      -6.221   5.844 134.591  0.00  0.00    +0.000 C 
ATOM     26  O   UNL     1      -6.238   6.681 136.279  0.00  0.00    +0.000 OA
ATOM     27  H   UNL     1      -7.771   3.987 127.840  0.00  0.00    +0.000 HD
ATOM     28  H   UNL     1      -5.650   2.638 122.207  0.00  0.00    +0.000 HD
ATOM     29  H   UNL     1      -6.883   2.918 135.694  0.00  0.00    +0.000 HD
ATOM     30  H   UNL     1      -6.425   7.940 136.160  0.00  0.00    +0.000 HD
ENDROOT
BRANCH  14  31
ATOM     31  C   UNL     1      -3.439   5.128 131.633  0.00  0.00    +0.000 C 
ATOM     32  O   UNL     1      -2.555   4.913 132.405  0.00  0.00    +0.000 OA
ATOM     33  N   UNL     1      -3.590   6.456 131.293  0.00  0.00    +0.000 N 
ATOM     34  C   UNL     1      -4.816   7.234 131.159  0.00  0.00    +0.000 C 
ATOM     35  C   UNL     1      -4.439   8.234 130.099  0.00  0.00    +0.000 C 
ATOM     36  C   UNL     1      -3.030   8.659 130.501  0.00  0.00    +0.000 C 
ATOM     37  C   UNL     1      -2.446   7.411 131.113  0.00  0.00    +0.000 C 
BRANCH  37  38
ATOM     38  C   UNL     1      -2.016   8.099 132.379  0.00  0.00    +0.000 C 
ATOM     39  O   UNL     1      -0.811   7.515 132.969  0.00  0.00    +0.000 OA
ATOM     40  N   UNL     1      -2.229   9.523 132.607  0.00  0.00    +0.000 N 
ATOM     41  H   UNL     1      -3.050   9.919 132.211  0.00  0.00    +0.000 HD
BRANCH  40  42
ATOM     42  C   UNL     1      -1.456  10.358 133.584  0.00  0.00    +0.000 C 
BRANCH  42  43
ATOM     43  C   UNL     1      -2.302  11.586 133.998  0.00  0.00    +0.000 C 
ATOM     44  O   UNL     1      -2.951  11.539 135.054  0.00  0.00    +0.000 OA
ATOM     45  N   UNL     1      -2.299  12.737 133.171  0.00  0.00    +0.000 N 
ATOM     46  H   UNL     1      -1.772  12.773 132.314  0.00  0.00    +0.000 HD
BRANCH  45  47
ATOM     47  C   UNL     1      -3.086  13.923 133.524  0.00  0.00    +0.000 C 
BRANCH  47  48
ATOM     48  C   UNL     1      -2.864  15.083 132.535  0.00  0.00    +0.000 C 
ATOM     49  N   UNL     1      -3.467  16.331 132.826  0.00  0.00    +0.000 N 
ATOM     50  O   UNL     1      -2.182  14.911 131.519  0.00  0.00    +0.000 OA
ATOM     51  H   UNL     1      -4.027  16.506 133.642  0.00  0.00    +0.000 HD
ATOM     52  H   UNL     1      -3.344  17.122 132.201  0.00  0.00    +0.000 HD
ENDBRANCH  47  48
ENDBRANCH  45  47
ENDBRANCH  42  43
BRANCH  42  53
ATOM     53  C   UNL     1      -0.136  10.798 133.032  0.00  0.00    +0.000 C 
BRANCH  53  54
ATOM     54  C   UNL     1       0.953  10.764 134.051  0.00  0.00    +0.000 C 
ATOM     55  C   UNL     1       1.362  12.085 134.447  0.00  0.00    +0.000 C 
ATOM     56  C   UNL     1       0.597  10.065 135.290  0.00  0.00    +0.000 C 
ENDBRANCH  53  54
ENDBRANCH  42  53
ENDBRANCH  40  42
ENDBRANCH  37  38
ENDBRANCH  14  31
BRANCH   9  57
ATOM     57  N   UNL     1      -8.834   1.696 124.636  0.00  0.00    +0.000 NA
ATOM     58  C   UNL     1      -9.474   0.734 125.884  0.00  0.00    +0.000 C 
ATOM     59  H   UNL     1      -8.611   0.975 124.166  0.00  0.00    +0.000 HD
ENDBRANCH   9  57
BRANCH   1  60
ATOM     60  C   UNL     1      -4.885   4.804 134.557  0.00  0.00    +0.000 C 
ATOM     61  C   UNL     1      -3.488   4.642 136.735  0.00  0.00    +0.000 C 
BRANCH  60  63
ATOM     62  C   UNL     1      -3.520   2.604 134.481  0.00  0.00    +0.000 C 
ATOM     63  C   UNL     1      -3.389   3.873 135.796  0.00  0.00    +0.000 C 
ENDBRANCH  60  63
ENDBRANCH   1  60
BRANCH  19  64
ATOM     64  C   UNL     1      -7.882   5.553 134.004  0.00  0.00    +0.000 C 
BRANCH  64  65
ATOM     65  C   UNL     1      -9.202   5.410 133.270  0.00  0.00    +0.000 C 
ATOM     66  N   UNL     1     -10.120   4.347 133.363  0.00  0.00    +0.000 N 
ATOM     67  O   UNL     1      -9.693   6.353 132.696  0.00  0.00    +0.000 OA
ATOM     68  H   UNL     1     -10.102   3.225 134.031  0.00  0.00    +0.000 HD
ATOM     69  H   UNL     1     -10.770   3.920 132.826  0.00  0.00    +0.000 HD
ENDBRANCH  64  65
ENDBRANCH  19  64
BRANCH   5  70
ATOM     70  C   UNL     1      -7.530   0.431 123.466  0.00  0.00    +0.000 C 
BRANCH  70  71
ATOM     71  C   UNL     1      -6.680  -0.861 123.638  0.00  0.00    +0.000 A 
ATOM     72  C   UNL     1      -6.342  -1.591 122.510  0.00  0.00    +0.000 A 
ATOM     73  C   UNL     1      -5.695  -2.804 122.588  0.00  0.00    +0.000 A 
ATOM     74  C   UNL     1      -5.323  -3.277 123.829  0.00  0.00    +0.000 A 
ATOM     75  C   UNL     1      -5.649  -2.568 124.966  0.00  0.00    +0.000 A 
ATOM     76  C   UNL     1      -6.315  -1.366 124.869  0.00  0.00    +0.000 A 
BRANCH  74  77
ATOM     77  O   UNL     1      -4.644  -4.435 124.021  0.00  0.00    +0.000 OA
ATOM     78  H   UNL     1      -4.784  -5.136 123.372  0.00  0.00    +0.000 HD
ENDBRANCH  74  77
ENDBRANCH  70  71
ENDBRANCH   5  70
BRANCH  23  79
ATOM     79  C   UNL     1      -3.617   6.278 135.440  0.00  0.00    +0.000 C 
BRANCH  79  80
ATOM     80  C   UNL     1      -2.784   7.643 135.678  0.00  0.00    +0.000 C 
BRANCH  80  81
ATOM     81  C   UNL     1      -1.590   7.211 136.412  0.00  0.00    +0.000 C 
ATOM     82  N   UNL     1      -0.446   6.704 135.773  0.00  0.00    +0.000 N 
ATOM     83  O   UNL     1      -1.565   7.521 137.618  0.00  0.00    +0.000 OA
ATOM     84  H   UNL     1      -0.394   6.470 134.781  0.00  0.00    +0.000 HD
ATOM     85  H   UNL     1       0.406   6.537 136.247  0.00  0.00    +0.000 HD
ENDBRANCH  80  81
ENDBRANCH  79  80
ENDBRANCH  23  79
TORSDOF 19
ENDMDL
MODEL 6
REMARK VINA RESULT:      -9.4      2.976      3.396
REMARK  Name = CHEMBL3814232
REMARK  25 active torsions:
REMARK  status: ('A' for Active; 'I' for Inactive)
REMARK    1  A    between atoms: C_1  and  C_2
REMARK    2  A    between atoms: C_2  and  C_3
REMARK    3  A    between atoms: C_3  and  C_4
REMARK    4  A    between atoms: C_3  and  C_5
REMARK    5  A    between atoms: C_9  and  C_10
REMARK    6  A    between atoms: C_10  and  C_11
REMARK    7  A    between atoms: C_14  and  O_15
REMARK    8  A    between atoms: C_21  and  N_22
REMARK    9  A    between atoms: N_22  and  C_23
REMARK   10  A    between atoms: C_28  and  C_29
REMARK   11  A    between atoms: C_35  and  C_36
REMARK   12  A    between atoms: N_38  and  C_39
REMARK   13  A    between atoms: C_39  and  C_40
REMARK   14  A    between atoms: C_39  and  C_44
REMARK   15  A    between atoms: C_40  and  C_41
REMARK   16  A    between atoms: C_41  and  C_42
REMARK   17  A    between atoms: C_41  and  C_43
REMARK   18  A    between atoms: N_46  and  C_47
REMARK   19  A    between atoms: C_47  and  C_48
REMARK   20  A    between atoms: N_51  and  C_52
REMARK   21  A    between atoms: C_55  and  C_56
REMARK   22  A    between atoms: C_56  and  C_57
REMARK   23  A    between atoms: C_63  and  C_64
REMARK   24  A    between atoms: C_64  and  C_65
REMARK   25  A    between atoms: C_65  and  C_66
REMARK                            x       y       z     vdW  Elec       q    Type
REMARK                         _______ _______ _______ _____ _____    ______ ____
ROOT
ATOM      1  C   UNL     1      -4.432   0.700 132.890  0.00  0.00    +0.000 C 
ATOM      2  N   UNL     1      -3.917   2.539 135.022  0.00  0.00    +0.000 N 
ATOM      3  C   UNL     1      -3.591   4.381 137.036  0.00  0.00    +0.000 C 
ATOM      4  O   UNL     1      -2.745   5.179 138.497  0.00  0.00    +0.000 OA
ATOM      5  C   UNL     1      -4.204   6.437 138.873  0.00  0.00    +0.000 C 
ATOM      6  N   UNL     1      -4.747   8.106 138.851  0.00  0.00    +0.000 N 
ATOM      7  C   UNL     1      -4.362   7.340 137.856  0.00  0.00    +0.000 C 
ATOM      8  O   UNL     1      -4.343   7.576 136.693  0.00  0.00    +0.000 OA
ATOM      9  C   UNL     1      -4.210   5.735 137.759  0.00  0.00    +0.000 C 
ATOM     10  C   UNL     1      -4.990   4.556 137.838  0.00  0.00    +0.000 C 
ATOM     11  S   UNL     1      -4.758   5.017 135.778  0.00  0.00    +0.000 S 
ATOM     12  S   UNL     1      -5.780   3.405 135.255  0.00  0.00    +0.000 S 
ATOM     13  C   UNL     1      -5.500   3.348 133.444  0.00  0.00    +0.000 C 
ATOM     14  C   UNL     1      -6.306   2.265 132.892  0.00  0.00    +0.000 C 
ATOM     15  N   UNL     1      -5.816   1.233 133.605  0.00  0.00    +0.000 N 
ATOM     16  C   UNL     1      -5.629   0.610 134.813  0.00  0.00    +0.000 C 
ATOM     17  C   UNL     1      -6.251   0.149 133.004  0.00  0.00    +0.000 C 
ATOM     18  O   UNL     1      -5.751   0.393 131.874  0.00  0.00    +0.000 OA
ATOM     19  C   UNL     1      -4.886  -1.298 133.025  0.00  0.00    +0.000 C 
ATOM     20  N   UNL     1      -5.348  -2.500 132.527  0.00  0.00    +0.000 N 
ATOM     21  C   UNL     1      -5.736  -2.752 131.377  0.00  0.00    +0.000 C 
ATOM     22  O   UNL     1      -6.345  -4.161 130.382  0.00  0.00    +0.000 OA
ATOM     23  C   UNL     1      -4.791  -1.352 129.814  0.00  0.00    +0.000 C 
ATOM     24  N   UNL     1      -3.776  -2.037 129.211  0.00  0.00    +0.000 N 
ATOM     25  C   UNL     1      -4.168  -1.195 131.037  0.00  0.00    +0.000 C 
ATOM     26  O   UNL     1      -3.801  -2.462 129.691  0.00  0.00    +0.000 OA
ATOM     27  H   UNL     1      -3.449   3.610 136.311  0.00  0.00    +0.000 HD
ATOM     28  H   UNL     1      -5.177   9.048 138.654  0.00  0.00    +0.000 HD
ATOM     29  H   UNL     1      -5.821  -3.198 132.900  0.00  0.00    +0.000 HD
ATOM     30  H   UNL     1      -2.796  -2.102 128.991  0.00  0.00    +0.000 HD
ENDROOT
BRANCH  14  31
ATOM     31  C   UNL     1      -6.285   2.331 131.333  0.00  0.00    +0.000 C 
ATOM     32  O   UNL     1      -5.336   2.079 130.655  0.00  0.00    +0.000 OA
ATOM     33  N   UNL     1      -7.430   2.630 130.626  0.00  0.00    +0.000 N 
ATOM     34  C   UNL     1      -8.406   3.687 130.866  0.00  0.00    +0.000 C 
ATOM     35  C   UNL     1      -9.677   3.064 130.353  0.00  0.00    +0.000 C 
ATOM     36  C   UNL     1      -9.239   2.389 129.057  0.00  0.00    +0.000 C 
ATOM     37  C   UNL     1      -7.823   1.957 129.343  0.00  0.00    +0.000 C 
BRANCH  37  38
ATOM     38  C   UNL     1      -7.258   2.606 128.111  0.00  0.00    +0.000 C 
ATOM     39  O   UNL     1      -8.288   3.033 127.163  0.00  0.00    +0.000 OA
ATOM     40  N   UNL     1      -6.028   3.388 128.132  0.00  0.00    +0.000 N 
ATOM     41  H   UNL     1      -5.326   3.095 128.771  0.00  0.00    +0.000 HD
BRANCH  40  42
ATOM     42  C   UNL     1      -5.650   4.417 127.108  0.00  0.00    +0.000 C 
BRANCH  42  43
ATOM     43  C   UNL     1      -5.753   3.799 125.692  0.00  0.00    +0.000 C 
ATOM     44  O   UNL     1      -5.056   2.810 125.417  0.00  0.00    +0.000 OA
ATOM     45  N   UNL     1      -6.652   4.367 124.755  0.00  0.00    +0.000 N 
ATOM     46  H   UNL     1      -7.217   5.169 124.981  0.00  0.00    +0.000 HD
BRANCH  45  47
ATOM     47  C   UNL     1      -6.783   3.814 123.403  0.00  0.00    +0.000 C 
BRANCH  47  48
ATOM     48  C   UNL     1      -7.941   2.804 123.297  0.00  0.00    +0.000 C 
ATOM     49  N   UNL     1      -8.035   1.794 124.285  0.00  0.00    +0.000 N 
ATOM     50  O   UNL     1      -8.752   2.885 122.368  0.00  0.00    +0.000 OA
ATOM     51  H   UNL     1      -7.395   1.699 125.053  0.00  0.00    +0.000 HD
ATOM     52  H   UNL     1      -8.785   1.109 124.252  0.00  0.00    +0.000 HD
ENDBRANCH  47  48
ENDBRANCH  45  47
ENDBRANCH  42  43
BRANCH  42  53
ATOM     53  C   UNL     1      -4.276   4.965 127.337  0.00  0.00    +0.000 C 
BRANCH  53  54
ATOM     54  C   UNL     1      -3.427   4.059 128.164  0.00  0.00    +0.000 C 
ATOM     55  C   UNL     1      -2.262   3.610 127.447  0.00  0.00    +0.000 C 
ATOM     56  C   UNL     1      -2.929   4.664 129.403  0.00  0.00    +0.000 C 
ENDBRANCH  53  54
ENDBRANCH  42  53
ENDBRANCH  40  42
ENDBRANCH  37  38
ENDBRANCH  14  31
BRANCH   9  57
ATOM     57  N   UNL     1      -3.831   5.389 139.963  0.00  0.00    +0.000 NA
ATOM     58  C   UNL     1      -3.837   3.729 140.335  0.00  0.00    +0.000 C 
ATOM     59  H   UNL     1      -4.494   5.540 140.536  0.00  0.00    +0.000 HD
ENDBRANCH   9  57
BRANCH   1  60
ATOM     60  C   UNL     1      -5.835  -0.900 131.013  0.00  0.00    +0.000 C 
ATOM     61  C   UNL     1      -7.227  -2.278 129.313  0.00  0.00    +0.000 C 
BRANCH  60  63
ATOM     62  C   UNL     1      -8.339  -0.697 131.646  0.00  0.00    +0.000 C 
ATOM     63  C   UNL     1      -7.704  -1.517 130.136  0.00  0.00    +0.000 C 
ENDBRANCH  60  63
ENDBRANCH   1  60
BRANCH  19  64
ATOM     64  C   UNL     1      -3.092  -1.427 132.443  0.00  0.00    +0.000 C 
BRANCH  64  65
ATOM     65  C   UNL     1      -2.185  -1.811 133.597  0.00  0.00    +0.000 C 
ATOM     66  N   UNL     1      -1.943  -3.104 134.098  0.00  0.00    +0.000 N 
ATOM     67  O   UNL     1      -1.388  -1.021 134.044  0.00  0.00    +0.000 OA
ATOM     68  H   UNL     1      -2.418  -4.277 133.775  0.00  0.00    +0.000 HD
ATOM     69  H   UNL     1      -1.710  -3.518 134.917  0.00  0.00    +0.000 HD
ENDBRANCH  64  65
ENDBRANCH  19  64
BRANCH   5  70
ATOM     70  C   UNL     1      -5.484   6.607 140.637  0.00  0.00    +0.000 C 
BRANCH  70  71
ATOM     71  C   UNL     1      -6.634   5.788 141.293  0.00  0.00    +0.000 A 
ATOM     72  C   UNL     1      -6.782   5.832 142.670  0.00  0.00    +0.000 A 
ATOM     73  C   UNL     1      -7.697   5.047 143.334  0.00  0.00    +0.000 A 
ATOM     74  C   UNL     1      -8.531   4.234 142.595  0.00  0.00    +0.000 A 
ATOM     75  C   UNL     1      -8.402   4.173 141.224  0.00  0.00    +0.000 A 
ATOM     76  C   UNL     1      -7.466   4.951 140.578  0.00  0.00    +0.000 A 
BRANCH  74  77
ATOM     77  O   UNL     1      -9.497   3.454 143.140  0.00  0.00    +0.000 OA
ATOM     78  H   UNL     1      -9.229   2.858 143.851  0.00  0.00    +0.000 HD
ENDBRANCH  74  77
ENDBRANCH  70  71
ENDBRANCH   5  70
BRANCH  23  79
ATOM     79  C   UNL     1      -5.860  -0.776 128.881  0.00  0.00    +0.000 C 
BRANCH  79  80
ATOM     80  C   UNL     1      -5.527  -0.047 127.477  0.00  0.00    +0.000 C 
BRANCH  80  81
ATOM     81  C   UNL     1      -6.257  -0.839 126.481  0.00  0.00    +0.000 C 
ATOM     82  N   UNL     1      -5.757  -2.042 125.952  0.00  0.00    +0.000 N 
ATOM     83  O   UNL     1      -7.440  -0.500 126.291  0.00  0.00    +0.000 OA
ATOM     84  H   UNL     1      -4.811  -2.393 126.106  0.00  0.00    +0.000 HD
ATOM     85  H   UNL     1      -6.298  -2.646 125.384  0.00  0.00    +0.000 HD
ENDBRANCH  80  81
ENDBRANCH  79  80
ENDBRANCH  23  79
TORSDOF 19
ENDMDL
MODEL 7
REMARK VINA RESULT:      -9.3      3.503     12.010
REMARK  Name = CHEMBL3814232
REMARK  25 active torsions:
REMARK  status: ('A' for Active; 'I' for Inactive)
REMARK    1  A    between atoms: C_1  and  C_2
REMARK    2  A    between atoms: C_2  and  C_3
REMARK    3  A    between atoms: C_3  and  C_4
REMARK    4  A    between atoms: C_3  and  C_5
REMARK    5  A    between atoms: C_9  and  C_10
REMARK    6  A    between atoms: C_10  and  C_11
REMARK    7  A    between atoms: C_14  and  O_15
REMARK    8  A    between atoms: C_21  and  N_22
REMARK    9  A    between atoms: N_22  and  C_23
REMARK   10  A    between atoms: C_28  and  C_29
REMARK   11  A    between atoms: C_35  and  C_36
REMARK   12  A    between atoms: N_38  and  C_39
REMARK   13  A    between atoms: C_39  and  C_40
REMARK   14  A    between atoms: C_39  and  C_44
REMARK   15  A    between atoms: C_40  and  C_41
REMARK   16  A    between atoms: C_41  and  C_42
REMARK   17  A    between atoms: C_41  and  C_43
REMARK   18  A    between atoms: N_46  and  C_47
REMARK   19  A    between atoms: C_47  and  C_48
REMARK   20  A    between atoms: N_51  and  C_52
REMARK   21  A    between atoms: C_55  and  C_56
REMARK   22  A    between atoms: C_56  and  C_57
REMARK   23  A    between atoms: C_63  and  C_64
REMARK   24  A    between atoms: C_64  and  C_65
REMARK   25  A    between atoms: C_65  and  C_66
REMARK                            x       y       z     vdW  Elec       q    Type
REMARK                         _______ _______ _______ _____ _____    ______ ____
ROOT
ATOM      1  C   UNL     1      -6.244   4.959 132.050  0.00  0.00    +0.000 C 
ATOM      2  N   UNL     1      -7.055   4.441 129.355  0.00  0.00    +0.000 N 
ATOM      3  C   UNL     1      -7.665   3.866 126.737  0.00  0.00    +0.000 C 
ATOM      4  O   UNL     1      -8.760   3.732 125.231  0.00  0.00    +0.000 OA
ATOM      5  C   UNL     1      -7.428   2.801 124.132  0.00  0.00    +0.000 C 
ATOM      6  N   UNL     1      -6.328   2.889 122.766  0.00  0.00    +0.000 N 
ATOM      7  C   UNL     1      -6.346   3.600 123.871  0.00  0.00    +0.000 C 
ATOM      8  O   UNL     1      -5.587   4.435 124.237  0.00  0.00    +0.000 OA
ATOM      9  C   UNL     1      -7.077   3.329 125.286  0.00  0.00    +0.000 C 
ATOM     10  C   UNL     1      -7.079   2.402 126.356  0.00  0.00    +0.000 C 
ATOM     11  S   UNL     1      -5.854   4.034 126.944  0.00  0.00    +0.000 S 
ATOM     12  S   UNL     1      -5.524   3.209 128.712  0.00  0.00    +0.000 S 
ATOM     13  C   UNL     1      -4.696   4.571 129.618  0.00  0.00    +0.000 C 
ATOM     14  C   UNL     1      -4.275   4.063 130.919  0.00  0.00    +0.000 C 
ATOM     15  N   UNL     1      -5.467   3.661 131.401  0.00  0.00    +0.000 N 
ATOM     16  C   UNL     1      -6.560   2.835 131.323  0.00  0.00    +0.000 C 
ATOM     17  C   UNL     1      -5.276   3.446 132.683  0.00  0.00    +0.000 C 
ATOM     18  O   UNL     1      -4.867   4.603 132.970  0.00  0.00    +0.000 OA
ATOM     19  C   UNL     1      -6.852   4.001 133.761  0.00  0.00    +0.000 C 
ATOM     20  N   UNL     1      -6.753   3.668 135.097  0.00  0.00    +0.000 N 
ATOM     21  C   UNL     1      -5.924   4.073 135.926  0.00  0.00    +0.000 C 
ATOM     22  O   UNL     1      -5.523   3.903 137.702  0.00  0.00    +0.000 OA
ATOM     23  C   UNL     1      -5.086   6.144 135.375  0.00  0.00    +0.000 C 
ATOM     24  N   UNL     1      -5.735   7.067 136.144  0.00  0.00    +0.000 N 
ATOM     25  C   UNL     1      -6.160   5.831 134.566  0.00  0.00    +0.000 C 
ATOM     26  O   UNL     1      -6.175   6.619 136.278  0.00  0.00    +0.000 OA
ATOM     27  H   UNL     1      -7.672   4.226 127.742  0.00  0.00    +0.000 HD
ATOM     28  H   UNL     1      -5.514   2.973 122.101  0.00  0.00    +0.000 HD
ATOM     29  H   UNL     1      -6.935   2.899 135.572  0.00  0.00    +0.000 HD
ATOM     30  H   UNL     1      -6.318   7.886 136.193  0.00  0.00    +0.000 HD
ENDROOT
BRANCH  14  31
ATOM     31  C   UNL     1      -3.360   5.110 131.626  0.00  0.00    +0.000 C 
ATOM     32  O   UNL     1      -2.462   4.841 132.363  0.00  0.00    +0.000 OA
ATOM     33  N   UNL     1      -3.505   6.458 131.370  0.00  0.00    +0.000 N 
ATOM     34  C   UNL     1      -4.726   7.253 131.311  0.00  0.00    +0.000 C 
ATOM     35  C   UNL     1      -4.362   8.312 130.304  0.00  0.00    +0.000 C 
ATOM     36  C   UNL     1      -2.940   8.699 130.700  0.00  0.00    +0.000 C 
ATOM     37  C   UNL     1      -2.356   7.412 131.222  0.00  0.00    +0.000 C 
BRANCH  37  38
ATOM     38  C   UNL     1      -1.891   8.018 132.516  0.00  0.00    +0.000 C 
ATOM     39  O   UNL     1      -0.776   7.290 133.124  0.00  0.00    +0.000 OA
ATOM     40  N   UNL     1      -1.953   9.451 132.776  0.00  0.00    +0.000 N 
ATOM     41  H   UNL     1      -2.712   9.945 132.369  0.00  0.00    +0.000 HD
BRANCH  40  42
ATOM     42  C   UNL     1      -1.122  10.172 133.796  0.00  0.00    +0.000 C 
BRANCH  42  43
ATOM     43  C   UNL     1      -2.031  10.667 134.947  0.00  0.00    +0.000 C 
ATOM     44  O   UNL     1      -3.247  10.789 134.740  0.00  0.00    +0.000 OA
ATOM     45  N   UNL     1      -1.452  10.951 136.210  0.00  0.00    +0.000 N 
ATOM     46  H   UNL     1      -0.464  10.851 136.375  0.00  0.00    +0.000 HD
BRANCH  45  47
ATOM     47  C   UNL     1      -2.275  11.422 137.329  0.00  0.00    +0.000 C 
BRANCH  47  48
ATOM     48  C   UNL     1      -2.749  10.266 138.229  0.00  0.00    +0.000 C 
ATOM     49  N   UNL     1      -1.802   9.662 139.091  0.00  0.00    +0.000 N 
ATOM     50  O   UNL     1      -3.924   9.886 138.184  0.00  0.00    +0.000 OA
ATOM     51  H   UNL     1      -0.840   9.945 139.153  0.00  0.00    +0.000 HD
ATOM     52  H   UNL     1      -2.074   8.898 139.701  0.00  0.00    +0.000 HD
ENDBRANCH  47  48
ENDBRANCH  45  47
ENDBRANCH  42  43
BRANCH  42  53
ATOM     53  C   UNL     1      -0.365  11.318 133.201  0.00  0.00    +0.000 C 
BRANCH  53  54
ATOM     54  C   UNL     1      -1.205  12.151 132.292  0.00  0.00    +0.000 C 
ATOM     55  C   UNL     1      -1.720  13.320 132.955  0.00  0.00    +0.000 C 
ATOM     56  C   UNL     1      -0.501  12.641 131.102  0.00  0.00    +0.000 C 
ENDBRANCH  53  54
ENDBRANCH  42  53
ENDBRANCH  40  42
ENDBRANCH  37  38
ENDBRANCH  14  31
BRANCH   9  57
ATOM     57  N   UNL     1      -8.762   2.066 124.457  0.00  0.00    +0.000 NA
ATOM     58  C   UNL     1      -9.430   1.065 125.659  0.00  0.00    +0.000 C 
ATOM     59  H   UNL     1      -8.557   1.362 123.955  0.00  0.00    +0.000 HD
ENDBRANCH   9  57
BRANCH   1  60
ATOM     60  C   UNL     1      -4.859   4.749 134.519  0.00  0.00    +0.000 C 
ATOM     61  C   UNL     1      -3.498   4.481 136.709  0.00  0.00    +0.000 C 
BRANCH  60  63
ATOM     62  C   UNL     1      -3.545   2.521 134.392  0.00  0.00    +0.000 C 
ATOM     63  C   UNL     1      -3.388   3.755 135.737  0.00  0.00    +0.000 C 
ENDBRANCH  60  63
ENDBRANCH   1  60
BRANCH  19  64
ATOM     64  C   UNL     1      -7.822   5.614 133.948  0.00  0.00    +0.000 C 
BRANCH  64  65
ATOM     65  C   UNL     1      -9.153   5.521 133.227  0.00  0.00    +0.000 C 
ATOM     66  N   UNL     1     -10.124   4.509 133.353  0.00  0.00    +0.000 N 
ATOM     67  O   UNL     1      -9.601   6.474 132.634  0.00  0.00    +0.000 OA
ATOM     68  H   UNL     1     -10.158   3.404 134.048  0.00  0.00    +0.000 HD
ATOM     69  H   UNL     1     -10.800   4.103 132.831  0.00  0.00    +0.000 HD
ENDBRANCH  64  65
ENDBRANCH  19  64
BRANCH   5  70
ATOM     70  C   UNL     1      -7.484   0.793 123.268  0.00  0.00    +0.000 C 
BRANCH  70  71
ATOM     71  C   UNL     1      -6.768  -0.568 123.504  0.00  0.00    +0.000 A 
ATOM     72  C   UNL     1      -6.328  -0.878 124.780  0.00  0.00    +0.000 A 
ATOM     73  C   UNL     1      -5.585  -2.007 125.046  0.00  0.00    +0.000 A 
ATOM     74  C   UNL     1      -5.321  -2.883 124.015  0.00  0.00    +0.000 A 
ATOM     75  C   UNL     1      -5.747  -2.595 122.736  0.00  0.00    +0.000 A 
ATOM     76  C   UNL     1      -6.472  -1.451 122.485  0.00  0.00    +0.000 A 
BRANCH  74  77
ATOM     77  O   UNL     1      -4.638  -4.044 124.171  0.00  0.00    +0.000 OA
ATOM     78  H   UNL     1      -5.055  -4.846 123.829  0.00  0.00    +0.000 HD
ENDBRANCH  74  77
ENDBRANCH  70  71
ENDBRANCH   5  70
BRANCH  23  79
ATOM     79  C   UNL     1      -3.557   6.154 135.462  0.00  0.00    +0.000 C 
BRANCH  79  80
ATOM     80  C   UNL     1      -2.683   7.480 135.765  0.00  0.00    +0.000 C 
BRANCH  80  81
ATOM     81  C   UNL     1      -1.533   6.986 136.529  0.00  0.00    +0.000 C 
ATOM     82  N   UNL     1      -0.273   6.763 135.948  0.00  0.00    +0.000 N 
ATOM     83  O   UNL     1      -1.677   6.980 137.766  0.00  0.00    +0.000 OA
ATOM     84  H   UNL     1      -0.085   6.796 134.945  0.00  0.00    +0.000 HD
ATOM     85  H   UNL     1       0.536   6.560 136.479  0.00  0.00    +0.000 HD
ENDBRANCH  80  81
ENDBRANCH  79  80
ENDBRANCH  23  79
TORSDOF 19
ENDMDL
MODEL 8
REMARK VINA RESULT:      -9.3      1.942      2.396
REMARK  Name = CHEMBL3814232
REMARK  25 active torsions:
REMARK  status: ('A' for Active; 'I' for Inactive)
REMARK    1  A    between atoms: C_1  and  C_2
REMARK    2  A    between atoms: C_2  and  C_3
REMARK    3  A    between atoms: C_3  and  C_4
REMARK    4  A    between atoms: C_3  and  C_5
REMARK    5  A    between atoms: C_9  and  C_10
REMARK    6  A    between atoms: C_10  and  C_11
REMARK    7  A    between atoms: C_14  and  O_15
REMARK    8  A    between atoms: C_21  and  N_22
REMARK    9  A    between atoms: N_22  and  C_23
REMARK   10  A    between atoms: C_28  and  C_29
REMARK   11  A    between atoms: C_35  and  C_36
REMARK   12  A    between atoms: N_38  and  C_39
REMARK   13  A    between atoms: C_39  and  C_40
REMARK   14  A    between atoms: C_39  and  C_44
REMARK   15  A    between atoms: C_40  and  C_41
REMARK   16  A    between atoms: C_41  and  C_42
REMARK   17  A    between atoms: C_41  and  C_43
REMARK   18  A    between atoms: N_46  and  C_47
REMARK   19  A    between atoms: C_47  and  C_48
REMARK   20  A    between atoms: N_51  and  C_52
REMARK   21  A    between atoms: C_55  and  C_56
REMARK   22  A    between atoms: C_56  and  C_57
REMARK   23  A    between atoms: C_63  and  C_64
REMARK   24  A    between atoms: C_64  and  C_65
REMARK   25  A    between atoms: C_65  and  C_66
REMARK                            x       y       z     vdW  Elec       q    Type
REMARK                         _______ _______ _______ _____ _____    ______ ____
ROOT
ATOM      1  C   UNL     1      -4.369   1.304 132.781  0.00  0.00    +0.000 C 
ATOM      2  N   UNL     1      -3.669   3.357 134.648  0.00  0.00    +0.000 N 
ATOM      3  C   UNL     1      -3.162   5.411 136.403  0.00  0.00    +0.000 C 
ATOM      4  O   UNL     1      -2.221   6.328 137.730  0.00  0.00    +0.000 OA
ATOM      5  C   UNL     1      -3.585   7.718 137.978  0.00  0.00    +0.000 C 
ATOM      6  N   UNL     1      -4.022   9.403 137.757  0.00  0.00    +0.000 N 
ATOM      7  C   UNL     1      -3.718   8.494 136.858  0.00  0.00    +0.000 C 
ATOM      8  O   UNL     1      -3.722   8.580 135.675  0.00  0.00    +0.000 OA
ATOM      9  C   UNL     1      -3.671   6.883 136.963  0.00  0.00    +0.000 C 
ATOM     10  C   UNL     1      -4.522   5.778 137.210  0.00  0.00    +0.000 C 
ATOM     11  S   UNL     1      -4.328   5.961 135.103  0.00  0.00    +0.000 S 
ATOM     12  S   UNL     1      -5.466   4.368 134.814  0.00  0.00    +0.000 S 
ATOM     13  C   UNL     1      -5.249   4.066 133.019  0.00  0.00    +0.000 C 
ATOM     14  C   UNL     1      -6.139   2.977 132.629  0.00  0.00    +0.000 C 
ATOM     15  N   UNL     1      -5.692   2.013 133.456  0.00  0.00    +0.000 N 
ATOM     16  C   UNL     1      -5.506   1.535 134.728  0.00  0.00    +0.000 C 
ATOM     17  C   UNL     1      -6.214   0.893 133.009  0.00  0.00    +0.000 C 
ATOM     18  O   UNL     1      -5.736   0.960 131.845  0.00  0.00    +0.000 OA
ATOM     19  C   UNL     1      -4.944  -0.627 133.180  0.00  0.00    +0.000 C 
ATOM     20  N   UNL     1      -5.496  -1.848 132.851  0.00  0.00    +0.000 N 
ATOM     21  C   UNL     1      -5.937  -2.216 131.751  0.00  0.00    +0.000 C 
ATOM     22  O   UNL     1      -6.665  -3.696 130.959  0.00  0.00    +0.000 OA
ATOM     23  C   UNL     1      -4.956  -1.090 130.001  0.00  0.00    +0.000 C 
ATOM     24  N   UNL     1      -4.006  -1.911 129.466  0.00  0.00    +0.000 N 
ATOM     25  C   UNL     1      -4.285  -0.823 131.179  0.00  0.00    +0.000 C 
ATOM     26  O   UNL     1      -4.043  -2.270 129.996  0.00  0.00    +0.000 OA
ATOM     27  H   UNL     1      -3.094   4.547 135.779  0.00  0.00    +0.000 HD
ATOM     28  H   UNL     1      -4.398  10.339 137.452  0.00  0.00    +0.000 HD
ATOM     29  H   UNL     1      -6.000  -2.462 133.321  0.00  0.00    +0.000 HD
ATOM     30  H   UNL     1      -3.040  -2.068 129.231  0.00  0.00    +0.000 HD
ENDROOT
BRANCH  14  31
ATOM     31  C   UNL     1      -6.164   2.846 131.075  0.00  0.00    +0.000 C 
ATOM     32  O   UNL     1      -5.231   2.526 130.404  0.00  0.00    +0.000 OA
ATOM     33  N   UNL     1      -7.336   3.035 130.371  0.00  0.00    +0.000 N 
ATOM     34  C   UNL     1      -8.325   4.097 130.506  0.00  0.00    +0.000 C 
ATOM     35  C   UNL     1      -9.597   3.393 130.116  0.00  0.00    +0.000 C 
ATOM     36  C   UNL     1      -9.184   2.567 128.902  0.00  0.00    +0.000 C 
ATOM     37  C   UNL     1      -7.752   2.198 129.197  0.00  0.00    +0.000 C 
BRANCH  37  38
ATOM     38  C   UNL     1      -7.236   2.695 127.875  0.00  0.00    +0.000 C 
ATOM     39  O   UNL     1      -8.292   3.214 127.005  0.00  0.00    +0.000 OA
ATOM     40  N   UNL     1      -5.915   3.294 127.726  0.00  0.00    +0.000 N 
ATOM     41  H   UNL     1      -5.197   2.939 128.312  0.00  0.00    +0.000 HD
BRANCH  40  42
ATOM     42  C   UNL     1      -5.510   4.204 126.604  0.00  0.00    +0.000 C 
BRANCH  42  43
ATOM     43  C   UNL     1      -5.669   3.463 125.255  0.00  0.00    +0.000 C 
ATOM     44  O   UNL     1      -5.445   2.244 125.210  0.00  0.00    +0.000 OA
ATOM     45  N   UNL     1      -6.083   4.192 124.111  0.00  0.00    +0.000 N 
ATOM     46  H   UNL     1      -6.264   5.181 124.150  0.00  0.00    +0.000 HD
BRANCH  45  47
ATOM     47  C   UNL     1      -6.246   3.531 122.812  0.00  0.00    +0.000 C 
BRANCH  47  48
ATOM     48  C   UNL     1      -5.492   4.265 121.688  0.00  0.00    +0.000 C 
ATOM     49  N   UNL     1      -5.880   4.010 120.350  0.00  0.00    +0.000 N 
ATOM     50  O   UNL     1      -4.575   5.045 121.962  0.00  0.00    +0.000 OA
ATOM     51  H   UNL     1      -6.621   3.383 120.091  0.00  0.00    +0.000 HD
ATOM     52  H   UNL     1      -5.410   4.474 119.579  0.00  0.00    +0.000 HD
ENDBRANCH  47  48
ENDBRANCH  45  47
ENDBRANCH  42  43
BRANCH  42  53
ATOM     53  C   UNL     1      -4.109   4.706 126.760  0.00  0.00    +0.000 C 
BRANCH  53  54
ATOM     54  C   UNL     1      -3.319   3.906 127.741  0.00  0.00    +0.000 C 
ATOM     55  C   UNL     1      -2.188   3.263 127.125  0.00  0.00    +0.000 C 
ATOM     56  C   UNL     1      -2.778   4.687 128.858  0.00  0.00    +0.000 C 
ENDBRANCH  53  54
ENDBRANCH  42  53
ENDBRANCH  40  42
ENDBRANCH  37  38
ENDBRANCH  14  31
BRANCH   9  57
ATOM     57  N   UNL     1      -3.244   6.791 139.184  0.00  0.00    +0.000 NA
ATOM     58  C   UNL     1      -3.602   5.253 139.815  0.00  0.00    +0.000 C 
ATOM     59  H   UNL     1      -3.817   7.177 139.742  0.00  0.00    +0.000 HD
ENDBRANCH   9  57
BRANCH   1  60
ATOM     60  C   UNL     1      -5.930  -0.422 131.157  0.00  0.00    +0.000 C 
ATOM     61  C   UNL     1      -7.461  -1.907 129.682  0.00  0.00    +0.000 C 
BRANCH  60  63
ATOM     62  C   UNL     1      -8.389  -0.073 131.894  0.00  0.00    +0.000 C 
ATOM     63  C   UNL     1      -7.862  -1.025 130.421  0.00  0.00    +0.000 C 
ENDBRANCH  60  63
ENDBRANCH   1  60
BRANCH  19  64
ATOM     64  C   UNL     1      -3.180  -0.947 132.576  0.00  0.00    +0.000 C 
BRANCH  64  65
ATOM     65  C   UNL     1      -2.333  -1.528 133.692  0.00  0.00    +0.000 C 
ATOM     66  N   UNL     1      -1.895  -0.875 134.860  0.00  0.00    +0.000 N 
ATOM     67  O   UNL     1      -2.156  -2.721 133.775  0.00  0.00    +0.000 OA
ATOM     68  H   UNL     1      -2.039   0.349 135.290  0.00  0.00    +0.000 HD
ATOM     69  H   UNL     1      -1.172  -0.914 135.468  0.00  0.00    +0.000 HD
ENDBRANCH  64  65
ENDBRANCH  19  64
BRANCH   5  70
ATOM     70  C   UNL     1      -4.793   8.192 139.737  0.00  0.00    +0.000 C 
BRANCH  70  71
ATOM     71  C   UNL     1      -6.184   8.829 140.025  0.00  0.00    +0.000 A 
ATOM     72  C   UNL     1      -7.192   8.681 139.087  0.00  0.00    +0.000 A 
ATOM     73  C   UNL     1      -8.410   9.311 139.214  0.00  0.00    +0.000 A 
ATOM     74  C   UNL     1      -8.649  10.067 140.342  0.00  0.00    +0.000 A 
ATOM     75  C   UNL     1      -7.660  10.230 141.289  0.00  0.00    +0.000 A 
ATOM     76  C   UNL     1      -6.441   9.608 141.134  0.00  0.00    +0.000 A 
BRANCH  74  77
ATOM     77  O   UNL     1      -9.825  10.694 140.591  0.00  0.00    +0.000 OA
ATOM     78  H   UNL     1     -10.633  10.224 140.348  0.00  0.00    +0.000 HD
ENDBRANCH  74  77
ENDBRANCH  70  71
ENDBRANCH   5  70
BRANCH  23  79
ATOM     79  C   UNL     1      -6.016  -0.565 129.028  0.00  0.00    +0.000 C 
BRANCH  79  80
ATOM     80  C   UNL     1      -5.720  -0.225 127.476  0.00  0.00    +0.000 C 
BRANCH  80  81
ATOM     81  C   UNL     1      -6.221  -1.397 126.750  0.00  0.00    +0.000 C 
ATOM     82  N   UNL     1      -7.368  -1.356 125.940  0.00  0.00    +0.000 N 
ATOM     83  O   UNL     1      -5.449  -2.374 126.718  0.00  0.00    +0.000 OA
ATOM     84  H   UNL     1      -8.015  -0.568 125.892  0.00  0.00    +0.000 HD
ATOM     85  H   UNL     1      -7.634  -2.101 125.345  0.00  0.00    +0.000 HD
ENDBRANCH  80  81
ENDBRANCH  79  80
ENDBRANCH  23  79
TORSDOF 19
ENDMDL
MODEL 9
REMARK VINA RESULT:      -8.9      3.000      7.542
REMARK  Name = CHEMBL3814232
REMARK  25 active torsions:
REMARK  status: ('A' for Active; 'I' for Inactive)
REMARK    1  A    between atoms: C_1  and  C_2
REMARK    2  A    between atoms: C_2  and  C_3
REMARK    3  A    between atoms: C_3  and  C_4
REMARK    4  A    between atoms: C_3  and  C_5
REMARK    5  A    between atoms: C_9  and  C_10
REMARK    6  A    between atoms: C_10  and  C_11
REMARK    7  A    between atoms: C_14  and  O_15
REMARK    8  A    between atoms: C_21  and  N_22
REMARK    9  A    between atoms: N_22  and  C_23
REMARK   10  A    between atoms: C_28  and  C_29
REMARK   11  A    between atoms: C_35  and  C_36
REMARK   12  A    between atoms: N_38  and  C_39
REMARK   13  A    between atoms: C_39  and  C_40
REMARK   14  A    between atoms: C_39  and  C_44
REMARK   15  A    between atoms: C_40  and  C_41
REMARK   16  A    between atoms: C_41  and  C_42
REMARK   17  A    between atoms: C_41  and  C_43
REMARK   18  A    between atoms: N_46  and  C_47
REMARK   19  A    between atoms: C_47  and  C_48
REMARK   20  A    between atoms: N_51  and  C_52
REMARK   21  A    between atoms: C_55  and  C_56
REMARK   22  A    between atoms: C_56  and  C_57
REMARK   23  A    between atoms: C_63  and  C_64
REMARK   24  A    between atoms: C_64  and  C_65
REMARK   25  A    between atoms: C_65  and  C_66
REMARK                            x       y       z     vdW  Elec       q    Type
REMARK                         _______ _______ _______ _____ _____    ______ ____
ROOT
ATOM      1  C   UNL     1      -6.256   4.263 132.782  0.00  0.00    +0.000 C 
ATOM      2  N   UNL     1      -4.835   6.193 134.346  0.00  0.00    +0.000 N 
ATOM      3  C   UNL     1      -3.312   7.987 135.767  0.00  0.00    +0.000 C 
ATOM      4  O   UNL     1      -2.999   9.419 136.923  0.00  0.00    +0.000 OA
ATOM      5  C   UNL     1      -1.063   9.478 136.603  0.00  0.00    +0.000 C 
ATOM      6  N   UNL     1       0.543   9.192 137.250  0.00  0.00    +0.000 N 
ATOM      7  C   UNL     1      -0.444   8.346 137.061  0.00  0.00    +0.000 C 
ATOM      8  O   UNL     1      -0.468   7.172 137.229  0.00  0.00    +0.000 OA
ATOM      9  C   UNL     1      -1.775   8.466 136.153  0.00  0.00    +0.000 C 
ATOM     10  C   UNL     1      -2.166   8.606 134.799  0.00  0.00    +0.000 C 
ATOM     11  S   UNL     1      -2.299   6.542 135.278  0.00  0.00    +0.000 S 
ATOM     12  S   UNL     1      -2.966   6.117 133.465  0.00  0.00    +0.000 S 
ATOM     13  C   UNL     1      -3.482   4.367 133.649  0.00  0.00    +0.000 C 
ATOM     14  C   UNL     1      -3.888   3.870 132.339  0.00  0.00    +0.000 C 
ATOM     15  N   UNL     1      -4.863   4.754 132.055  0.00  0.00    +0.000 N 
ATOM     16  C   UNL     1      -5.257   6.044 131.797  0.00  0.00    +0.000 C 
ATOM     17  C   UNL     1      -5.511   4.250 131.029  0.00  0.00    +0.000 C 
ATOM     18  O   UNL     1      -5.826   3.158 131.573  0.00  0.00    +0.000 OA
ATOM     19  C   UNL     1      -7.465   4.595 131.156  0.00  0.00    +0.000 C 
ATOM     20  N   UNL     1      -8.169   4.204 130.034  0.00  0.00    +0.000 N 
ATOM     21  C   UNL     1      -8.304   3.059 129.578  0.00  0.00    +0.000 C 
ATOM     22  O   UNL     1      -9.154   2.188 128.213  0.00  0.00    +0.000 OA
ATOM     23  C   UNL     1      -8.092   1.445 131.204  0.00  0.00    +0.000 C 
ATOM     24  N   UNL     1      -9.350   1.043 131.550  0.00  0.00    +0.000 N 
ATOM     25  C   UNL     1      -8.165   2.699 131.779  0.00  0.00    +0.000 C 
ATOM     26  O   UNL     1      -9.578   1.567 131.257  0.00  0.00    +0.000 OA
ATOM     27  H   UNL     1      -4.105   7.382 135.385  0.00  0.00    +0.000 HD
ATOM     28  H   UNL     1       1.497   8.834 137.521  0.00  0.00    +0.000 HD
ATOM     29  H   UNL     1      -8.341   4.608 129.223  0.00  0.00    +0.000 HD
ATOM     30  H   UNL     1     -10.053   0.939 132.263  0.00  0.00    +0.000 HD
ENDROOT
BRANCH  14  31
ATOM     31  C   UNL     1      -4.106   2.327 132.402  0.00  0.00    +0.000 C 
ATOM     32  O   UNL     1      -4.024   1.590 131.467  0.00  0.00    +0.000 OA
ATOM     33  N   UNL     1      -4.347   1.699 133.606  0.00  0.00    +0.000 N 
ATOM     34  C   UNL     1      -5.265   2.082 134.672  0.00  0.00    +0.000 C 
ATOM     35  C   UNL     1      -4.560   1.559 135.896  0.00  0.00    +0.000 C 
ATOM     36  C   UNL     1      -4.065   0.185 135.456  0.00  0.00    +0.000 C 
ATOM     37  C   UNL     1      -3.762   0.371 133.991  0.00  0.00    +0.000 C 
BRANCH  37  38
ATOM     38  C   UNL     1      -4.584  -0.811 133.557  0.00  0.00    +0.000 C 
ATOM     39  O   UNL     1      -3.885  -1.679 132.609  0.00  0.00    +0.000 OA
ATOM     40  N   UNL     1      -5.557  -1.451 134.433  0.00  0.00    +0.000 N 
ATOM     41  H   UNL     1      -6.036  -0.861 135.072  0.00  0.00    +0.000 HD
BRANCH  40  42
ATOM     42  C   UNL     1      -6.062  -2.854 134.270  0.00  0.00    +0.000 C 
BRANCH  42  43
ATOM     43  C   UNL     1      -7.464  -2.978 134.915  0.00  0.00    +0.000 C 
ATOM     44  O   UNL     1      -8.465  -2.730 134.226  0.00  0.00    +0.000 OA
ATOM     45  N   UNL     1      -7.566  -3.388 136.268  0.00  0.00    +0.000 N 
ATOM     46  H   UNL     1      -6.752  -3.589 136.825  0.00  0.00    +0.000 HD
BRANCH  45  47
ATOM     47  C   UNL     1      -8.873  -3.519 136.920  0.00  0.00    +0.000 C 
BRANCH  47  48
ATOM     48  C   UNL     1      -9.324  -4.988 137.030  0.00  0.00    +0.000 C 
ATOM     49  N   UNL     1     -10.012  -5.557 135.931  0.00  0.00    +0.000 N 
ATOM     50  O   UNL     1      -9.088  -5.634 138.056  0.00  0.00    +0.000 OA
ATOM     51  H   UNL     1     -10.220  -5.061 135.082  0.00  0.00    +0.000 HD
ATOM     52  H   UNL     1     -10.325  -6.522 135.962  0.00  0.00    +0.000 HD
ENDBRANCH  47  48
ENDBRANCH  45  47
ENDBRANCH  42  43
BRANCH  42  53
ATOM     53  C   UNL     1      -5.128  -3.864 134.858  0.00  0.00    +0.000 C 
BRANCH  53  54
ATOM     54  C   UNL     1      -4.821  -4.981 133.918  0.00  0.00    +0.000 C 
ATOM     55  C   UNL     1      -5.476  -4.811 132.648  0.00  0.00    +0.000 C 
ATOM     56  C   UNL     1      -3.395  -5.141 133.618  0.00  0.00    +0.000 C 
ENDBRANCH  53  54
ENDBRANCH  42  53
ENDBRANCH  40  42
ENDBRANCH  37  38
ENDBRANCH  14  31
BRANCH   9  57
ATOM     57  N   UNL     1      -1.916  10.724 136.216  0.00  0.00    +0.000 NA
ATOM     58  C   UNL     1      -3.123  11.294 135.162  0.00  0.00    +0.000 C 
ATOM     59  H   UNL     1      -1.294  11.199 135.795  0.00  0.00    +0.000 HD
ENDBRANCH   9  57
BRANCH   1  60
ATOM     60  C   UNL     1      -6.895   2.460 130.686  0.00  0.00    +0.000 C 
ATOM     61  C   UNL     1      -7.344   0.804 128.741  0.00  0.00    +0.000 C 
BRANCH  60  63
ATOM     62  C   UNL     1      -5.199   2.903 128.779  0.00  0.00    +0.000 C 
ATOM     63  C   UNL     1      -6.325   1.460 128.865  0.00  0.00    +0.000 C 
ENDBRANCH  60  63
ENDBRANCH   1  60
BRANCH  19  64
ATOM     64  C   UNL     1      -8.789   4.229 132.456  0.00  0.00    +0.000 C 
BRANCH  64  65
ATOM     65  C   UNL     1      -9.548   5.493 132.812  0.00  0.00    +0.000 C 
ATOM     66  N   UNL     1     -10.909   5.767 132.576  0.00  0.00    +0.000 N 
ATOM     67  O   UNL     1      -9.071   6.306 133.568  0.00  0.00    +0.000 OA
ATOM     68  H   UNL     1     -11.855   5.085 131.989  0.00  0.00    +0.000 HD
ATOM     69  H   UNL     1     -11.468   6.514 132.423  0.00  0.00    +0.000 HD
ENDBRANCH  64  65
ENDBRANCH  19  64
BRANCH   5  70
ATOM     70  C   UNL     1       0.160  11.061 135.721  0.00  0.00    +0.000 C 
BRANCH  70  71
ATOM     71  C   UNL     1       0.468  11.601 134.294  0.00  0.00    +0.000 A 
ATOM     72  C   UNL     1      -0.299  12.640 133.794  0.00  0.00    +0.000 A 
ATOM     73  C   UNL     1      -0.166  13.093 132.501  0.00  0.00    +0.000 A 
ATOM     74  C   UNL     1       0.803  12.530 131.698  0.00  0.00    +0.000 A 
ATOM     75  C   UNL     1       1.579  11.493 132.174  0.00  0.00    +0.000 A 
ATOM     76  C   UNL     1       1.417  11.039 133.464  0.00  0.00    +0.000 A 
BRANCH  74  77
ATOM     77  O   UNL     1       1.052  12.927 130.426  0.00  0.00    +0.000 OA
ATOM     78  H   UNL     1       1.498  12.294 129.849  0.00  0.00    +0.000 HD
ENDBRANCH  74  77
ENDBRANCH  70  71
ENDBRANCH   5  70
BRANCH  23  79
ATOM     79  C   UNL     1      -7.134   0.339 130.752  0.00  0.00    +0.000 C 
BRANCH  79  80
ATOM     80  C   UNL     1      -7.198  -1.182 131.297  0.00  0.00    +0.000 C 
BRANCH  80  81
ATOM     81  C   UNL     1      -6.512  -1.963 130.263  0.00  0.00    +0.000 C 
ATOM     82  N   UNL     1      -5.130  -1.860 130.024  0.00  0.00    +0.000 N 
ATOM     83  O   UNL     1      -7.183  -2.880 129.753  0.00  0.00    +0.000 OA
ATOM     84  H   UNL     1      -4.522  -1.157 130.445  0.00  0.00    +0.000 HD
ATOM     85  H   UNL     1      -4.640  -2.476 129.424  0.00  0.00    +0.000 HD
ENDBRANCH  80  81
ENDBRANCH  79  80
ENDBRANCH  23  79
TORSDOF 19
ENDMDL
