MODEL 1
REMARK VINA RESULT:      -7.1      0.000      0.000
REMARK  Name = CHEMBL522255
REMARK  14 active torsions:
REMARK  status: ('A' for Active; 'I' for Inactive)
REMARK    1  A    between atoms: C_1  and  C_2
REMARK    2  A    between atoms: C_2  and  O_3
REMARK    3  A    between atoms: O_3  and  C_4
REMARK    4  A    between atoms: C_7  and  C_8
REMARK    5  A    between atoms: C_11  and  C_12
REMARK    6  A    between atoms: C_12  and  O_13
REMARK    7  A    between atoms: O_13  and  C_14
REMARK    8  A    between atoms: C_14  and  C_15
REMARK    9  A    between atoms: C_15  and  O_16
REMARK   10  A    between atoms: O_16  and  C_17
REMARK   11  A    between atoms: N_18  and  C_19
REMARK   12  A    between atoms: C_22  and  O_23
REMARK   13  A    between atoms: O_23  and  C_24
REMARK   14  A    between atoms: C_28  and  C_29
REMARK                            x       y       z     vdW  Elec       q    Type
REMARK                         _______ _______ _______ _____ _____    ______ ____
ROOT
ATOM      1  C   UNL     1      -7.198   3.781 125.622  0.00  0.00    +0.000 A 
ATOM      2  N   UNL     1      -6.927   4.820 126.397  0.00  0.00    +0.000 NA
ATOM      3  N   UNL     1      -7.365   4.542 127.681  0.00  0.00    +0.000 NA
ATOM      4  C   UNL     1      -7.881   3.322 127.703  0.00  0.00    +0.000 A 
ATOM      5  N   UNL     1      -7.822   2.824 126.409  0.00  0.00    +0.000 N 
ENDROOT
BRANCH   1   9
ATOM      6  C   UNL     1      -6.528   3.586 121.337  0.00  0.00    +0.000 A 
ATOM      7  C   UNL     1      -7.735   3.139 121.903  0.00  0.00    +0.000 A 
ATOM      8  C   UNL     1      -7.952   3.155 123.299  0.00  0.00    +0.000 A 
ATOM      9  C   UNL     1      -6.971   3.647 124.166  0.00  0.00    +0.000 A 
ATOM     10  C   UNL     1      -5.777   4.113 123.587  0.00  0.00    +0.000 A 
ATOM     11  C   UNL     1      -5.547   4.110 122.190  0.00  0.00    +0.000 A 
ATOM     12  C   UNL     1      -4.262   4.720 121.706  0.00  0.00    +0.000 C 
BRANCH   6  13
ATOM     13  O   UNL     1      -6.477   3.573 119.959  0.00  0.00    +0.000 OA
BRANCH  13  15
ATOM     14  C   UNL     1      -6.077   5.562 118.610  0.00  0.00    +0.000 C 
ATOM     15  C   UNL     1      -7.106   4.670 119.286  0.00  0.00    +0.000 C 
ENDBRANCH  13  15
ENDBRANCH   6  13
ENDBRANCH   1   9
BRANCH   5  16
ATOM     16  C   UNL     1      -8.171   1.534 125.980  0.00  0.00    +0.000 A 
ATOM     17  C   UNL     1      -7.216   0.530 126.028  0.00  0.00    +0.000 A 
ATOM     18  C   UNL     1      -7.641  -0.778 125.845  0.00  0.00    +0.000 A 
ATOM     19  C   UNL     1      -8.983  -1.020 125.580  0.00  0.00    +0.000 A 
ATOM     20  N   UNL     1      -9.892  -0.033 125.428  0.00  0.00    +0.000 NA
ATOM     21  C   UNL     1      -9.479   1.232 125.658  0.00  0.00    +0.000 A 
BRANCH  19  22
ATOM     22  O   UNL     1      -9.549  -2.264 125.535  0.00  0.00    +0.000 OA
ATOM     23  C   UNL     1      -9.095  -3.109 124.490  0.00  0.00    +0.000 C 
ENDBRANCH  19  22
ENDBRANCH   5  16
BRANCH   4  24
ATOM     24  C   UNL     1      -8.334   2.578 128.946  0.00  0.00    +0.000 C 
BRANCH  24  25
ATOM     25  O   UNL     1      -9.683   2.930 129.236  0.00  0.00    +0.000 OA
BRANCH  25  26
ATOM     26  C   UNL     1      -9.925   3.578 130.482  0.00  0.00    +0.000 C 
BRANCH  26  27
ATOM     27  C   UNL     1     -10.285   5.050 130.230  0.00  0.00    +0.000 C 
BRANCH  27  28
ATOM     28  O   UNL     1     -11.350   5.476 131.080  0.00  0.00    +0.000 OA
ATOM     29  C   UNL     1     -11.807   6.770 130.687  0.00  0.00    +0.000 C 
ENDBRANCH  27  28
ENDBRANCH  26  27
ENDBRANCH  25  26
ENDBRANCH  24  25
ENDBRANCH   4  24
TORSDOF 10
ENDMDL
MODEL 2
REMARK VINA RESULT:      -7.1      2.291      2.947
REMARK  Name = CHEMBL522255
REMARK  14 active torsions:
REMARK  status: ('A' for Active; 'I' for Inactive)
REMARK    1  A    between atoms: C_1  and  C_2
REMARK    2  A    between atoms: C_2  and  O_3
REMARK    3  A    between atoms: O_3  and  C_4
REMARK    4  A    between atoms: C_7  and  C_8
REMARK    5  A    between atoms: C_11  and  C_12
REMARK    6  A    between atoms: C_12  and  O_13
REMARK    7  A    between atoms: O_13  and  C_14
REMARK    8  A    between atoms: C_14  and  C_15
REMARK    9  A    between atoms: C_15  and  O_16
REMARK   10  A    between atoms: O_16  and  C_17
REMARK   11  A    between atoms: N_18  and  C_19
REMARK   12  A    between atoms: C_22  and  O_23
REMARK   13  A    between atoms: O_23  and  C_24
REMARK   14  A    between atoms: C_28  and  C_29
REMARK                            x       y       z     vdW  Elec       q    Type
REMARK                         _______ _______ _______ _____ _____    ______ ____
ROOT
ATOM      1  C   UNL     1      -7.546   3.945 125.571  0.00  0.00    +0.000 A 
ATOM      2  N   UNL     1      -7.998   5.039 126.166  0.00  0.00    +0.000 NA
ATOM      3  N   UNL     1      -8.238   4.753 127.499  0.00  0.00    +0.000 NA
ATOM      4  C   UNL     1      -7.907   3.491 127.733  0.00  0.00    +0.000 A 
ATOM      5  N   UNL     1      -7.497   2.941 126.527  0.00  0.00    +0.000 N 
ENDROOT
BRANCH   1   9
ATOM      6  C   UNL     1      -6.571   3.585 121.356  0.00  0.00    +0.000 A 
ATOM      7  C   UNL     1      -7.816   3.160 121.852  0.00  0.00    +0.000 A 
ATOM      8  C   UNL     1      -8.133   3.230 123.227  0.00  0.00    +0.000 A 
ATOM      9  C   UNL     1      -7.216   3.755 124.142  0.00  0.00    +0.000 A 
ATOM     10  C   UNL     1      -5.981   4.199 123.632  0.00  0.00    +0.000 A 
ATOM     11  C   UNL     1      -5.652   4.142 122.256  0.00  0.00    +0.000 A 
ATOM     12  C   UNL     1      -4.335   4.734 121.843  0.00  0.00    +0.000 C 
BRANCH   6  13
ATOM     13  O   UNL     1      -6.421   3.520 119.987  0.00  0.00    +0.000 OA
BRANCH  13  15
ATOM     14  C   UNL     1      -6.057   5.538 118.672  0.00  0.00    +0.000 C 
ATOM     15  C   UNL     1      -7.067   4.545 119.224  0.00  0.00    +0.000 C 
ENDBRANCH  13  15
ENDBRANCH   6  13
ENDBRANCH   1   9
BRANCH   5  16
ATOM     16  C   UNL     1      -6.971   1.657 126.317  0.00  0.00    +0.000 A 
ATOM     17  C   UNL     1      -7.814   0.651 125.872  0.00  0.00    +0.000 A 
ATOM     18  C   UNL     1      -7.237  -0.532 125.429  0.00  0.00    +0.000 A 
ATOM     19  C   UNL     1      -5.856  -0.672 125.493  0.00  0.00    +0.000 A 
ATOM     20  N   UNL     1      -5.045   0.268 126.027  0.00  0.00    +0.000 NA
ATOM     21  C   UNL     1      -5.611   1.433 126.407  0.00  0.00    +0.000 A 
BRANCH  19  22
ATOM     22  O   UNL     1      -5.160  -1.717 124.950  0.00  0.00    +0.000 OA
ATOM     23  C   UNL     1      -5.798  -2.388 123.875  0.00  0.00    +0.000 C 
ENDBRANCH  19  22
ENDBRANCH   5  16
BRANCH   4  24
ATOM     24  C   UNL     1      -7.875   2.826 129.097  0.00  0.00    +0.000 C 
BRANCH  24  25
ATOM     25  O   UNL     1      -6.543   2.853 129.599  0.00  0.00    +0.000 OA
BRANCH  25  26
ATOM     26  C   UNL     1      -6.163   3.998 130.357  0.00  0.00    +0.000 C 
BRANCH  26  27
ATOM     27  C   UNL     1      -4.870   4.589 129.776  0.00  0.00    +0.000 C 
BRANCH  27  28
ATOM     28  O   UNL     1      -5.143   5.451 128.671  0.00  0.00    +0.000 OA
ATOM     29  C   UNL     1      -4.478   4.978 127.500  0.00  0.00    +0.000 C 
ENDBRANCH  27  28
ENDBRANCH  26  27
ENDBRANCH  25  26
ENDBRANCH  24  25
ENDBRANCH   4  24
TORSDOF 10
ENDMDL
MODEL 3
REMARK VINA RESULT:      -7.0      5.568      8.544
REMARK  Name = CHEMBL522255
REMARK  14 active torsions:
REMARK  status: ('A' for Active; 'I' for Inactive)
REMARK    1  A    between atoms: C_1  and  C_2
REMARK    2  A    between atoms: C_2  and  O_3
REMARK    3  A    between atoms: O_3  and  C_4
REMARK    4  A    between atoms: C_7  and  C_8
REMARK    5  A    between atoms: C_11  and  C_12
REMARK    6  A    between atoms: C_12  and  O_13
REMARK    7  A    between atoms: O_13  and  C_14
REMARK    8  A    between atoms: C_14  and  C_15
REMARK    9  A    between atoms: C_15  and  O_16
REMARK   10  A    between atoms: O_16  and  C_17
REMARK   11  A    between atoms: N_18  and  C_19
REMARK   12  A    between atoms: C_22  and  O_23
REMARK   13  A    between atoms: O_23  and  C_24
REMARK   14  A    between atoms: C_28  and  C_29
REMARK                            x       y       z     vdW  Elec       q    Type
REMARK                         _______ _______ _______ _____ _____    ______ ____
ROOT
ATOM      1  C   UNL     1     -10.013   3.602 130.404  0.00  0.00    +0.000 A 
ATOM      2  N   UNL     1     -11.262   3.810 130.017  0.00  0.00    +0.000 NA
ATOM      3  N   UNL     1     -11.471   5.174 129.905  0.00  0.00    +0.000 NA
ATOM      4  C   UNL     1     -10.343   5.806 130.196  0.00  0.00    +0.000 A 
ATOM      5  N   UNL     1      -9.409   4.843 130.548  0.00  0.00    +0.000 N 
ENDROOT
BRANCH   1   9
ATOM      6  C   UNL     1      -8.202  -0.268 131.176  0.00  0.00    +0.000 A 
ATOM      7  C   UNL     1      -9.000   0.366 132.145  0.00  0.00    +0.000 A 
ATOM      8  C   UNL     1      -9.561   1.645 131.926  0.00  0.00    +0.000 A 
ATOM      9  C   UNL     1      -9.358   2.313 130.715  0.00  0.00    +0.000 A 
ATOM     10  C   UNL     1      -8.577   1.660 129.744  0.00  0.00    +0.000 A 
ATOM     11  C   UNL     1      -8.014   0.376 129.945  0.00  0.00    +0.000 A 
ATOM     12  C   UNL     1      -7.279  -0.237 128.787  0.00  0.00    +0.000 C 
BRANCH   6  13
ATOM     13  O   UNL     1      -7.774  -1.538 131.496  0.00  0.00    +0.000 OA
BRANCH  13  15
ATOM     14  C   UNL     1      -7.878  -3.009 133.436  0.00  0.00    +0.000 C 
ATOM     15  C   UNL     1      -7.305  -1.735 132.835  0.00  0.00    +0.000 C 
ENDBRANCH  13  15
ENDBRANCH   6  13
ENDBRANCH   1   9
BRANCH   5  16
ATOM     16  C   UNL     1      -8.051   5.046 130.842  0.00  0.00    +0.000 A 
ATOM     17  C   UNL     1      -7.664   5.179 132.166  0.00  0.00    +0.000 A 
ATOM     18  C   UNL     1      -6.307   5.123 132.455  0.00  0.00    +0.000 A 
ATOM     19  C   UNL     1      -5.402   4.984 131.410  0.00  0.00    +0.000 A 
ATOM     20  N   UNL     1      -5.775   4.963 130.112  0.00  0.00    +0.000 NA
ATOM     21  C   UNL     1      -7.099   4.966 129.846  0.00  0.00    +0.000 A 
BRANCH  19  22
ATOM     22  O   UNL     1      -4.062   4.764 131.573  0.00  0.00    +0.000 OA
ATOM     23  C   UNL     1      -3.336   4.485 130.387  0.00  0.00    +0.000 C 
ENDBRANCH  19  22
ENDBRANCH   5  16
BRANCH   4  24
ATOM     24  C   UNL     1     -10.103   7.298 130.045  0.00  0.00    +0.000 C 
BRANCH  24  25
ATOM     25  O   UNL     1      -9.765   7.583 128.692  0.00  0.00    +0.000 OA
BRANCH  25  26
ATOM     26  C   UNL     1     -10.738   8.280 127.919  0.00  0.00    +0.000 C 
BRANCH  26  27
ATOM     27  C   UNL     1     -10.971   7.533 126.598  0.00  0.00    +0.000 C 
BRANCH  27  28
ATOM     28  O   UNL     1     -12.110   6.675 126.680  0.00  0.00    +0.000 OA
ATOM     29  C   UNL     1     -13.131   7.285 127.468  0.00  0.00    +0.000 C 
ENDBRANCH  27  28
ENDBRANCH  26  27
ENDBRANCH  25  26
ENDBRANCH  24  25
ENDBRANCH   4  24
TORSDOF 10
ENDMDL
MODEL 4
REMARK VINA RESULT:      -7.0      2.475      5.433
REMARK  Name = CHEMBL522255
REMARK  14 active torsions:
REMARK  status: ('A' for Active; 'I' for Inactive)
REMARK    1  A    between atoms: C_1  and  C_2
REMARK    2  A    between atoms: C_2  and  O_3
REMARK    3  A    between atoms: O_3  and  C_4
REMARK    4  A    between atoms: C_7  and  C_8
REMARK    5  A    between atoms: C_11  and  C_12
REMARK    6  A    between atoms: C_12  and  O_13
REMARK    7  A    between atoms: O_13  and  C_14
REMARK    8  A    between atoms: C_14  and  C_15
REMARK    9  A    between atoms: C_15  and  O_16
REMARK   10  A    between atoms: O_16  and  C_17
REMARK   11  A    between atoms: N_18  and  C_19
REMARK   12  A    between atoms: C_22  and  O_23
REMARK   13  A    between atoms: O_23  and  C_24
REMARK   14  A    between atoms: C_28  and  C_29
REMARK                            x       y       z     vdW  Elec       q    Type
REMARK                         _______ _______ _______ _____ _____    ______ ____
ROOT
ATOM      1  C   UNL     1      -7.461   0.852 127.291  0.00  0.00    +0.000 A 
ATOM      2  N   UNL     1      -8.056   0.456 128.406  0.00  0.00    +0.000 NA
ATOM      3  N   UNL     1      -8.279   1.563 129.207  0.00  0.00    +0.000 NA
ATOM      4  C   UNL     1      -7.848   2.644 128.574  0.00  0.00    +0.000 A 
ATOM      5  N   UNL     1      -7.293   2.226 127.373  0.00  0.00    +0.000 N 
ENDROOT
BRANCH   1   9
ATOM      6  C   UNL     1      -6.162  -1.742 124.061  0.00  0.00    +0.000 A 
ATOM      7  C   UNL     1      -5.297  -1.413 125.120  0.00  0.00    +0.000 A 
ATOM      8  C   UNL     1      -5.690  -0.536 126.155  0.00  0.00    +0.000 A 
ATOM      9  C   UNL     1      -6.974   0.015 126.172  0.00  0.00    +0.000 A 
ATOM     10  C   UNL     1      -7.840  -0.339 125.121  0.00  0.00    +0.000 A 
ATOM     11  C   UNL     1      -7.464  -1.222 124.080  0.00  0.00    +0.000 A 
ATOM     12  C   UNL     1      -8.519  -1.581 123.073  0.00  0.00    +0.000 C 
BRANCH   6  13
ATOM     13  O   UNL     1      -5.672  -2.658 123.155  0.00  0.00    +0.000 OA
BRANCH  13  15
ATOM     14  C   UNL     1      -4.501  -4.756 123.562  0.00  0.00    +0.000 C 
ATOM     15  C   UNL     1      -4.400  -3.242 123.462  0.00  0.00    +0.000 C 
ENDBRANCH  13  15
ENDBRANCH   6  13
ENDBRANCH   1   9
BRANCH   5  16
ATOM     16  C   UNL     1      -6.797   3.038 126.341  0.00  0.00    +0.000 A 
ATOM     17  C   UNL     1      -5.437   3.301 126.290  0.00  0.00    +0.000 A 
ATOM     18  C   UNL     1      -4.931   3.884 125.136  0.00  0.00    +0.000 A 
ATOM     19  C   UNL     1      -5.808   4.218 124.111  0.00  0.00    +0.000 A 
ATOM     20  N   UNL     1      -7.146   4.059 124.207  0.00  0.00    +0.000 NA
ATOM     21  C   UNL     1      -7.621   3.444 125.311  0.00  0.00    +0.000 A 
BRANCH  19  22
ATOM     22  O   UNL     1      -5.419   4.651 122.874  0.00  0.00    +0.000 OA
ATOM     23  C   UNL     1      -5.751   3.797 121.791  0.00  0.00    +0.000 C 
ENDBRANCH  19  22
ENDBRANCH   5  16
BRANCH   4  24
ATOM     24  C   UNL     1      -8.044   4.076 129.039  0.00  0.00    +0.000 C 
BRANCH  24  25
ATOM     25  O   UNL     1      -9.432   4.389 129.017  0.00  0.00    +0.000 OA
BRANCH  25  26
ATOM     26  C   UNL     1      -9.885   5.374 129.941  0.00  0.00    +0.000 C 
BRANCH  26  27
ATOM     27  C   UNL     1      -9.979   6.734 129.233  0.00  0.00    +0.000 C 
BRANCH  27  28
ATOM     28  O   UNL     1     -10.041   6.577 127.815  0.00  0.00    +0.000 OA
ATOM     29  C   UNL     1     -10.785   7.646 127.232  0.00  0.00    +0.000 C 
ENDBRANCH  27  28
ENDBRANCH  26  27
ENDBRANCH  25  26
ENDBRANCH  24  25
ENDBRANCH   4  24
TORSDOF 10
ENDMDL
MODEL 5
REMARK VINA RESULT:      -6.9      4.880      7.460
REMARK  Name = CHEMBL522255
REMARK  14 active torsions:
REMARK  status: ('A' for Active; 'I' for Inactive)
REMARK    1  A    between atoms: C_1  and  C_2
REMARK    2  A    between atoms: C_2  and  O_3
REMARK    3  A    between atoms: O_3  and  C_4
REMARK    4  A    between atoms: C_7  and  C_8
REMARK    5  A    between atoms: C_11  and  C_12
REMARK    6  A    between atoms: C_12  and  O_13
REMARK    7  A    between atoms: O_13  and  C_14
REMARK    8  A    between atoms: C_14  and  C_15
REMARK    9  A    between atoms: C_15  and  O_16
REMARK   10  A    between atoms: O_16  and  C_17
REMARK   11  A    between atoms: N_18  and  C_19
REMARK   12  A    between atoms: C_22  and  O_23
REMARK   13  A    between atoms: O_23  and  C_24
REMARK   14  A    between atoms: C_28  and  C_29
REMARK                            x       y       z     vdW  Elec       q    Type
REMARK                         _______ _______ _______ _____ _____    ______ ____
ROOT
ATOM      1  C   UNL     1      -9.440   3.232 129.939  0.00  0.00    +0.000 A 
ATOM      2  N   UNL     1     -10.743   3.465 129.957  0.00  0.00    +0.000 NA
ATOM      3  N   UNL     1     -10.951   4.806 130.233  0.00  0.00    +0.000 NA
ATOM      4  C   UNL     1      -9.775   5.405 130.358  0.00  0.00    +0.000 A 
ATOM      5  N   UNL     1      -8.798   4.431 130.212  0.00  0.00    +0.000 N 
ENDROOT
BRANCH   1   9
ATOM      6  C   UNL     1      -7.565  -0.628 129.276  0.00  0.00    +0.000 A 
ATOM      7  C   UNL     1      -7.953  -0.221 130.565  0.00  0.00    +0.000 A 
ATOM      8  C   UNL     1      -8.524   1.049 130.804  0.00  0.00    +0.000 A 
ATOM      9  C   UNL     1      -8.748   1.938 129.750  0.00  0.00    +0.000 A 
ATOM     10  C   UNL     1      -8.378   1.513 128.460  0.00  0.00    +0.000 A 
ATOM     11  C   UNL     1      -7.811   0.241 128.203  0.00  0.00    +0.000 A 
ATOM     12  C   UNL     1      -7.547  -0.113 126.767  0.00  0.00    +0.000 C 
BRANCH   6  13
ATOM     13  O   UNL     1      -7.081  -1.914 129.178  0.00  0.00    +0.000 OA
BRANCH  13  15
ATOM     14  C   UNL     1      -8.628  -3.588 128.315  0.00  0.00    +0.000 C 
ATOM     15  C   UNL     1      -7.983  -2.966 129.543  0.00  0.00    +0.000 C 
ENDBRANCH  13  15
ENDBRANCH   6  13
ENDBRANCH   1   9
BRANCH   5  16
ATOM     16  C   UNL     1      -7.408   4.624 130.177  0.00  0.00    +0.000 A 
ATOM     17  C   UNL     1      -6.674   4.429 131.336  0.00  0.00    +0.000 A 
ATOM     18  C   UNL     1      -5.292   4.374 131.228  0.00  0.00    +0.000 A 
ATOM     19  C   UNL     1      -4.705   4.561 129.982  0.00  0.00    +0.000 A 
ATOM     20  N   UNL     1      -5.416   4.858 128.873  0.00  0.00    +0.000 NA
ATOM     21  C   UNL     1      -6.763   4.858 128.979  0.00  0.00    +0.000 A 
BRANCH  19  22
ATOM     22  O   UNL     1      -3.376   4.379 129.719  0.00  0.00    +0.000 OA
ATOM     23  C   UNL     1      -2.799   5.294 128.802  0.00  0.00    +0.000 C 
ENDBRANCH  19  22
ENDBRANCH   5  16
BRANCH   4  24
ATOM     24  C   UNL     1      -9.559   6.899 130.511  0.00  0.00    +0.000 C 
BRANCH  24  25
ATOM     25  O   UNL     1      -9.381   7.480 129.223  0.00  0.00    +0.000 OA
BRANCH  25  26
ATOM     26  C   UNL     1     -10.516   8.115 128.641  0.00  0.00    +0.000 C 
BRANCH  26  27
ATOM     27  C   UNL     1     -10.755   7.545 127.235  0.00  0.00    +0.000 C 
BRANCH  27  28
ATOM     28  O   UNL     1     -11.876   6.660 127.217  0.00  0.00    +0.000 OA
ATOM     29  C   UNL     1     -12.853   7.082 128.168  0.00  0.00    +0.000 C 
ENDBRANCH  27  28
ENDBRANCH  26  27
ENDBRANCH  25  26
ENDBRANCH  24  25
ENDBRANCH   4  24
TORSDOF 10
ENDMDL
MODEL 6
REMARK VINA RESULT:      -6.8      4.455      5.815
REMARK  Name = CHEMBL522255
REMARK  14 active torsions:
REMARK  status: ('A' for Active; 'I' for Inactive)
REMARK    1  A    between atoms: C_1  and  C_2
REMARK    2  A    between atoms: C_2  and  O_3
REMARK    3  A    between atoms: O_3  and  C_4
REMARK    4  A    between atoms: C_7  and  C_8
REMARK    5  A    between atoms: C_11  and  C_12
REMARK    6  A    between atoms: C_12  and  O_13
REMARK    7  A    between atoms: O_13  and  C_14
REMARK    8  A    between atoms: C_14  and  C_15
REMARK    9  A    between atoms: C_15  and  O_16
REMARK   10  A    between atoms: O_16  and  C_17
REMARK   11  A    between atoms: N_18  and  C_19
REMARK   12  A    between atoms: C_22  and  O_23
REMARK   13  A    between atoms: O_23  and  C_24
REMARK   14  A    between atoms: C_28  and  C_29
REMARK                            x       y       z     vdW  Elec       q    Type
REMARK                         _______ _______ _______ _____ _____    ______ ____
ROOT
ATOM      1  C   UNL     1      -8.059   0.785 127.614  0.00  0.00    +0.000 A 
ATOM      2  N   UNL     1      -8.637   1.940 127.318  0.00  0.00    +0.000 NA
ATOM      3  N   UNL     1      -8.952   2.594 128.497  0.00  0.00    +0.000 NA
ATOM      4  C   UNL     1      -8.543   1.856 129.519  0.00  0.00    +0.000 A 
ATOM      5  N   UNL     1      -8.004   0.689 128.996  0.00  0.00    +0.000 N 
ENDROOT
BRANCH   1   9
ATOM      6  C   UNL     1      -6.796  -2.459 125.020  0.00  0.00    +0.000 A 
ATOM      7  C   UNL     1      -5.865  -1.545 125.544  0.00  0.00    +0.000 A 
ATOM      8  C   UNL     1      -6.265  -0.459 126.354  0.00  0.00    +0.000 A 
ATOM      9  C   UNL     1      -7.611  -0.274 126.683  0.00  0.00    +0.000 A 
ATOM     10  C   UNL     1      -8.531  -1.207 126.173  0.00  0.00    +0.000 A 
ATOM     11  C   UNL     1      -8.146  -2.305 125.366  0.00  0.00    +0.000 A 
ATOM     12  C   UNL     1      -9.224  -3.272 124.966  0.00  0.00    +0.000 C 
BRANCH   6  13
ATOM     13  O   UNL     1      -6.262  -3.506 124.300  0.00  0.00    +0.000 OA
BRANCH  13  15
ATOM     14  C   UNL     1      -4.215  -4.575 123.523  0.00  0.00    +0.000 C 
ATOM     15  C   UNL     1      -4.986  -3.276 123.690  0.00  0.00    +0.000 C 
ENDBRANCH  13  15
ENDBRANCH   6  13
ENDBRANCH   1   9
BRANCH   5  16
ATOM     16  C   UNL     1      -7.366  -0.341 129.705  0.00  0.00    +0.000 A 
ATOM     17  C   UNL     1      -8.051  -1.525 129.930  0.00  0.00    +0.000 A 
ATOM     18  C   UNL     1      -7.329  -2.613 130.401  0.00  0.00    +0.000 A 
ATOM     19  C   UNL     1      -5.974  -2.459 130.667  0.00  0.00    +0.000 A 
ATOM     20  N   UNL     1      -5.332  -1.276 130.548  0.00  0.00    +0.000 NA
ATOM     21  C   UNL     1      -6.031  -0.238 130.041  0.00  0.00    +0.000 A 
BRANCH  19  22
ATOM     22  O   UNL     1      -5.128  -3.485 130.983  0.00  0.00    +0.000 OA
ATOM     23  C   UNL     1      -5.594  -4.787 130.666  0.00  0.00    +0.000 C 
ENDBRANCH  19  22
ENDBRANCH   5  16
BRANCH   4  24
ATOM     24  C   UNL     1      -8.560   2.280 130.976  0.00  0.00    +0.000 C 
BRANCH  24  25
ATOM     25  O   UNL     1      -8.529   3.701 131.050  0.00  0.00    +0.000 OA
BRANCH  25  26
ATOM     26  C   UNL     1      -9.675   4.343 131.600  0.00  0.00    +0.000 C 
BRANCH  26  27
ATOM     27  C   UNL     1      -9.232   5.559 132.428  0.00  0.00    +0.000 C 
BRANCH  27  28
ATOM     28  O   UNL     1     -10.325   6.444 132.676  0.00  0.00    +0.000 OA
ATOM     29  C   UNL     1     -11.284   6.351 131.623  0.00  0.00    +0.000 C 
ENDBRANCH  27  28
ENDBRANCH  26  27
ENDBRANCH  25  26
ENDBRANCH  24  25
ENDBRANCH   4  24
TORSDOF 10
ENDMDL
MODEL 7
REMARK VINA RESULT:      -6.8      3.595      8.569
REMARK  Name = CHEMBL522255
REMARK  14 active torsions:
REMARK  status: ('A' for Active; 'I' for Inactive)
REMARK    1  A    between atoms: C_1  and  C_2
REMARK    2  A    between atoms: C_2  and  O_3
REMARK    3  A    between atoms: O_3  and  C_4
REMARK    4  A    between atoms: C_7  and  C_8
REMARK    5  A    between atoms: C_11  and  C_12
REMARK    6  A    between atoms: C_12  and  O_13
REMARK    7  A    between atoms: O_13  and  C_14
REMARK    8  A    between atoms: C_14  and  C_15
REMARK    9  A    between atoms: C_15  and  O_16
REMARK   10  A    between atoms: O_16  and  C_17
REMARK   11  A    between atoms: N_18  and  C_19
REMARK   12  A    between atoms: C_22  and  O_23
REMARK   13  A    between atoms: O_23  and  C_24
REMARK   14  A    between atoms: C_28  and  C_29
REMARK                            x       y       z     vdW  Elec       q    Type
REMARK                         _______ _______ _______ _____ _____    ______ ____
ROOT
ATOM      1  C   UNL     1      -7.915  -2.586 126.137  0.00  0.00    +0.000 A 
ATOM      2  N   UNL     1      -8.201  -3.610 125.348  0.00  0.00    +0.000 NA
ATOM      3  N   UNL     1      -8.657  -3.122 124.135  0.00  0.00    +0.000 NA
ATOM      4  C   UNL     1      -8.626  -1.797 124.167  0.00  0.00    +0.000 A 
ATOM      5  N   UNL     1      -8.193  -1.424 125.431  0.00  0.00    +0.000 N 
ENDROOT
BRANCH   1   9
ATOM      6  C   UNL     1      -6.475  -2.852 130.224  0.00  0.00    +0.000 A 
ATOM      7  C   UNL     1      -7.843  -2.985 129.927  0.00  0.00    +0.000 A 
ATOM      8  C   UNL     1      -8.333  -2.858 128.608  0.00  0.00    +0.000 A 
ATOM      9  C   UNL     1      -7.459  -2.619 127.544  0.00  0.00    +0.000 A 
ATOM     10  C   UNL     1      -6.089  -2.510 127.849  0.00  0.00    +0.000 A 
ATOM     11  C   UNL     1      -5.582  -2.642 129.164  0.00  0.00    +0.000 A 
ATOM     12  C   UNL     1      -4.090  -2.591 129.330  0.00  0.00    +0.000 C 
BRANCH   6  13
ATOM     13  O   UNL     1      -6.129  -3.062 131.541  0.00  0.00    +0.000 OA
BRANCH  13  15
ATOM     14  C   UNL     1      -7.298  -3.636 133.601  0.00  0.00    +0.000 C 
ATOM     15  C   UNL     1      -7.052  -2.587 132.528  0.00  0.00    +0.000 C 
ENDBRANCH  13  15
ENDBRANCH   6  13
ENDBRANCH   1   9
BRANCH   5  16
ATOM     16  C   UNL     1      -7.922  -0.124 125.884  0.00  0.00    +0.000 A 
ATOM     17  C   UNL     1      -6.681   0.434 125.618  0.00  0.00    +0.000 A 
ATOM     18  C   UNL     1      -6.519   1.793 125.845  0.00  0.00    +0.000 A 
ATOM     19  C   UNL     1      -7.581   2.521 126.367  0.00  0.00    +0.000 A 
ATOM     20  N   UNL     1      -8.754   1.955 126.726  0.00  0.00    +0.000 NA
ATOM     21  C   UNL     1      -8.919   0.642 126.454  0.00  0.00    +0.000 A 
BRANCH  19  22
ATOM     22  O   UNL     1      -7.598   3.883 126.490  0.00  0.00    +0.000 OA
ATOM     23  C   UNL     1      -6.595   4.578 125.766  0.00  0.00    +0.000 C 
ENDBRANCH  19  22
ENDBRANCH   5  16
BRANCH   4  24
ATOM     24  C   UNL     1      -8.899  -0.880 122.988  0.00  0.00    +0.000 C 
BRANCH  24  25
ATOM     25  O   UNL     1     -10.169  -0.262 123.161  0.00  0.00    +0.000 OA
BRANCH  25  26
ATOM     26  C   UNL     1     -10.240   1.142 122.927  0.00  0.00    +0.000 C 
BRANCH  26  27
ATOM     27  C   UNL     1      -8.819   1.725 122.889  0.00  0.00    +0.000 C 
BRANCH  27  28
ATOM     28  O   UNL     1      -8.843   3.139 122.689  0.00  0.00    +0.000 OA
ATOM     29  C   UNL     1      -8.698   3.444 121.303  0.00  0.00    +0.000 C 
ENDBRANCH  27  28
ENDBRANCH  26  27
ENDBRANCH  25  26
ENDBRANCH  24  25
ENDBRANCH   4  24
TORSDOF 10
ENDMDL
MODEL 8
REMARK VINA RESULT:      -6.7      3.452      5.992
REMARK  Name = CHEMBL522255
REMARK  14 active torsions:
REMARK  status: ('A' for Active; 'I' for Inactive)
REMARK    1  A    between atoms: C_1  and  C_2
REMARK    2  A    between atoms: C_2  and  O_3
REMARK    3  A    between atoms: O_3  and  C_4
REMARK    4  A    between atoms: C_7  and  C_8
REMARK    5  A    between atoms: C_11  and  C_12
REMARK    6  A    between atoms: C_12  and  O_13
REMARK    7  A    between atoms: O_13  and  C_14
REMARK    8  A    between atoms: C_14  and  C_15
REMARK    9  A    between atoms: C_15  and  O_16
REMARK   10  A    between atoms: O_16  and  C_17
REMARK   11  A    between atoms: N_18  and  C_19
REMARK   12  A    between atoms: C_22  and  O_23
REMARK   13  A    between atoms: O_23  and  C_24
REMARK   14  A    between atoms: C_28  and  C_29
REMARK                            x       y       z     vdW  Elec       q    Type
REMARK                         _______ _______ _______ _____ _____    ______ ____
ROOT
ATOM      1  C   UNL     1      -5.876   0.584 127.667  0.00  0.00    +0.000 A 
ATOM      2  N   UNL     1      -5.203   0.609 128.808  0.00  0.00    +0.000 NA
ATOM      3  N   UNL     1      -4.881   1.922 129.104  0.00  0.00    +0.000 NA
ATOM      4  C   UNL     1      -5.379   2.709 128.161  0.00  0.00    +0.000 A 
ATOM      5  N   UNL     1      -5.986   1.892 127.219  0.00  0.00    +0.000 N 
ENDROOT
BRANCH   1   9
ATOM      6  C   UNL     1      -7.330  -2.773 125.329  0.00  0.00    +0.000 A 
ATOM      7  C   UNL     1      -8.117  -2.201 126.344  0.00  0.00    +0.000 A 
ATOM      8  C   UNL     1      -7.641  -1.137 127.143  0.00  0.00    +0.000 A 
ATOM      9  C   UNL     1      -6.370  -0.598 126.927  0.00  0.00    +0.000 A 
ATOM     10  C   UNL     1      -5.600  -1.162 125.893  0.00  0.00    +0.000 A 
ATOM     11  C   UNL     1      -6.064  -2.224 125.080  0.00  0.00    +0.000 A 
ATOM     12  C   UNL     1      -5.170  -2.666 123.957  0.00  0.00    +0.000 C 
BRANCH   6  13
ATOM     13  O   UNL     1      -7.942  -3.760 124.587  0.00  0.00    +0.000 OA
BRANCH  13  15
ATOM     14  C   UNL     1      -8.952  -2.359 122.868  0.00  0.00    +0.000 C 
ATOM     15  C   UNL     1      -9.174  -3.407 123.947  0.00  0.00    +0.000 C 
ENDBRANCH  13  15
ENDBRANCH   6  13
ENDBRANCH   1   9
BRANCH   5  16
ATOM     16  C   UNL     1      -6.723   2.296 126.096  0.00  0.00    +0.000 A 
ATOM     17  C   UNL     1      -6.088   2.370 124.866  0.00  0.00    +0.000 A 
ATOM     18  C   UNL     1      -6.877   2.521 123.735  0.00  0.00    +0.000 A 
ATOM     19  C   UNL     1      -8.254   2.637 123.885  0.00  0.00    +0.000 A 
ATOM     20  N   UNL     1      -8.862   2.673 125.091  0.00  0.00    +0.000 NA
ATOM     21  C   UNL     1      -8.090   2.473 126.181  0.00  0.00    +0.000 A 
BRANCH  19  22
ATOM     22  O   UNL     1      -9.146   2.635 122.849  0.00  0.00    +0.000 OA
ATOM     23  C   UNL     1      -8.699   3.248 121.651  0.00  0.00    +0.000 C 
ENDBRANCH  19  22
ENDBRANCH   5  16
BRANCH   4  24
ATOM     24  C   UNL     1      -5.381   4.227 128.189  0.00  0.00    +0.000 C 
BRANCH  24  25
ATOM     25  O   UNL     1      -4.434   4.713 127.244  0.00  0.00    +0.000 OA
BRANCH  25  26
ATOM     26  C   UNL     1      -3.267   5.341 127.767  0.00  0.00    +0.000 C 
BRANCH  26  27
ATOM     27  C   UNL     1      -3.640   6.152 129.017  0.00  0.00    +0.000 C 
BRANCH  27  28
ATOM     28  O   UNL     1      -4.059   7.473 128.673  0.00  0.00    +0.000 OA
ATOM     29  C   UNL     1      -4.119   8.291 129.841  0.00  0.00    +0.000 C 
ENDBRANCH  27  28
ENDBRANCH  26  27
ENDBRANCH  25  26
ENDBRANCH  24  25
ENDBRANCH   4  24
TORSDOF 10
ENDMDL
MODEL 9
REMARK VINA RESULT:      -6.7      4.581      6.230
REMARK  Name = CHEMBL522255
REMARK  14 active torsions:
REMARK  status: ('A' for Active; 'I' for Inactive)
REMARK    1  A    between atoms: C_1  and  C_2
REMARK    2  A    between atoms: C_2  and  O_3
REMARK    3  A    between atoms: O_3  and  C_4
REMARK    4  A    between atoms: C_7  and  C_8
REMARK    5  A    between atoms: C_11  and  C_12
REMARK    6  A    between atoms: C_12  and  O_13
REMARK    7  A    between atoms: O_13  and  C_14
REMARK    8  A    between atoms: C_14  and  C_15
REMARK    9  A    between atoms: C_15  and  O_16
REMARK   10  A    between atoms: O_16  and  C_17
REMARK   11  A    between atoms: N_18  and  C_19
REMARK   12  A    between atoms: C_22  and  O_23
REMARK   13  A    between atoms: O_23  and  C_24
REMARK   14  A    between atoms: C_28  and  C_29
REMARK                            x       y       z     vdW  Elec       q    Type
REMARK                         _______ _______ _______ _____ _____    ______ ____
ROOT
ATOM      1  C   UNL     1      -8.050   0.661 127.409  0.00  0.00    +0.000 A 
ATOM      2  N   UNL     1      -8.667   1.816 127.217  0.00  0.00    +0.000 NA
ATOM      3  N   UNL     1      -8.953   2.378 128.450  0.00  0.00    +0.000 NA
ATOM      4  C   UNL     1      -8.487   1.582 129.402  0.00  0.00    +0.000 A 
ATOM      5  N   UNL     1      -7.940   0.470 128.779  0.00  0.00    +0.000 N 
ENDROOT
BRANCH   1   9
ATOM      6  C   UNL     1      -6.797  -2.359 124.553  0.00  0.00    +0.000 A 
ATOM      7  C   UNL     1      -5.886  -1.414 125.056  0.00  0.00    +0.000 A 
ATOM      8  C   UNL     1      -6.287  -0.398 125.953  0.00  0.00    +0.000 A 
ATOM      9  C   UNL     1      -7.612  -0.319 126.391  0.00  0.00    +0.000 A 
ATOM     10  C   UNL     1      -8.510  -1.284 125.900  0.00  0.00    +0.000 A 
ATOM     11  C   UNL     1      -8.123  -2.312 125.007  0.00  0.00    +0.000 A 
ATOM     12  C   UNL     1      -9.167  -3.325 124.636  0.00  0.00    +0.000 C 
BRANCH   6  13
ATOM     13  O   UNL     1      -6.257  -3.331 123.738  0.00  0.00    +0.000 OA
BRANCH  13  15
ATOM     14  C   UNL     1      -4.224  -4.655 123.518  0.00  0.00    +0.000 C 
ATOM     15  C   UNL     1      -4.843  -3.267 123.518  0.00  0.00    +0.000 C 
ENDBRANCH  13  15
ENDBRANCH   6  13
ENDBRANCH   1   9
BRANCH   5  16
ATOM     16  C   UNL     1      -7.250  -0.589 129.389  0.00  0.00    +0.000 A 
ATOM     17  C   UNL     1      -7.925  -1.772 129.644  0.00  0.00    +0.000 A 
ATOM     18  C   UNL     1      -7.176  -2.882 130.008  0.00  0.00    +0.000 A 
ATOM     19  C   UNL     1      -5.799  -2.751 130.144  0.00  0.00    +0.000 A 
ATOM     20  N   UNL     1      -5.156  -1.572 130.000  0.00  0.00    +0.000 NA
ATOM     21  C   UNL     1      -5.887  -0.511 129.596  0.00  0.00    +0.000 A 
BRANCH  19  22
ATOM     22  O   UNL     1      -4.940  -3.795 130.344  0.00  0.00    +0.000 OA
ATOM     23  C   UNL     1      -5.526  -4.987 130.843  0.00  0.00    +0.000 C 
ENDBRANCH  19  22
ENDBRANCH   5  16
BRANCH   4  24
ATOM     24  C   UNL     1      -8.459   1.904 130.885  0.00  0.00    +0.000 C 
BRANCH  24  25
ATOM     25  O   UNL     1      -7.238   2.566 131.197  0.00  0.00    +0.000 OA
BRANCH  25  26
ATOM     26  C   UNL     1      -6.447   2.001 132.238  0.00  0.00    +0.000 C 
BRANCH  26  27
ATOM     27  C   UNL     1      -7.208   0.832 132.881  0.00  0.00    +0.000 C 
BRANCH  27  28
ATOM     28  O   UNL     1      -6.599   0.428 134.108  0.00  0.00    +0.000 OA
ATOM     29  C   UNL     1      -5.787   1.481 134.626  0.00  0.00    +0.000 C 
ENDBRANCH  27  28
ENDBRANCH  26  27
ENDBRANCH  25  26
ENDBRANCH  24  25
ENDBRANCH   4  24
TORSDOF 10
ENDMDL
