MODEL 1
REMARK VINA RESULT:      -9.0      0.000      0.000
REMARK  Name = CHEMBL3301668
REMARK  23 active torsions:
REMARK  status: ('A' for Active; 'I' for Inactive)
REMARK    1  A    between atoms: C_1  and  C_2
REMARK    2  A    between atoms: C_2  and  C_3
REMARK    3  A    between atoms: C_3  and  C_4
REMARK    4  A    between atoms: C_3  and  C_5
REMARK    5  A    between atoms: C_9  and  C_10
REMARK    6  A    between atoms: C_10  and  C_11
REMARK    7  A    between atoms: C_14  and  O_15
REMARK    8  A    between atoms: O_15  and  C_16
REMARK    9  A    between atoms: C_27  and  C_28
REMARK   10  A    between atoms: C_34  and  C_35
REMARK   11  A    between atoms: N_37  and  C_38
REMARK   12  A    between atoms: C_38  and  C_39
REMARK   13  A    between atoms: C_38  and  C_43
REMARK   14  A    between atoms: C_39  and  C_40
REMARK   15  A    between atoms: C_40  and  C_41
REMARK   16  A    between atoms: C_40  and  C_42
REMARK   17  A    between atoms: N_45  and  C_46
REMARK   18  A    between atoms: C_46  and  C_47
REMARK   19  A    between atoms: C_53  and  C_54
REMARK   20  A    between atoms: C_54  and  C_55
REMARK   21  A    between atoms: C_61  and  C_62
REMARK   22  A    between atoms: C_62  and  C_63
REMARK   23  A    between atoms: C_63  and  C_64
REMARK                            x       y       z     vdW  Elec       q    Type
REMARK                         _______ _______ _______ _____ _____    ______ ____
ROOT
ATOM      1  C   UNL     1      -4.323   7.257 130.918  0.00  0.00    +0.000 C 
ATOM      2  N   UNL     1      -6.157   6.878 130.295  0.00  0.00    +0.000 N 
ATOM      3  C   UNL     1      -7.674   6.546 130.377  0.00  0.00    +0.000 C 
ATOM      4  O   UNL     1      -8.276   6.162 129.331  0.00  0.00    +0.000 OA
ATOM      5  C   UNL     1      -8.756   6.676 131.641  0.00  0.00    +0.000 C 
ATOM      6  N   UNL     1     -10.095   7.172 131.139  0.00  0.00    +0.000 N 
ATOM      7  C   UNL     1     -11.254   6.507 130.796  0.00  0.00    +0.000 C 
ATOM      8  O   UNL     1     -12.280   7.180 130.621  0.00  0.00    +0.000 OA
ATOM      9  C   UNL     1     -11.379   4.973 130.653  0.00  0.00    +0.000 C 
ATOM     10  C   UNL     1     -10.156   4.128 130.825  0.00  0.00    +0.000 C 
ATOM     11  C   UNL     1     -10.287   2.633 130.714  0.00  0.00    +0.000 C 
ATOM     12  S   UNL     1      -9.068   1.850 131.808  0.00  0.00    +0.000 S 
ATOM     13  C   UNL     1      -8.347   0.468 130.922  0.00  0.00    +0.000 C 
ATOM     14  C   UNL     1      -6.984  -0.085 131.320  0.00  0.00    +0.000 C 
ATOM     15  N   UNL     1      -5.971   0.346 130.347  0.00  0.00    +0.000 N 
ATOM     16  C   UNL     1      -5.477   1.561 130.284  0.00  0.00    +0.000 C 
ATOM     17  O   UNL     1      -4.348   1.761 129.852  0.00  0.00    +0.000 OA
ATOM     18  C   UNL     1      -6.442   2.606 130.592  0.00  0.00    +0.000 C 
ATOM     19  N   UNL     1      -5.469   3.454 130.999  0.00  0.00    +0.000 N 
ATOM     20  C   UNL     1      -4.705   4.392 130.505  0.00  0.00    +0.000 C 
ATOM     21  O   UNL     1      -4.740   5.306 131.089  0.00  0.00    +0.000 OA
ATOM     22  C   UNL     1      -4.032   4.839 129.343  0.00  0.00    +0.000 C 
ATOM     23  N   UNL     1      -4.167   6.225 128.760  0.00  0.00    +0.000 N 
ATOM     24  C   UNL     1      -3.997   7.408 129.462  0.00  0.00    +0.000 C 
ATOM     25  O   UNL     1      -4.054   8.552 128.989  0.00  0.00    +0.000 OA
ATOM     26  H   UNL     1      -6.299   6.566 129.302  0.00  0.00    +0.000 HD
ATOM     27  H   UNL     1     -10.222   8.177 131.206  0.00  0.00    +0.000 HD
ATOM     28  H   UNL     1      -5.302  -0.305 129.954  0.00  0.00    +0.000 HD
ATOM     29  H   UNL     1      -5.997   3.817 131.718  0.00  0.00    +0.000 HD
ATOM     30  H   UNL     1      -5.133   6.314 128.528  0.00  0.00    +0.000 HD
ENDROOT
BRANCH  14  31
ATOM     31  C   UNL     1      -6.897  -1.611 131.297  0.00  0.00    +0.000 C 
ATOM     32  O   UNL     1      -7.942  -2.147 130.920  0.00  0.00    +0.000 OA
ATOM     33  N   UNL     1      -5.661  -2.239 131.472  0.00  0.00    +0.000 N 
ATOM     34  C   UNL     1      -4.638  -1.922 132.444  0.00  0.00    +0.000 C 
ATOM     35  C   UNL     1      -3.370  -2.175 131.684  0.00  0.00    +0.000 C 
ATOM     36  C   UNL     1      -3.660  -3.481 130.999  0.00  0.00    +0.000 C 
ATOM     37  C   UNL     1      -5.180  -3.502 130.814  0.00  0.00    +0.000 C 
BRANCH  37  38
ATOM     38  C   UNL     1      -5.481  -4.840 131.588  0.00  0.00    +0.000 C 
ATOM     39  O   UNL     1      -5.399  -5.927 131.013  0.00  0.00    +0.000 OA
ATOM     40  N   UNL     1      -5.650  -4.724 132.979  0.00  0.00    +0.000 N 
ATOM     41  H   UNL     1      -5.846  -3.825 133.415  0.00  0.00    +0.000 HD
BRANCH  40  42
ATOM     42  C   UNL     1      -5.335  -5.843 133.916  0.00  0.00    +0.000 C 
BRANCH  42  43
ATOM     43  C   UNL     1      -6.368  -5.837 135.088  0.00  0.00    +0.000 C 
ATOM     44  O   UNL     1      -6.234  -6.573 136.066  0.00  0.00    +0.000 OA
ATOM     45  N   UNL     1      -7.445  -4.979 134.962  0.00  0.00    +0.000 N 
ATOM     46  H   UNL     1      -7.528  -4.407 134.141  0.00  0.00    +0.000 HD
BRANCH  45  47
ATOM     47  C   UNL     1      -8.476  -4.864 135.997  0.00  0.00    +0.000 C 
BRANCH  47  48
ATOM     48  C   UNL     1      -8.727  -3.441 136.532  0.00  0.00    +0.000 C 
ATOM     49  N   UNL     1      -9.920  -3.190 137.155  0.00  0.00    +0.000 N 
ATOM     50  O   UNL     1      -7.900  -2.539 136.419  0.00  0.00    +0.000 OA
ATOM     51  H   UNL     1     -10.662  -3.848 137.302  0.00  0.00    +0.000 HD
ATOM     52  H   UNL     1     -10.080  -2.252 137.504  0.00  0.00    +0.000 HD
ENDBRANCH  47  48
ENDBRANCH  45  47
ENDBRANCH  42  43
BRANCH  42  53
ATOM     53  C   UNL     1      -3.896  -5.821 134.542  0.00  0.00    +0.000 C 
BRANCH  53  54
ATOM     54  C   UNL     1      -3.265  -4.438 134.659  0.00  0.00    +0.000 C 
ATOM     55  C   UNL     1      -3.460  -3.896 136.029  0.00  0.00    +0.000 C 
ATOM     56  C   UNL     1      -1.767  -4.381 134.608  0.00  0.00    +0.000 C 
ENDBRANCH  53  54
ENDBRANCH  42  53
ENDBRANCH  40  42
ENDBRANCH  37  38
ENDBRANCH  14  31
BRANCH   1  57
ATOM     57  C   UNL     1      -2.989   6.109 131.828  0.00  0.00    +0.000 C 
ATOM     58  C   UNL     1      -1.803   4.962 132.059  0.00  0.00    +0.000 C 
BRANCH  57  60
ATOM     59  C   UNL     1      -3.773   6.696 134.167  0.00  0.00    +0.000 C 
ATOM     60  C   UNL     1      -2.441   6.841 133.117  0.00  0.00    +0.000 C 
ENDBRANCH  57  60
ENDBRANCH   1  57
BRANCH  18  61
ATOM     61  C   UNL     1      -7.331   3.490 129.788  0.00  0.00    +0.000 C 
BRANCH  61  62
ATOM     62  C   UNL     1      -7.428   3.107 128.339  0.00  0.00    +0.000 C 
ATOM     63  N   UNL     1      -6.954   4.047 127.460  0.00  0.00    +0.000 N 
ATOM     64  O   UNL     1      -8.139   2.234 127.856  0.00  0.00    +0.000 OA
ATOM     65  H   UNL     1      -7.034   5.010 127.769  0.00  0.00    +0.000 HD
ATOM     66  H   UNL     1      -7.564   4.042 126.642  0.00  0.00    +0.000 HD
ENDBRANCH  61  62
ENDBRANCH  18  61
BRANCH   5  67
ATOM     67  C   UNL     1      -9.179   5.730 132.997  0.00  0.00    +0.000 C 
BRANCH  67  68
ATOM     68  C   UNL     1      -8.241   5.428 134.134  0.00  0.00    +0.000 A 
ATOM     69  C   UNL     1      -7.425   4.467 133.925  0.00  0.00    +0.000 A 
ATOM     70  C   UNL     1      -6.204   3.996 134.738  0.00  0.00    +0.000 A 
ATOM     71  C   UNL     1      -5.852   4.171 135.958  0.00  0.00    +0.000 A 
ATOM     72  C   UNL     1      -6.760   5.084 136.310  0.00  0.00    +0.000 A 
ATOM     73  C   UNL     1      -7.887   5.715 135.406  0.00  0.00    +0.000 A 
BRANCH  71  74
ATOM     74  O   UNL     1      -4.856   3.357 136.342  0.00  0.00    +0.000 OA
ATOM     75  C   UNL     1      -4.182   2.947 135.209  0.00  0.00    +0.000 C 
ENDBRANCH  71  74
ENDBRANCH  67  68
ENDBRANCH   5  67
BRANCH  22  76
ATOM     76  C   UNL     1      -2.774   4.163 129.082  0.00  0.00    +0.000 C 
BRANCH  76  77
ATOM     77  C   UNL     1      -2.520   3.668 127.669  0.00  0.00    +0.000 C 
BRANCH  77  78
ATOM     78  C   UNL     1      -3.502   3.239 126.694  0.00  0.00    +0.000 C 
ATOM     79  N   UNL     1      -3.761   1.963 126.968  0.00  0.00    +0.000 N 
ATOM     80  O   UNL     1      -4.090   3.971 125.916  0.00  0.00    +0.000 OA
ATOM     81  H   UNL     1      -3.230   1.512 127.696  0.00  0.00    +0.000 HD
ATOM     82  H   UNL     1      -4.486   1.534 126.447  0.00  0.00    +0.000 HD
ENDBRANCH  77  78
ENDBRANCH  76  77
ENDBRANCH  22  76
TORSDOF 18
ENDMDL
MODEL 2
REMARK VINA RESULT:      -8.3      2.759      4.786
REMARK  Name = CHEMBL3301668
REMARK  23 active torsions:
REMARK  status: ('A' for Active; 'I' for Inactive)
REMARK    1  A    between atoms: C_1  and  C_2
REMARK    2  A    between atoms: C_2  and  C_3
REMARK    3  A    between atoms: C_3  and  C_4
REMARK    4  A    between atoms: C_3  and  C_5
REMARK    5  A    between atoms: C_9  and  C_10
REMARK    6  A    between atoms: C_10  and  C_11
REMARK    7  A    between atoms: C_14  and  O_15
REMARK    8  A    between atoms: O_15  and  C_16
REMARK    9  A    between atoms: C_27  and  C_28
REMARK   10  A    between atoms: C_34  and  C_35
REMARK   11  A    between atoms: N_37  and  C_38
REMARK   12  A    between atoms: C_38  and  C_39
REMARK   13  A    between atoms: C_38  and  C_43
REMARK   14  A    between atoms: C_39  and  C_40
REMARK   15  A    between atoms: C_40  and  C_41
REMARK   16  A    between atoms: C_40  and  C_42
REMARK   17  A    between atoms: N_45  and  C_46
REMARK   18  A    between atoms: C_46  and  C_47
REMARK   19  A    between atoms: C_53  and  C_54
REMARK   20  A    between atoms: C_54  and  C_55
REMARK   21  A    between atoms: C_61  and  C_62
REMARK   22  A    between atoms: C_62  and  C_63
REMARK   23  A    between atoms: C_63  and  C_64
REMARK                            x       y       z     vdW  Elec       q    Type
REMARK                         _______ _______ _______ _____ _____    ______ ____
ROOT
ATOM      1  C   UNL     1      -5.399   4.650 126.849  0.00  0.00    +0.000 C 
ATOM      2  N   UNL     1      -7.026   4.605 127.966  0.00  0.00    +0.000 N 
ATOM      3  C   UNL     1      -7.967   4.907 129.166  0.00  0.00    +0.000 C 
ATOM      4  O   UNL     1      -9.007   4.203 129.325  0.00  0.00    +0.000 OA
ATOM      5  C   UNL     1      -7.912   6.109 130.323  0.00  0.00    +0.000 C 
ATOM      6  N   UNL     1      -9.306   6.615 130.624  0.00  0.00    +0.000 N 
ATOM      7  C   UNL     1     -10.204   6.304 131.623  0.00  0.00    +0.000 C 
ATOM      8  O   UNL     1     -11.198   7.031 131.759  0.00  0.00    +0.000 OA
ATOM      9  C   UNL     1     -10.040   5.133 132.619  0.00  0.00    +0.000 C 
ATOM     10  C   UNL     1      -8.871   4.212 132.469  0.00  0.00    +0.000 C 
ATOM     11  C   UNL     1      -8.699   3.091 133.457  0.00  0.00    +0.000 C 
ATOM     12  S   UNL     1      -6.927   2.765 133.679  0.00  0.00    +0.000 S 
ATOM     13  C   UNL     1      -6.700   0.986 133.717  0.00  0.00    +0.000 C 
ATOM     14  C   UNL     1      -5.346   0.369 133.392  0.00  0.00    +0.000 C 
ATOM     15  N   UNL     1      -5.382  -0.225 132.049  0.00  0.00    +0.000 N 
ATOM     16  C   UNL     1      -5.349   0.468 130.934  0.00  0.00    +0.000 C 
ATOM     17  O   UNL     1      -4.888  -0.012 129.906  0.00  0.00    +0.000 OA
ATOM     18  C   UNL     1      -6.060   1.736 131.008  0.00  0.00    +0.000 C 
ATOM     19  N   UNL     1      -5.293   2.281 130.036  0.00  0.00    +0.000 N 
ATOM     20  C   UNL     1      -5.297   2.425 128.737  0.00  0.00    +0.000 C 
ATOM     21  O   UNL     1      -5.137   3.455 128.435  0.00  0.00    +0.000 OA
ATOM     22  C   UNL     1      -5.703   1.843 127.513  0.00  0.00    +0.000 C 
ATOM     23  N   UNL     1      -6.503   2.560 126.452  0.00  0.00    +0.000 N 
ATOM     24  C   UNL     1      -6.180   3.790 125.901  0.00  0.00    +0.000 C 
ATOM     25  O   UNL     1      -6.797   4.368 124.995  0.00  0.00    +0.000 OA
ATOM     26  H   UNL     1      -7.722   3.833 127.812  0.00  0.00    +0.000 HD
ATOM     27  H   UNL     1      -9.579   7.435 130.090  0.00  0.00    +0.000 HD
ATOM     28  H   UNL     1      -5.025  -1.157 131.871  0.00  0.00    +0.000 HD
ATOM     29  H   UNL     1      -5.265   3.148 130.454  0.00  0.00    +0.000 HD
ATOM     30  H   UNL     1      -7.361   2.806 126.898  0.00  0.00    +0.000 HD
ENDROOT
BRANCH  14  31
ATOM     31  C   UNL     1      -4.955  -0.795 134.303  0.00  0.00    +0.000 C 
ATOM     32  O   UNL     1      -3.933  -0.572 134.957  0.00  0.00    +0.000 OA
ATOM     33  N   UNL     1      -5.840  -1.861 134.488  0.00  0.00    +0.000 N 
ATOM     34  C   UNL     1      -6.616  -2.551 133.482  0.00  0.00    +0.000 C 
ATOM     35  C   UNL     1      -7.894  -2.858 134.203  0.00  0.00    +0.000 C 
ATOM     36  C   UNL     1      -7.402  -3.357 135.533  0.00  0.00    +0.000 C 
ATOM     37  C   UNL     1      -6.057  -2.656 135.745  0.00  0.00    +0.000 C 
BRANCH  37  38
ATOM     38  C   UNL     1      -5.160  -3.939 135.913  0.00  0.00    +0.000 C 
ATOM     39  O   UNL     1      -5.676  -5.047 136.062  0.00  0.00    +0.000 OA
ATOM     40  N   UNL     1      -3.782  -3.762 135.691  0.00  0.00    +0.000 N 
ATOM     41  H   UNL     1      -3.360  -2.836 135.702  0.00  0.00    +0.000 HD
BRANCH  40  42
ATOM     42  C   UNL     1      -2.905  -4.869 135.209  0.00  0.00    +0.000 C 
BRANCH  42  43
ATOM     43  C   UNL     1      -1.412  -4.500 135.491  0.00  0.00    +0.000 C 
ATOM     44  O   UNL     1      -0.611  -5.340 135.900  0.00  0.00    +0.000 OA
ATOM     45  N   UNL     1      -1.047  -3.185 135.275  0.00  0.00    +0.000 N 
ATOM     46  H   UNL     1      -1.735  -2.526 134.957  0.00  0.00    +0.000 HD
BRANCH  45  47
ATOM     47  C   UNL     1       0.324  -2.713 135.485  0.00  0.00    +0.000 C 
BRANCH  47  48
ATOM     48  C   UNL     1       1.283  -2.898 134.293  0.00  0.00    +0.000 C 
ATOM     49  N   UNL     1       1.929  -4.098 134.166  0.00  0.00    +0.000 N 
ATOM     50  O   UNL     1       1.480  -2.013 133.463  0.00  0.00    +0.000 OA
ATOM     51  H   UNL     1       1.842  -4.885 134.782  0.00  0.00    +0.000 HD
ATOM     52  H   UNL     1       2.558  -4.214 133.381  0.00  0.00    +0.000 HD
ENDBRANCH  47  48
ENDBRANCH  45  47
ENDBRANCH  42  43
BRANCH  42  53
ATOM     53  C   UNL     1      -3.034  -5.224 133.686  0.00  0.00    +0.000 C 
BRANCH  53  54
ATOM     54  C   UNL     1      -4.184  -4.536 132.958  0.00  0.00    +0.000 C 
ATOM     55  C   UNL     1      -3.698  -3.902 131.706  0.00  0.00    +0.000 C 
ATOM     56  C   UNL     1      -5.228  -5.434 132.362  0.00  0.00    +0.000 C 
ENDBRANCH  53  54
ENDBRANCH  42  53
ENDBRANCH  40  42
ENDBRANCH  37  38
ENDBRANCH  14  31
BRANCH   1  57
ATOM     57  C   UNL     1      -3.586   3.909 127.151  0.00  0.00    +0.000 C 
ATOM     58  C   UNL     1      -2.145   3.122 126.866  0.00  0.00    +0.000 C 
BRANCH  57  60
ATOM     59  C   UNL     1      -3.406   6.332 127.876  0.00  0.00    +0.000 C 
ATOM     60  C   UNL     1      -2.826   4.772 128.233  0.00  0.00    +0.000 C 
ENDBRANCH  57  60
ENDBRANCH   1  57
BRANCH  18  61
ATOM     61  C   UNL     1      -7.428   2.200 130.643  0.00  0.00    +0.000 C 
BRANCH  61  62
ATOM     62  C   UNL     1      -8.348   1.102 130.191  0.00  0.00    +0.000 C 
ATOM     63  N   UNL     1      -8.998   0.441 131.202  0.00  0.00    +0.000 N 
ATOM     64  O   UNL     1      -8.342   0.539 129.102  0.00  0.00    +0.000 OA
ATOM     65  H   UNL     1      -8.499   0.398 132.084  0.00  0.00    +0.000 HD
ATOM     66  H   UNL     1      -9.050  -0.545 130.946  0.00  0.00    +0.000 HD
ENDBRANCH  61  62
ENDBRANCH  18  61
BRANCH   5  67
ATOM     67  C   UNL     1      -7.086   6.358 131.796  0.00  0.00    +0.000 C 
BRANCH  67  68
ATOM     68  C   UNL     1      -5.620   6.085 131.992  0.00  0.00    +0.000 A 
ATOM     69  C   UNL     1      -4.831   6.900 131.403  0.00  0.00    +0.000 A 
ATOM     70  C   UNL     1      -3.306   7.079 131.522  0.00  0.00    +0.000 A 
ATOM     71  C   UNL     1      -2.370   6.309 131.940  0.00  0.00    +0.000 A 
ATOM     72  C   UNL     1      -3.117   5.336 132.462  0.00  0.00    +0.000 A 
ATOM     73  C   UNL     1      -4.691   5.256 132.519  0.00  0.00    +0.000 A 
BRANCH  71  74
ATOM     74  O   UNL     1      -1.143   6.746 131.614  0.00  0.00    +0.000 OA
ATOM     75  C   UNL     1      -0.602   7.363 132.724  0.00  0.00    +0.000 C 
ENDBRANCH  71  74
ENDBRANCH  67  68
ENDBRANCH   5  67
BRANCH  22  76
ATOM     76  C   UNL     1      -4.837   0.778 127.041  0.00  0.00    +0.000 C 
BRANCH  76  77
ATOM     77  C   UNL     1      -5.429  -0.237 126.078  0.00  0.00    +0.000 C 
BRANCH  77  78
ATOM     78  C   UNL     1      -5.726  -1.631 126.340  0.00  0.00    +0.000 C 
ATOM     79  N   UNL     1      -5.595  -1.797 127.653  0.00  0.00    +0.000 N 
ATOM     80  O   UNL     1      -6.183  -2.419 125.528  0.00  0.00    +0.000 OA
ATOM     81  H   UNL     1      -5.267  -1.018 128.203  0.00  0.00    +0.000 HD
ATOM     82  H   UNL     1      -5.851  -2.681 128.018  0.00  0.00    +0.000 HD
ENDBRANCH  77  78
ENDBRANCH  76  77
ENDBRANCH  22  76
TORSDOF 18
ENDMDL
MODEL 3
REMARK VINA RESULT:      -8.2      2.436      4.637
REMARK  Name = CHEMBL3301668
REMARK  23 active torsions:
REMARK  status: ('A' for Active; 'I' for Inactive)
REMARK    1  A    between atoms: C_1  and  C_2
REMARK    2  A    between atoms: C_2  and  C_3
REMARK    3  A    between atoms: C_3  and  C_4
REMARK    4  A    between atoms: C_3  and  C_5
REMARK    5  A    between atoms: C_9  and  C_10
REMARK    6  A    between atoms: C_10  and  C_11
REMARK    7  A    between atoms: C_14  and  O_15
REMARK    8  A    between atoms: O_15  and  C_16
REMARK    9  A    between atoms: C_27  and  C_28
REMARK   10  A    between atoms: C_34  and  C_35
REMARK   11  A    between atoms: N_37  and  C_38
REMARK   12  A    between atoms: C_38  and  C_39
REMARK   13  A    between atoms: C_38  and  C_43
REMARK   14  A    between atoms: C_39  and  C_40
REMARK   15  A    between atoms: C_40  and  C_41
REMARK   16  A    between atoms: C_40  and  C_42
REMARK   17  A    between atoms: N_45  and  C_46
REMARK   18  A    between atoms: C_46  and  C_47
REMARK   19  A    between atoms: C_53  and  C_54
REMARK   20  A    between atoms: C_54  and  C_55
REMARK   21  A    between atoms: C_61  and  C_62
REMARK   22  A    between atoms: C_62  and  C_63
REMARK   23  A    between atoms: C_63  and  C_64
REMARK                            x       y       z     vdW  Elec       q    Type
REMARK                         _______ _______ _______ _____ _____    ______ ____
ROOT
ATOM      1  C   UNL     1      -6.003   4.289 126.603  0.00  0.00    +0.000 C 
ATOM      2  N   UNL     1      -7.517   4.222 127.867  0.00  0.00    +0.000 N 
ATOM      3  C   UNL     1      -8.378   4.569 129.115  0.00  0.00    +0.000 C 
ATOM      4  O   UNL     1      -9.329   3.798 129.440  0.00  0.00    +0.000 OA
ATOM      5  C   UNL     1      -8.339   5.887 130.138  0.00  0.00    +0.000 C 
ATOM      6  N   UNL     1      -9.745   6.300 130.518  0.00  0.00    +0.000 N 
ATOM      7  C   UNL     1     -10.521   6.021 131.623  0.00  0.00    +0.000 C 
ATOM      8  O   UNL     1     -11.565   6.670 131.780  0.00  0.00    +0.000 OA
ATOM      9  C   UNL     1     -10.163   4.981 132.709  0.00  0.00    +0.000 C 
ATOM     10  C   UNL     1      -8.928   4.154 132.540  0.00  0.00    +0.000 C 
ATOM     11  C   UNL     1      -8.566   3.163 133.614  0.00  0.00    +0.000 C 
ATOM     12  S   UNL     1      -6.759   3.016 133.699  0.00  0.00    +0.000 S 
ATOM     13  C   UNL     1      -6.361   1.278 133.890  0.00  0.00    +0.000 C 
ATOM     14  C   UNL     1      -4.987   0.749 133.501  0.00  0.00    +0.000 C 
ATOM     15  N   UNL     1      -5.079   0.015 132.232  0.00  0.00    +0.000 N 
ATOM     16  C   UNL     1      -5.208   0.585 131.056  0.00  0.00    +0.000 C 
ATOM     17  O   UNL     1      -4.792   0.040 130.041  0.00  0.00    +0.000 OA
ATOM     18  C   UNL     1      -6.028   1.788 131.072  0.00  0.00    +0.000 C 
ATOM     19  N   UNL     1      -5.401   2.290 129.983  0.00  0.00    +0.000 N 
ATOM     20  C   UNL     1      -5.529   2.295 128.683  0.00  0.00    +0.000 C 
ATOM     21  O   UNL     1      -5.494   3.297 128.267  0.00  0.00    +0.000 OA
ATOM     22  C   UNL     1      -5.980   1.553 127.566  0.00  0.00    +0.000 C 
ATOM     23  N   UNL     1      -6.932   2.081 126.519  0.00  0.00    +0.000 N 
ATOM     24  C   UNL     1      -6.775   3.268 125.822  0.00  0.00    +0.000 C 
ATOM     25  O   UNL     1      -7.520   3.692 124.926  0.00  0.00    +0.000 OA
ATOM     26  H   UNL     1      -8.147   3.381 127.857  0.00  0.00    +0.000 HD
ATOM     27  H   UNL     1     -10.139   7.032 129.934  0.00  0.00    +0.000 HD
ATOM     28  H   UNL     1      -4.651  -0.896 132.113  0.00  0.00    +0.000 HD
ATOM     29  H   UNL     1      -5.421   3.196 130.310  0.00  0.00    +0.000 HD
ATOM     30  H   UNL     1      -7.768   2.298 127.018  0.00  0.00    +0.000 HD
ENDROOT
BRANCH  14  31
ATOM     31  C   UNL     1      -4.410  -0.273 134.481  0.00  0.00    +0.000 C 
ATOM     32  O   UNL     1      -3.345   0.092 134.986  0.00  0.00    +0.000 OA
ATOM     33  N   UNL     1      -5.183  -1.367 134.879  0.00  0.00    +0.000 N 
ATOM     34  C   UNL     1      -6.004  -2.219 134.048  0.00  0.00    +0.000 C 
ATOM     35  C   UNL     1      -7.171  -2.526 134.939  0.00  0.00    +0.000 C 
ATOM     36  C   UNL     1      -6.503  -2.834 136.250  0.00  0.00    +0.000 C 
ATOM     37  C   UNL     1      -5.203  -2.025 136.231  0.00  0.00    +0.000 C 
BRANCH  37  38
ATOM     38  C   UNL     1      -4.193  -3.217 136.432  0.00  0.00    +0.000 C 
ATOM     39  O   UNL     1      -4.605  -4.342 136.720  0.00  0.00    +0.000 OA
ATOM     40  N   UNL     1      -2.857  -2.960 136.079  0.00  0.00    +0.000 N 
ATOM     41  H   UNL     1      -2.511  -2.008 135.973  0.00  0.00    +0.000 HD
BRANCH  40  42
ATOM     42  C   UNL     1      -1.933  -4.039 135.621  0.00  0.00    +0.000 C 
BRANCH  42  43
ATOM     43  C   UNL     1      -2.522  -4.708 134.337  0.00  0.00    +0.000 C 
ATOM     44  O   UNL     1      -2.566  -5.933 134.214  0.00  0.00    +0.000 OA
ATOM     45  N   UNL     1      -2.973  -3.858 133.345  0.00  0.00    +0.000 N 
ATOM     46  H   UNL     1      -2.904  -2.864 133.477  0.00  0.00    +0.000 HD
BRANCH  45  47
ATOM     47  C   UNL     1      -3.563  -4.356 132.100  0.00  0.00    +0.000 C 
BRANCH  47  48
ATOM     48  C   UNL     1      -3.945  -3.279 131.066  0.00  0.00    +0.000 C 
ATOM     49  N   UNL     1      -2.982  -2.386 130.681  0.00  0.00    +0.000 N 
ATOM     50  O   UNL     1      -5.073  -3.199 130.584  0.00  0.00    +0.000 OA
ATOM     51  H   UNL     1      -2.034  -2.360 131.007  0.00  0.00    +0.000 HD
ATOM     52  H   UNL     1      -3.239  -1.680 130.001  0.00  0.00    +0.000 HD
ENDBRANCH  47  48
ENDBRANCH  45  47
ENDBRANCH  42  43
BRANCH  42  53
ATOM     53  C   UNL     1      -1.642  -5.174 136.665  0.00  0.00    +0.000 C 
BRANCH  53  54
ATOM     54  C   UNL     1      -0.571  -4.841 137.698  0.00  0.00    +0.000 C 
ATOM     55  C   UNL     1       0.300  -3.744 137.203  0.00  0.00    +0.000 C 
ATOM     56  C   UNL     1      -1.045  -4.193 138.965  0.00  0.00    +0.000 C 
ENDBRANCH  53  54
ENDBRANCH  42  53
ENDBRANCH  40  42
ENDBRANCH  37  38
ENDBRANCH  14  31
BRANCH   1  57
ATOM     57  C   UNL     1      -4.109   3.743 126.804  0.00  0.00    +0.000 C 
ATOM     58  C   UNL     1      -2.696   2.881 126.614  0.00  0.00    +0.000 C 
BRANCH  57  60
ATOM     59  C   UNL     1      -3.091   4.882 128.828  0.00  0.00    +0.000 C 
ATOM     60  C   UNL     1      -3.217   5.005 127.134  0.00  0.00    +0.000 C 
ENDBRANCH  57  60
ENDBRANCH   1  57
BRANCH  18  61
ATOM     61  C   UNL     1      -7.460   2.090 130.793  0.00  0.00    +0.000 C 
BRANCH  61  62
ATOM     62  C   UNL     1      -8.302   0.876 130.526  0.00  0.00    +0.000 C 
ATOM     63  N   UNL     1      -8.969   0.385 131.619  0.00  0.00    +0.000 N 
ATOM     64  O   UNL     1      -8.216   0.118 129.568  0.00  0.00    +0.000 OA
ATOM     65  H   UNL     1      -8.513   0.538 132.512  0.00  0.00    +0.000 HD
ATOM     66  H   UNL     1      -8.961  -0.633 131.556  0.00  0.00    +0.000 HD
ENDBRANCH  61  62
ENDBRANCH  18  61
BRANCH   5  67
ATOM     67  C   UNL     1      -7.419   6.361 131.495  0.00  0.00    +0.000 C 
BRANCH  67  68
ATOM     68  C   UNL     1      -5.975   6.776 131.426  0.00  0.00    +0.000 A 
ATOM     69  C   UNL     1      -5.247   6.380 132.399  0.00  0.00    +0.000 A 
ATOM     70  C   UNL     1      -3.720   6.421 132.589  0.00  0.00    +0.000 A 
ATOM     71  C   UNL     1      -2.794   7.120 132.043  0.00  0.00    +0.000 A 
ATOM     72  C   UNL     1      -3.509   7.692 131.072  0.00  0.00    +0.000 A 
ATOM     73  C   UNL     1      -5.040   7.487 130.757  0.00  0.00    +0.000 A 
BRANCH  71  74
ATOM     74  O   UNL     1      -1.622   7.044 132.693  0.00  0.00    +0.000 OA
ATOM     75  C   UNL     1      -0.997   5.875 132.305  0.00  0.00    +0.000 C 
ENDBRANCH  71  74
ENDBRANCH  67  68
ENDBRANCH   5  67
BRANCH  22  76
ATOM     76  C   UNL     1      -5.060   0.522 127.120  0.00  0.00    +0.000 C 
BRANCH  76  77
ATOM     77  C   UNL     1      -5.648  -0.702 126.441  0.00  0.00    +0.000 C 
BRANCH  77  78
ATOM     78  C   UNL     1      -6.636  -1.618 126.974  0.00  0.00    +0.000 C 
ATOM     79  N   UNL     1      -6.242  -1.908 128.211  0.00  0.00    +0.000 N 
ATOM     80  O   UNL     1      -7.698  -1.897 126.442  0.00  0.00    +0.000 OA
ATOM     81  H   UNL     1      -5.359  -1.540 128.531  0.00  0.00    +0.000 HD
ATOM     82  H   UNL     1      -6.857  -2.458 128.757  0.00  0.00    +0.000 HD
ENDBRANCH  77  78
ENDBRANCH  76  77
ENDBRANCH  22  76
TORSDOF 18
ENDMDL
MODEL 4
REMARK VINA RESULT:      -8.1      2.473      5.714
REMARK  Name = CHEMBL3301668
REMARK  23 active torsions:
REMARK  status: ('A' for Active; 'I' for Inactive)
REMARK    1  A    between atoms: C_1  and  C_2
REMARK    2  A    between atoms: C_2  and  C_3
REMARK    3  A    between atoms: C_3  and  C_4
REMARK    4  A    between atoms: C_3  and  C_5
REMARK    5  A    between atoms: C_9  and  C_10
REMARK    6  A    between atoms: C_10  and  C_11
REMARK    7  A    between atoms: C_14  and  O_15
REMARK    8  A    between atoms: O_15  and  C_16
REMARK    9  A    between atoms: C_27  and  C_28
REMARK   10  A    between atoms: C_34  and  C_35
REMARK   11  A    between atoms: N_37  and  C_38
REMARK   12  A    between atoms: C_38  and  C_39
REMARK   13  A    between atoms: C_38  and  C_43
REMARK   14  A    between atoms: C_39  and  C_40
REMARK   15  A    between atoms: C_40  and  C_41
REMARK   16  A    between atoms: C_40  and  C_42
REMARK   17  A    between atoms: N_45  and  C_46
REMARK   18  A    between atoms: C_46  and  C_47
REMARK   19  A    between atoms: C_53  and  C_54
REMARK   20  A    between atoms: C_54  and  C_55
REMARK   21  A    between atoms: C_61  and  C_62
REMARK   22  A    between atoms: C_62  and  C_63
REMARK   23  A    between atoms: C_63  and  C_64
REMARK                            x       y       z     vdW  Elec       q    Type
REMARK                         _______ _______ _______ _____ _____    ______ ____
ROOT
ATOM      1  C   UNL     1      -4.934   7.371 136.164  0.00  0.00    +0.000 C 
ATOM      2  N   UNL     1      -4.028   6.940 134.463  0.00  0.00    +0.000 N 
ATOM      3  C   UNL     1      -3.853   6.691 132.939  0.00  0.00    +0.000 C 
ATOM      4  O   UNL     1      -2.801   6.121 132.525  0.00  0.00    +0.000 OA
ATOM      5  C   UNL     1      -4.813   7.124 131.643  0.00  0.00    +0.000 C 
ATOM      6  N   UNL     1      -3.955   7.555 130.473  0.00  0.00    +0.000 N 
ATOM      7  C   UNL     1      -3.514   6.879 129.355  0.00  0.00    +0.000 C 
ATOM      8  O   UNL     1      -2.999   7.539 128.441  0.00  0.00    +0.000 OA
ATOM      9  C   UNL     1      -3.652   5.354 129.138  0.00  0.00    +0.000 C 
ATOM     10  C   UNL     1      -4.238   4.518 130.231  0.00  0.00    +0.000 C 
ATOM     11  C   UNL     1      -4.398   3.038 130.005  0.00  0.00    +0.000 C 
ATOM     12  S   UNL     1      -5.854   2.455 130.917  0.00  0.00    +0.000 S 
ATOM     13  C   UNL     1      -5.427   0.891 131.685  0.00  0.00    +0.000 C 
ATOM     14  C   UNL     1      -6.202   0.382 132.893  0.00  0.00    +0.000 C 
ATOM     15  N   UNL     1      -5.397   0.561 134.109  0.00  0.00    +0.000 N 
ATOM     16  C   UNL     1      -5.203   1.716 134.702  0.00  0.00    +0.000 C 
ATOM     17  O   UNL     1      -4.985   1.778 135.907  0.00  0.00    +0.000 OA
ATOM     18  C   UNL     1      -5.090   2.839 133.783  0.00  0.00    +0.000 C 
ATOM     19  N   UNL     1      -5.517   3.715 134.722  0.00  0.00    +0.000 N 
ATOM     20  C   UNL     1      -5.020   4.499 135.641  0.00  0.00    +0.000 C 
ATOM     21  O   UNL     1      -5.393   5.515 135.565  0.00  0.00    +0.000 OA
ATOM     22  C   UNL     1      -3.961   4.667 136.564  0.00  0.00    +0.000 C 
ATOM     23  N   UNL     1      -3.102   5.906 136.658  0.00  0.00    +0.000 N 
ATOM     24  C   UNL     1      -3.578   7.202 136.781  0.00  0.00    +0.000 C 
ATOM     25  O   UNL     1      -2.888   8.223 136.910  0.00  0.00    +0.000 OA
ATOM     26  H   UNL     1      -3.107   6.435 134.496  0.00  0.00    +0.000 HD
ATOM     27  H   UNL     1      -3.794   8.556 130.417  0.00  0.00    +0.000 HD
ATOM     28  H   UNL     1      -5.289  -0.183 134.789  0.00  0.00    +0.000 HD
ATOM     29  H   UNL     1      -6.025   4.240 134.094  0.00  0.00    +0.000 HD
ATOM     30  H   UNL     1      -2.660   5.982 135.767  0.00  0.00    +0.000 HD
ENDROOT
BRANCH  14  31
ATOM     31  C   UNL     1      -6.497  -1.118 132.860  0.00  0.00    +0.000 C 
ATOM     32  O   UNL     1      -7.613  -1.399 133.307  0.00  0.00    +0.000 OA
ATOM     33  N   UNL     1      -5.641  -1.980 132.170  0.00  0.00    +0.000 N 
ATOM     34  C   UNL     1      -4.195  -1.987 132.182  0.00  0.00    +0.000 C 
ATOM     35  C   UNL     1      -3.854  -2.366 130.772  0.00  0.00    +0.000 C 
ATOM     36  C   UNL     1      -4.808  -3.495 130.502  0.00  0.00    +0.000 C 
ATOM     37  C   UNL     1      -6.019  -3.212 131.397  0.00  0.00    +0.000 C 
BRANCH  37  38
ATOM     38  C   UNL     1      -6.018  -4.562 132.207  0.00  0.00    +0.000 C 
ATOM     39  O   UNL     1      -5.514  -5.579 131.728  0.00  0.00    +0.000 OA
ATOM     40  N   UNL     1      -6.442  -4.478 133.546  0.00  0.00    +0.000 N 
ATOM     41  H   UNL     1      -6.973  -3.678 133.883  0.00  0.00    +0.000 HD
BRANCH  40  42
ATOM     42  C   UNL     1      -5.958  -5.423 134.595  0.00  0.00    +0.000 C 
BRANCH  42  43
ATOM     43  C   UNL     1      -6.993  -5.465 135.765  0.00  0.00    +0.000 C 
ATOM     44  O   UNL     1      -6.884  -6.270 136.690  0.00  0.00    +0.000 OA
ATOM     45  N   UNL     1      -8.043  -4.569 135.697  0.00  0.00    +0.000 N 
ATOM     46  H   UNL     1      -8.107  -3.940 134.916  0.00  0.00    +0.000 HD
BRANCH  45  47
ATOM     47  C   UNL     1      -9.073  -4.493 136.736  0.00  0.00    +0.000 C 
BRANCH  47  48
ATOM     48  C   UNL     1      -9.368  -3.082 137.280  0.00  0.00    +0.000 C 
ATOM     49  N   UNL     1     -10.670  -2.754 137.545  0.00  0.00    +0.000 N 
ATOM     50  O   UNL     1      -8.481  -2.255 137.483  0.00  0.00    +0.000 OA
ATOM     51  H   UNL     1     -11.468  -3.348 137.418  0.00  0.00    +0.000 HD
ATOM     52  H   UNL     1     -10.859  -1.825 137.902  0.00  0.00    +0.000 HD
ENDBRANCH  47  48
ENDBRANCH  45  47
ENDBRANCH  42  43
BRANCH  42  53
ATOM     53  C   UNL     1      -4.551  -5.095 135.208  0.00  0.00    +0.000 C 
BRANCH  53  54
ATOM     54  C   UNL     1      -3.392  -5.899 134.629  0.00  0.00    +0.000 C 
ATOM     55  C   UNL     1      -2.605  -5.064 133.686  0.00  0.00    +0.000 C 
ATOM     56  C   UNL     1      -2.289  -6.260 135.580  0.00  0.00    +0.000 C 
ENDBRANCH  53  54
ENDBRANCH  42  53
ENDBRANCH  40  42
ENDBRANCH  37  38
ENDBRANCH  14  31
BRANCH   1  57
ATOM     57  C   UNL     1      -6.310   6.387 137.195  0.00  0.00    +0.000 C 
ATOM     58  C   UNL     1      -7.045   5.565 138.444  0.00  0.00    +0.000 C 
BRANCH  57  60
ATOM     59  C   UNL     1      -7.920   8.319 137.524  0.00  0.00    +0.000 C 
ATOM     60  C   UNL     1      -7.752   6.826 136.722  0.00  0.00    +0.000 C 
ENDBRANCH  57  60
ENDBRANCH   1  57
BRANCH  18  61
ATOM     61  C   UNL     1      -3.960   3.569 133.144  0.00  0.00    +0.000 C 
BRANCH  61  62
ATOM     62  C   UNL     1      -2.645   2.849 133.220  0.00  0.00    +0.000 C 
ATOM     63  N   UNL     1      -1.550   3.612 132.901  0.00  0.00    +0.000 N 
ATOM     64  O   UNL     1      -2.469   1.636 133.219  0.00  0.00    +0.000 OA
ATOM     65  H   UNL     1      -1.719   4.357 132.234  0.00  0.00    +0.000 HD
ATOM     66  H   UNL     1      -0.898   3.019 132.387  0.00  0.00    +0.000 HD
ENDBRANCH  61  62
ENDBRANCH  18  61
BRANCH   5  67
ATOM     67  C   UNL     1      -6.209   6.499 130.887  0.00  0.00    +0.000 C 
BRANCH  67  68
ATOM     68  C   UNL     1      -7.529   6.312 131.584  0.00  0.00    +0.000 A 
ATOM     69  C   UNL     1      -8.549   6.732 130.940  0.00  0.00    +0.000 A 
ATOM     70  C   UNL     1     -10.053   6.544 131.213  0.00  0.00    +0.000 A 
ATOM     71  C   UNL     1     -10.713   6.237 132.269  0.00  0.00    +0.000 A 
ATOM     72  C   UNL     1      -9.694   5.908 133.065  0.00  0.00    +0.000 A 
ATOM     73  C   UNL     1      -8.158   5.909 132.710  0.00  0.00    +0.000 A 
BRANCH  71  74
ATOM     74  O   UNL     1     -12.033   6.452 132.146  0.00  0.00    +0.000 OA
ATOM     75  C   UNL     1     -12.261   6.995 130.898  0.00  0.00    +0.000 C 
ENDBRANCH  71  74
ENDBRANCH  67  68
ENDBRANCH   5  67
BRANCH  22  76
ATOM     76  C   UNL     1      -4.106   3.904 137.789  0.00  0.00    +0.000 C 
BRANCH  76  77
ATOM     77  C   UNL     1      -2.838   3.482 138.512  0.00  0.00    +0.000 C 
BRANCH  77  78
ATOM     78  C   UNL     1      -2.435   2.137 138.872  0.00  0.00    +0.000 C 
ATOM     79  N   UNL     1      -2.741   1.368 137.831  0.00  0.00    +0.000 N 
ATOM     80  O   UNL     1      -1.781   1.838 139.858  0.00  0.00    +0.000 OA
ATOM     81  H   UNL     1      -3.228   1.786 137.054  0.00  0.00    +0.000 HD
ATOM     82  H   UNL     1      -2.448   0.423 137.874  0.00  0.00    +0.000 HD
ENDBRANCH  77  78
ENDBRANCH  76  77
ENDBRANCH  22  76
TORSDOF 18
ENDMDL
MODEL 5
REMARK VINA RESULT:      -8.0      3.357      9.282
REMARK  Name = CHEMBL3301668
REMARK  23 active torsions:
REMARK  status: ('A' for Active; 'I' for Inactive)
REMARK    1  A    between atoms: C_1  and  C_2
REMARK    2  A    between atoms: C_2  and  C_3
REMARK    3  A    between atoms: C_3  and  C_4
REMARK    4  A    between atoms: C_3  and  C_5
REMARK    5  A    between atoms: C_9  and  C_10
REMARK    6  A    between atoms: C_10  and  C_11
REMARK    7  A    between atoms: C_14  and  O_15
REMARK    8  A    between atoms: O_15  and  C_16
REMARK    9  A    between atoms: C_27  and  C_28
REMARK   10  A    between atoms: C_34  and  C_35
REMARK   11  A    between atoms: N_37  and  C_38
REMARK   12  A    between atoms: C_38  and  C_39
REMARK   13  A    between atoms: C_38  and  C_43
REMARK   14  A    between atoms: C_39  and  C_40
REMARK   15  A    between atoms: C_40  and  C_41
REMARK   16  A    between atoms: C_40  and  C_42
REMARK   17  A    between atoms: N_45  and  C_46
REMARK   18  A    between atoms: C_46  and  C_47
REMARK   19  A    between atoms: C_53  and  C_54
REMARK   20  A    between atoms: C_54  and  C_55
REMARK   21  A    between atoms: C_61  and  C_62
REMARK   22  A    between atoms: C_62  and  C_63
REMARK   23  A    between atoms: C_63  and  C_64
REMARK                            x       y       z     vdW  Elec       q    Type
REMARK                         _______ _______ _______ _____ _____    ______ ____
ROOT
ATOM      1  C   UNL     1      -5.524  -1.453 129.241  0.00  0.00    +0.000 C 
ATOM      2  N   UNL     1      -6.823  -0.035 128.798  0.00  0.00    +0.000 N 
ATOM      3  C   UNL     1      -7.349   1.359 128.353  0.00  0.00    +0.000 C 
ATOM      4  O   UNL     1      -8.563   1.655 128.564  0.00  0.00    +0.000 OA
ATOM      5  C   UNL     1      -6.597   2.600 127.529  0.00  0.00    +0.000 C 
ATOM      6  N   UNL     1      -7.554   3.235 126.544  0.00  0.00    +0.000 N 
ATOM      7  C   UNL     1      -8.348   4.360 126.624  0.00  0.00    +0.000 C 
ATOM      8  O   UNL     1      -8.876   4.775 125.582  0.00  0.00    +0.000 OA
ATOM      9  C   UNL     1      -8.597   5.171 127.917  0.00  0.00    +0.000 C 
ATOM     10  C   UNL     1      -8.004   4.685 129.201  0.00  0.00    +0.000 C 
ATOM     11  C   UNL     1      -8.223   5.492 130.452  0.00  0.00    +0.000 C 
ATOM     12  S   UNL     1      -6.780   5.307 131.537  0.00  0.00    +0.000 S 
ATOM     13  C   UNL     1      -7.380   5.108 133.215  0.00  0.00    +0.000 C 
ATOM     14  C   UNL     1      -6.512   4.447 134.277  0.00  0.00    +0.000 C 
ATOM     15  N   UNL     1      -6.998   3.085 134.537  0.00  0.00    +0.000 N 
ATOM     16  C   UNL     1      -6.809   2.068 133.729  0.00  0.00    +0.000 C 
ATOM     17  O   UNL     1      -6.763   0.921 134.158  0.00  0.00    +0.000 OA
ATOM     18  C   UNL     1      -6.852   2.420 132.317  0.00  0.00    +0.000 C 
ATOM     19  N   UNL     1      -6.063   1.374 131.980  0.00  0.00    +0.000 N 
ATOM     20  C   UNL     1      -6.181   0.127 131.607  0.00  0.00    +0.000 C 
ATOM     21  O   UNL     1      -5.615  -0.091 130.707  0.00  0.00    +0.000 OA
ATOM     22  C   UNL     1      -6.971  -1.041 131.721  0.00  0.00    +0.000 C 
ATOM     23  N   UNL     1      -7.498  -1.831 130.547  0.00  0.00    +0.000 N 
ATOM     24  C   UNL     1      -6.732  -2.304 129.493  0.00  0.00    +0.000 C 
ATOM     25  O   UNL     1      -7.139  -2.996 128.549  0.00  0.00    +0.000 OA
ATOM     26  H   UNL     1      -7.807  -0.122 129.156  0.00  0.00    +0.000 HD
ATOM     27  H   UNL     1      -7.497   2.859 125.602  0.00  0.00    +0.000 HD
ATOM     28  H   UNL     1      -7.130   2.739 135.480  0.00  0.00    +0.000 HD
ATOM     29  H   UNL     1      -5.588   1.867 131.302  0.00  0.00    +0.000 HD
ATOM     30  H   UNL     1      -8.081  -1.194 130.048  0.00  0.00    +0.000 HD
ENDROOT
BRANCH  14  31
ATOM     31  C   UNL     1      -6.568   5.129 135.645  0.00  0.00    +0.000 C 
ATOM     32  O   UNL     1      -7.681   5.592 135.906  0.00  0.00    +0.000 OA
ATOM     33  N   UNL     1      -5.499   4.991 136.534  0.00  0.00    +0.000 N 
ATOM     34  C   UNL     1      -4.086   5.087 136.240  0.00  0.00    +0.000 C 
ATOM     35  C   UNL     1      -3.488   4.058 137.153  0.00  0.00    +0.000 C 
ATOM     36  C   UNL     1      -4.210   4.317 138.446  0.00  0.00    +0.000 C 
ATOM     37  C   UNL     1      -5.568   4.893 138.032  0.00  0.00    +0.000 C 
BRANCH  37  38
ATOM     38  C   UNL     1      -5.482   6.255 138.818  0.00  0.00    +0.000 C 
ATOM     39  O   UNL     1      -4.560   6.463 139.608  0.00  0.00    +0.000 OA
ATOM     40  N   UNL     1      -6.387   7.255 138.420  0.00  0.00    +0.000 N 
ATOM     41  H   UNL     1      -7.216   7.031 137.872  0.00  0.00    +0.000 HD
BRANCH  40  42
ATOM     42  C   UNL     1      -6.086   8.709 138.574  0.00  0.00    +0.000 C 
BRANCH  42  43
ATOM     43  C   UNL     1      -7.428   9.504 138.667  0.00  0.00    +0.000 C 
ATOM     44  O   UNL     1      -7.442  10.733 138.731  0.00  0.00    +0.000 OA
ATOM     45  N   UNL     1      -8.591   8.757 138.694  0.00  0.00    +0.000 N 
ATOM     46  H   UNL     1      -8.536   7.755 138.657  0.00  0.00    +0.000 HD
BRANCH  45  47
ATOM     47  C   UNL     1      -9.915   9.379 138.763  0.00  0.00    +0.000 C 
BRANCH  47  48
ATOM     48  C   UNL     1     -10.902   8.971 137.651  0.00  0.00    +0.000 C 
ATOM     49  N   UNL     1     -10.404   8.762 136.394  0.00  0.00    +0.000 N 
ATOM     50  O   UNL     1     -12.105   8.829 137.858  0.00  0.00    +0.000 OA
ATOM     51  H   UNL     1      -9.445   8.849 136.114  0.00  0.00    +0.000 HD
ATOM     52  H   UNL     1     -11.057   8.494 135.667  0.00  0.00    +0.000 HD
ENDBRANCH  47  48
ENDBRANCH  45  47
ENDBRANCH  42  43
BRANCH  42  53
ATOM     53  C   UNL     1      -5.225   9.349 137.428  0.00  0.00    +0.000 C 
BRANCH  53  54
ATOM     54  C   UNL     1      -3.746   9.524 137.753  0.00  0.00    +0.000 C 
ATOM     55  C   UNL     1      -2.917   8.667 136.868  0.00  0.00    +0.000 C 
ATOM     56  C   UNL     1      -3.140  10.852 137.408  0.00  0.00    +0.000 C 
ENDBRANCH  53  54
ENDBRANCH  42  53
ENDBRANCH  40  42
ENDBRANCH  37  38
ENDBRANCH  14  31
BRANCH   1  57
ATOM     57  C   UNL     1      -4.222  -1.613 130.725  0.00  0.00    +0.000 C 
ATOM     58  C   UNL     1      -3.397  -1.274 132.133  0.00  0.00    +0.000 C 
BRANCH  57  60
ATOM     59  C   UNL     1      -3.102  -3.503 129.458  0.00  0.00    +0.000 C 
ATOM     60  C   UNL     1      -3.842  -3.131 130.946  0.00  0.00    +0.000 C 
ENDBRANCH  57  60
ENDBRANCH   1  57
BRANCH  18  61
ATOM     61  C   UNL     1      -7.897   2.397 131.256  0.00  0.00    +0.000 C 
BRANCH  61  62
ATOM     62  C   UNL     1      -9.261   2.008 131.748  0.00  0.00    +0.000 C 
ATOM     63  N   UNL     1      -9.955   3.010 132.378  0.00  0.00    +0.000 N 
ATOM     64  O   UNL     1      -9.680   0.871 131.930  0.00  0.00    +0.000 OA
ATOM     65  H   UNL     1      -9.385   3.697 132.859  0.00  0.00    +0.000 HD
ATOM     66  H   UNL     1     -10.469   2.591 133.153  0.00  0.00    +0.000 HD
ENDBRANCH  61  62
ENDBRANCH  18  61
BRANCH   5  67
ATOM     67  C   UNL     1      -5.553   3.888 127.936  0.00  0.00    +0.000 C 
BRANCH  67  68
ATOM     68  C   UNL     1      -4.615   3.868 129.111  0.00  0.00    +0.000 A 
ATOM     69  C   UNL     1      -3.930   4.934 129.280  0.00  0.00    +0.000 A 
ATOM     70  C   UNL     1      -3.035   5.375 130.452  0.00  0.00    +0.000 A 
ATOM     71  C   UNL     1      -2.454   4.726 131.394  0.00  0.00    +0.000 A 
ATOM     72  C   UNL     1      -3.019   3.533 131.206  0.00  0.00    +0.000 A 
ATOM     73  C   UNL     1      -4.095   3.138 130.123  0.00  0.00    +0.000 A 
BRANCH  71  74
ATOM     74  O   UNL     1      -1.537   5.456 132.049  0.00  0.00    +0.000 OA
ATOM     75  C   UNL     1      -1.669   6.769 131.643  0.00  0.00    +0.000 C 
ENDBRANCH  71  74
ENDBRANCH  67  68
ENDBRANCH   5  67
BRANCH  22  76
ATOM     76  C   UNL     1      -6.756  -1.793 132.944  0.00  0.00    +0.000 C 
BRANCH  76  77
ATOM     77  C   UNL     1      -7.287  -3.215 133.000  0.00  0.00    +0.000 C 
BRANCH  77  78
ATOM     78  C   UNL     1      -7.603  -3.992 134.182  0.00  0.00    +0.000 C 
ATOM     79  N   UNL     1      -8.795  -3.568 134.594  0.00  0.00    +0.000 N 
ATOM     80  O   UNL     1      -6.973  -4.957 134.580  0.00  0.00    +0.000 OA
ATOM     81  H   UNL     1      -9.221  -2.793 134.111  0.00  0.00    +0.000 HD
ATOM     82  H   UNL     1      -9.206  -4.061 135.348  0.00  0.00    +0.000 HD
ENDBRANCH  77  78
ENDBRANCH  76  77
ENDBRANCH  22  76
TORSDOF 18
ENDMDL
MODEL 6
REMARK VINA RESULT:      -8.0      2.512      5.122
REMARK  Name = CHEMBL3301668
REMARK  23 active torsions:
REMARK  status: ('A' for Active; 'I' for Inactive)
REMARK    1  A    between atoms: C_1  and  C_2
REMARK    2  A    between atoms: C_2  and  C_3
REMARK    3  A    between atoms: C_3  and  C_4
REMARK    4  A    between atoms: C_3  and  C_5
REMARK    5  A    between atoms: C_9  and  C_10
REMARK    6  A    between atoms: C_10  and  C_11
REMARK    7  A    between atoms: C_14  and  O_15
REMARK    8  A    between atoms: O_15  and  C_16
REMARK    9  A    between atoms: C_27  and  C_28
REMARK   10  A    between atoms: C_34  and  C_35
REMARK   11  A    between atoms: N_37  and  C_38
REMARK   12  A    between atoms: C_38  and  C_39
REMARK   13  A    between atoms: C_38  and  C_43
REMARK   14  A    between atoms: C_39  and  C_40
REMARK   15  A    between atoms: C_40  and  C_41
REMARK   16  A    between atoms: C_40  and  C_42
REMARK   17  A    between atoms: N_45  and  C_46
REMARK   18  A    between atoms: C_46  and  C_47
REMARK   19  A    between atoms: C_53  and  C_54
REMARK   20  A    between atoms: C_54  and  C_55
REMARK   21  A    between atoms: C_61  and  C_62
REMARK   22  A    between atoms: C_62  and  C_63
REMARK   23  A    between atoms: C_63  and  C_64
REMARK                            x       y       z     vdW  Elec       q    Type
REMARK                         _______ _______ _______ _____ _____    ______ ____
ROOT
ATOM      1  C   UNL     1      -6.936   3.797 126.558  0.00  0.00    +0.000 C 
ATOM      2  N   UNL     1      -8.165   3.922 128.098  0.00  0.00    +0.000 N 
ATOM      3  C   UNL     1      -8.722   4.392 129.471  0.00  0.00    +0.000 C 
ATOM      4  O   UNL     1      -9.654   3.731 130.016  0.00  0.00    +0.000 OA
ATOM      5  C   UNL     1      -8.359   5.732 130.397  0.00  0.00    +0.000 C 
ATOM      6  N   UNL     1      -9.616   6.295 131.025  0.00  0.00    +0.000 N 
ATOM      7  C   UNL     1     -10.176   6.130 132.274  0.00  0.00    +0.000 C 
ATOM      8  O   UNL     1     -11.104   6.885 132.601  0.00  0.00    +0.000 OA
ATOM      9  C   UNL     1      -9.703   5.095 133.321  0.00  0.00    +0.000 C 
ATOM     10  C   UNL     1      -8.608   4.144 132.954  0.00  0.00    +0.000 C 
ATOM     11  C   UNL     1      -8.130   3.157 133.985  0.00  0.00    +0.000 C 
ATOM     12  S   UNL     1      -6.363   2.834 133.720  0.00  0.00    +0.000 S 
ATOM     13  C   UNL     1      -6.095   1.071 133.917  0.00  0.00    +0.000 C 
ATOM     14  C   UNL     1      -4.881   0.396 133.293  0.00  0.00    +0.000 C 
ATOM     15  N   UNL     1      -5.293  -0.366 132.106  0.00  0.00    +0.000 N 
ATOM     16  C   UNL     1      -5.603   0.177 130.952  0.00  0.00    +0.000 C 
ATOM     17  O   UNL     1      -5.451  -0.439 129.903  0.00  0.00    +0.000 OA
ATOM     18  C   UNL     1      -6.290   1.455 131.066  0.00  0.00    +0.000 C 
ATOM     19  N   UNL     1      -5.852   1.857 129.851  0.00  0.00    +0.000 N 
ATOM     20  C   UNL     1      -6.238   1.833 128.603  0.00  0.00    +0.000 C 
ATOM     21  O   UNL     1      -6.196   2.813 128.138  0.00  0.00    +0.000 OA
ATOM     22  C   UNL     1      -6.969   1.105 127.636  0.00  0.00    +0.000 C 
ATOM     23  N   UNL     1      -8.060   1.691 126.772  0.00  0.00    +0.000 N 
ATOM     24  C   UNL     1      -7.939   2.834 125.998  0.00  0.00    +0.000 C 
ATOM     25  O   UNL     1      -8.807   3.301 125.246  0.00  0.00    +0.000 OA
ATOM     26  H   UNL     1      -8.858   3.148 128.254  0.00  0.00    +0.000 HD
ATOM     27  H   UNL     1     -10.051   7.044 130.494  0.00  0.00    +0.000 HD
ATOM     28  H   UNL     1      -4.983  -1.318 131.952  0.00  0.00    +0.000 HD
ATOM     29  H   UNL     1      -5.723   2.771 130.129  0.00  0.00    +0.000 HD
ATOM     30  H   UNL     1      -8.756   2.006 127.414  0.00  0.00    +0.000 HD
ENDROOT
BRANCH  14  31
ATOM     31  C   UNL     1      -4.215  -0.647 134.191  0.00  0.00    +0.000 C 
ATOM     32  O   UNL     1      -3.532  -1.459 133.561  0.00  0.00    +0.000 OA
ATOM     33  N   UNL     1      -4.238  -0.485 135.579  0.00  0.00    +0.000 N 
ATOM     34  C   UNL     1      -5.357  -0.090 136.404  0.00  0.00    +0.000 C 
ATOM     35  C   UNL     1      -4.707   0.747 137.466  0.00  0.00    +0.000 C 
ATOM     36  C   UNL     1      -3.500  -0.073 137.828  0.00  0.00    +0.000 C 
ATOM     37  C   UNL     1      -3.159  -0.857 136.557  0.00  0.00    +0.000 C 
BRANCH  37  38
ATOM     38  C   UNL     1      -3.246  -2.310 137.160  0.00  0.00    +0.000 C 
ATOM     39  O   UNL     1      -3.395  -2.475 138.371  0.00  0.00    +0.000 OA
ATOM     40  N   UNL     1      -3.336  -3.360 136.229  0.00  0.00    +0.000 N 
ATOM     41  H   UNL     1      -3.081  -3.224 135.253  0.00  0.00    +0.000 HD
BRANCH  40  42
ATOM     42  C   UNL     1      -4.013  -4.651 136.548  0.00  0.00    +0.000 C 
BRANCH  42  43
ATOM     43  C   UNL     1      -4.436  -5.352 135.216  0.00  0.00    +0.000 C 
ATOM     44  O   UNL     1      -4.660  -6.561 135.171  0.00  0.00    +0.000 OA
ATOM     45  N   UNL     1      -4.527  -4.550 134.095  0.00  0.00    +0.000 N 
ATOM     46  H   UNL     1      -4.319  -3.569 134.170  0.00  0.00    +0.000 HD
BRANCH  45  47
ATOM     47  C   UNL     1      -4.929  -5.078 132.789  0.00  0.00    +0.000 C 
BRANCH  47  48
ATOM     48  C   UNL     1      -4.656  -4.156 131.584  0.00  0.00    +0.000 C 
ATOM     49  N   UNL     1      -3.409  -3.604 131.466  0.00  0.00    +0.000 N 
ATOM     50  O   UNL     1      -5.512  -3.906 130.738  0.00  0.00    +0.000 OA
ATOM     51  H   UNL     1      -2.639  -3.740 132.094  0.00  0.00    +0.000 HD
ATOM     52  H   UNL     1      -3.235  -2.999 130.672  0.00  0.00    +0.000 HD
ENDBRANCH  47  48
ENDBRANCH  45  47
ENDBRANCH  42  43
BRANCH  42  53
ATOM     53  C   UNL     1      -5.285  -4.544 137.461  0.00  0.00    +0.000 C 
BRANCH  53  54
ATOM     54  C   UNL     1      -6.459  -3.790 136.846  0.00  0.00    +0.000 C 
ATOM     55  C   UNL     1      -7.612  -4.704 136.643  0.00  0.00    +0.000 C 
ATOM     56  C   UNL     1      -7.132  -2.774 137.722  0.00  0.00    +0.000 C 
ENDBRANCH  53  54
ENDBRANCH  42  53
ENDBRANCH  40  42
ENDBRANCH  37  38
ENDBRANCH  14  31
BRANCH   1  57
ATOM     57  C   UNL     1      -5.098   3.072 126.410  0.00  0.00    +0.000 C 
ATOM     58  C   UNL     1      -3.852   1.989 126.186  0.00  0.00    +0.000 C 
BRANCH  57  60
ATOM     59  C   UNL     1      -3.859   5.056 127.391  0.00  0.00    +0.000 C 
ATOM     60  C   UNL     1      -4.108   4.209 125.935  0.00  0.00    +0.000 C 
ENDBRANCH  57  60
ENDBRANCH   1  57
BRANCH  18  61
ATOM     61  C   UNL     1      -7.715   1.890 131.060  0.00  0.00    +0.000 C 
BRANCH  61  62
ATOM     62  C   UNL     1      -8.696   0.778 131.296  0.00  0.00    +0.000 C 
ATOM     63  N   UNL     1      -9.944   1.184 131.696  0.00  0.00    +0.000 N 
ATOM     64  O   UNL     1      -8.436  -0.406 131.477  0.00  0.00    +0.000 OA
ATOM     65  H   UNL     1      -9.970   2.047 132.228  0.00  0.00    +0.000 HD
ATOM     66  H   UNL     1     -10.285   0.509 132.382  0.00  0.00    +0.000 HD
ENDBRANCH  61  62
ENDBRANCH  18  61
BRANCH   5  67
ATOM     67  C   UNL     1      -7.145   6.156 131.521  0.00  0.00    +0.000 C 
BRANCH  67  68
ATOM     68  C   UNL     1      -5.762   6.602 131.133  0.00  0.00    +0.000 A 
ATOM     69  C   UNL     1      -4.808   5.903 131.619  0.00  0.00    +0.000 A 
ATOM     70  C   UNL     1      -3.301   5.909 131.304  0.00  0.00    +0.000 A 
ATOM     71  C   UNL     1      -2.530   6.778 130.762  0.00  0.00    +0.000 A 
ATOM     72  C   UNL     1      -3.454   7.640 130.334  0.00  0.00    +0.000 A 
ATOM     73  C   UNL     1      -5.019   7.525 130.483  0.00  0.00    +0.000 A 
BRANCH  71  74
ATOM     74  O   UNL     1      -1.226   6.503 130.928  0.00  0.00    +0.000 OA
ATOM     75  C   UNL     1      -0.980   6.414 132.283  0.00  0.00    +0.000 C 
ENDBRANCH  71  74
ENDBRANCH  67  68
ENDBRANCH   5  67
BRANCH  22  76
ATOM     76  C   UNL     1      -6.256  -0.026 127.072  0.00  0.00    +0.000 C 
BRANCH  76  77
ATOM     77  C   UNL     1      -7.080  -1.173 126.513  0.00  0.00    +0.000 C 
BRANCH  77  78
ATOM     78  C   UNL     1      -7.516  -2.367 127.208  0.00  0.00    +0.000 C 
ATOM     79  N   UNL     1      -6.700  -2.506 128.250  0.00  0.00    +0.000 N 
ATOM     80  O   UNL     1      -8.538  -2.988 126.970  0.00  0.00    +0.000 OA
ATOM     81  H   UNL     1      -5.931  -1.862 128.344  0.00  0.00    +0.000 HD
ATOM     82  H   UNL     1      -6.914  -3.231 128.890  0.00  0.00    +0.000 HD
ENDBRANCH  77  78
ENDBRANCH  76  77
ENDBRANCH  22  76
TORSDOF 18
ENDMDL
MODEL 7
REMARK VINA RESULT:      -7.4      3.874      8.944
REMARK  Name = CHEMBL3301668
REMARK  23 active torsions:
REMARK  status: ('A' for Active; 'I' for Inactive)
REMARK    1  A    between atoms: C_1  and  C_2
REMARK    2  A    between atoms: C_2  and  C_3
REMARK    3  A    between atoms: C_3  and  C_4
REMARK    4  A    between atoms: C_3  and  C_5
REMARK    5  A    between atoms: C_9  and  C_10
REMARK    6  A    between atoms: C_10  and  C_11
REMARK    7  A    between atoms: C_14  and  O_15
REMARK    8  A    between atoms: O_15  and  C_16
REMARK    9  A    between atoms: C_27  and  C_28
REMARK   10  A    between atoms: C_34  and  C_35
REMARK   11  A    between atoms: N_37  and  C_38
REMARK   12  A    between atoms: C_38  and  C_39
REMARK   13  A    between atoms: C_38  and  C_43
REMARK   14  A    between atoms: C_39  and  C_40
REMARK   15  A    between atoms: C_40  and  C_41
REMARK   16  A    between atoms: C_40  and  C_42
REMARK   17  A    between atoms: N_45  and  C_46
REMARK   18  A    between atoms: C_46  and  C_47
REMARK   19  A    between atoms: C_53  and  C_54
REMARK   20  A    between atoms: C_54  and  C_55
REMARK   21  A    between atoms: C_61  and  C_62
REMARK   22  A    between atoms: C_62  and  C_63
REMARK   23  A    between atoms: C_63  and  C_64
REMARK                            x       y       z     vdW  Elec       q    Type
REMARK                         _______ _______ _______ _____ _____    ______ ____
ROOT
ATOM      1  C   UNL     1      -4.863  -0.086 137.647  0.00  0.00    +0.000 C 
ATOM      2  N   UNL     1      -4.167   1.627 136.958  0.00  0.00    +0.000 N 
ATOM      3  C   UNL     1      -4.148   3.136 136.582  0.00  0.00    +0.000 C 
ATOM      4  O   UNL     1      -3.237   3.567 135.816  0.00  0.00    +0.000 OA
ATOM      5  C   UNL     1      -5.116   4.400 137.084  0.00  0.00    +0.000 C 
ATOM      6  N   UNL     1      -4.287   5.650 137.285  0.00  0.00    +0.000 N 
ATOM      7  C   UNL     1      -4.046   6.737 136.471  0.00  0.00    +0.000 C 
ATOM      8  O   UNL     1      -3.498   7.730 136.972  0.00  0.00    +0.000 OA
ATOM      9  C   UNL     1      -4.449   6.826 134.980  0.00  0.00    +0.000 C 
ATOM     10  C   UNL     1      -5.082   5.638 134.330  0.00  0.00    +0.000 C 
ATOM     11  C   UNL     1      -5.500   5.738 132.887  0.00  0.00    +0.000 C 
ATOM     12  S   UNL     1      -6.962   4.696 132.620  0.00  0.00    +0.000 S 
ATOM     13  C   UNL     1      -6.742   3.836 131.062  0.00  0.00    +0.000 C 
ATOM     14  C   UNL     1      -7.499   2.547 130.773  0.00  0.00    +0.000 C 
ATOM     15  N   UNL     1      -6.589   1.400 130.893  0.00  0.00    +0.000 N 
ATOM     16  C   UNL     1      -6.164   0.911 132.035  0.00  0.00    +0.000 C 
ATOM     17  O   UNL     1      -5.852  -0.269 132.140  0.00  0.00    +0.000 OA
ATOM     18  C   UNL     1      -5.937   1.920 133.060  0.00  0.00    +0.000 C 
ATOM     19  N   UNL     1      -6.144   1.028 134.056  0.00  0.00    +0.000 N 
ATOM     20  C   UNL     1      -5.458   0.205 134.804  0.00  0.00    +0.000 C 
ATOM     21  O   UNL     1      -5.664   0.336 135.861  0.00  0.00    +0.000 OA
ATOM     22  C   UNL     1      -4.321  -0.635 134.851  0.00  0.00    +0.000 C 
ATOM     23  N   UNL     1      -3.265  -0.581 135.930  0.00  0.00    +0.000 N 
ATOM     24  C   UNL     1      -3.512  -0.631 137.293  0.00  0.00    +0.000 C 
ATOM     25  O   UNL     1      -2.656  -0.638 138.189  0.00  0.00    +0.000 OA
ATOM     26  H   UNL     1      -3.343   1.612 136.307  0.00  0.00    +0.000 HD
ATOM     27  H   UNL     1      -3.969   5.794 138.238  0.00  0.00    +0.000 HD
ATOM     28  H   UNL     1      -6.555   0.672 130.188  0.00  0.00    +0.000 HD
ATOM     29  H   UNL     1      -6.602   1.663 134.616  0.00  0.00    +0.000 HD
ATOM     30  H   UNL     1      -2.884   0.339 135.871  0.00  0.00    +0.000 HD
ENDROOT
BRANCH  14  31
ATOM     31  C   UNL     1      -8.039   2.445 129.345  0.00  0.00    +0.000 C 
ATOM     32  O   UNL     1      -9.271   2.394 129.299  0.00  0.00    +0.000 OA
ATOM     33  N   UNL     1      -7.176   2.631 128.262  0.00  0.00    +0.000 N 
ATOM     34  C   UNL     1      -5.845   2.094 128.089  0.00  0.00    +0.000 C 
ATOM     35  C   UNL     1      -5.130   3.205 127.379  0.00  0.00    +0.000 C 
ATOM     36  C   UNL     1      -6.131   3.619 126.337  0.00  0.00    +0.000 C 
ATOM     37  C   UNL     1      -7.496   3.281 126.945  0.00  0.00    +0.000 C 
BRANCH  37  38
ATOM     38  C   UNL     1      -8.016   2.321 125.810  0.00  0.00    +0.000 C 
ATOM     39  O   UNL     1      -9.214   2.052 125.720  0.00  0.00    +0.000 OA
ATOM     40  N   UNL     1      -7.077   1.966 124.825  0.00  0.00    +0.000 N 
ATOM     41  H   UNL     1      -6.078   2.081 124.980  0.00  0.00    +0.000 HD
BRANCH  40  42
ATOM     42  C   UNL     1      -7.480   1.617 123.430  0.00  0.00    +0.000 C 
BRANCH  42  43
ATOM     43  C   UNL     1      -7.598   0.064 123.304  0.00  0.00    +0.000 C 
ATOM     44  O   UNL     1      -6.616  -0.637 123.060  0.00  0.00    +0.000 OA
ATOM     45  N   UNL     1      -8.860  -0.477 123.461  0.00  0.00    +0.000 N 
ATOM     46  H   UNL     1      -9.640   0.131 123.643  0.00  0.00    +0.000 HD
BRANCH  45  47
ATOM     47  C   UNL     1      -9.106  -1.919 123.384  0.00  0.00    +0.000 C 
BRANCH  47  48
ATOM     48  C   UNL     1      -9.106  -2.668 124.731  0.00  0.00    +0.000 C 
ATOM     49  N   UNL     1      -8.220  -3.700 124.893  0.00  0.00    +0.000 N 
ATOM     50  O   UNL     1      -9.865  -2.371 125.651  0.00  0.00    +0.000 OA
ATOM     51  H   UNL     1      -7.559  -4.025 124.213  0.00  0.00    +0.000 HD
ATOM     52  H   UNL     1      -8.225  -4.189 125.780  0.00  0.00    +0.000 HD
ENDBRANCH  47  48
ENDBRANCH  45  47
ENDBRANCH  42  43
BRANCH  42  53
ATOM     53  C   UNL     1      -6.516   2.121 122.298  0.00  0.00    +0.000 C 
BRANCH  53  54
ATOM     54  C   UNL     1      -6.556   3.622 122.039  0.00  0.00    +0.000 C 
ATOM     55  C   UNL     1      -5.387   4.287 122.670  0.00  0.00    +0.000 C 
ATOM     56  C   UNL     1      -6.323   4.061 120.623  0.00  0.00    +0.000 C 
ENDBRANCH  53  54
ENDBRANCH  42  53
ENDBRANCH  40  42
ENDBRANCH  37  38
ENDBRANCH  14  31
BRANCH   1  57
ATOM     57  C   UNL     1      -6.303  -1.274 136.982  0.00  0.00    +0.000 C 
ATOM     58  C   UNL     1      -7.090  -2.431 136.078  0.00  0.00    +0.000 C 
BRANCH  57  60
ATOM     59  C   UNL     1      -6.353  -2.459 139.223  0.00  0.00    +0.000 C 
ATOM     60  C   UNL     1      -7.330  -1.576 138.144  0.00  0.00    +0.000 C 
ENDBRANCH  57  60
ENDBRANCH   1  57
BRANCH  18  61
ATOM     61  C   UNL     1      -4.752   2.682 133.544  0.00  0.00    +0.000 C 
BRANCH  61  62
ATOM     62  C   UNL     1      -3.538   2.547 132.671  0.00  0.00    +0.000 C 
ATOM     63  N   UNL     1      -2.445   1.987 133.283  0.00  0.00    +0.000 N 
ATOM     64  O   UNL     1      -3.316   3.143 131.623  0.00  0.00    +0.000 OA
ATOM     65  H   UNL     1      -2.375   2.151 134.281  0.00  0.00    +0.000 HD
ATOM     66  H   UNL     1      -1.615   2.468 132.936  0.00  0.00    +0.000 HD
ENDBRANCH  61  62
ENDBRANCH  18  61
BRANCH   5  67
ATOM     67  C   UNL     1      -6.647   5.019 136.655  0.00  0.00    +0.000 C 
BRANCH  67  68
ATOM     68  C   UNL     1      -7.346   6.122 137.403  0.00  0.00    +0.000 A 
ATOM     69  C   UNL     1      -8.020   6.930 136.678  0.00  0.00    +0.000 A 
ATOM     70  C   UNL     1      -9.015   8.036 137.071  0.00  0.00    +0.000 A 
ATOM     71  C   UNL     1      -9.207   8.687 138.160  0.00  0.00    +0.000 A 
ATOM     72  C   UNL     1      -8.415   7.980 138.968  0.00  0.00    +0.000 A 
ATOM     73  C   UNL     1      -7.550   6.714 138.601  0.00  0.00    +0.000 A 
BRANCH  71  74
ATOM     74  O   UNL     1      -9.992   9.764 138.000  0.00  0.00    +0.000 OA
ATOM     75  C   UNL     1      -9.861  10.555 139.123  0.00  0.00    +0.000 C 
ENDBRANCH  71  74
ENDBRANCH  67  68
ENDBRANCH   5  67
BRANCH  22  76
ATOM     76  C   UNL     1      -4.500  -1.923 134.207  0.00  0.00    +0.000 C 
BRANCH  76  77
ATOM     77  C   UNL     1      -3.371  -2.435 133.328  0.00  0.00    +0.000 C 
BRANCH  77  78
ATOM     78  C   UNL     1      -3.411  -2.695 131.903  0.00  0.00    +0.000 C 
ATOM     79  N   UNL     1      -3.337  -1.508 131.308  0.00  0.00    +0.000 N 
ATOM     80  O   UNL     1      -3.338  -3.797 131.386  0.00  0.00    +0.000 OA
ATOM     81  H   UNL     1      -3.339  -0.682 131.886  0.00  0.00    +0.000 HD
ATOM     82  H   UNL     1      -3.262  -1.508 130.321  0.00  0.00    +0.000 HD
ENDBRANCH  77  78
ENDBRANCH  76  77
ENDBRANCH  22  76
TORSDOF 18
ENDMDL
MODEL 8
REMARK VINA RESULT:      -7.4      4.211     10.328
REMARK  Name = CHEMBL3301668
REMARK  23 active torsions:
REMARK  status: ('A' for Active; 'I' for Inactive)
REMARK    1  A    between atoms: C_1  and  C_2
REMARK    2  A    between atoms: C_2  and  C_3
REMARK    3  A    between atoms: C_3  and  C_4
REMARK    4  A    between atoms: C_3  and  C_5
REMARK    5  A    between atoms: C_9  and  C_10
REMARK    6  A    between atoms: C_10  and  C_11
REMARK    7  A    between atoms: C_14  and  O_15
REMARK    8  A    between atoms: O_15  and  C_16
REMARK    9  A    between atoms: C_27  and  C_28
REMARK   10  A    between atoms: C_34  and  C_35
REMARK   11  A    between atoms: N_37  and  C_38
REMARK   12  A    between atoms: C_38  and  C_39
REMARK   13  A    between atoms: C_38  and  C_43
REMARK   14  A    between atoms: C_39  and  C_40
REMARK   15  A    between atoms: C_40  and  C_41
REMARK   16  A    between atoms: C_40  and  C_42
REMARK   17  A    between atoms: N_45  and  C_46
REMARK   18  A    between atoms: C_46  and  C_47
REMARK   19  A    between atoms: C_53  and  C_54
REMARK   20  A    between atoms: C_54  and  C_55
REMARK   21  A    between atoms: C_61  and  C_62
REMARK   22  A    between atoms: C_62  and  C_63
REMARK   23  A    between atoms: C_63  and  C_64
REMARK                            x       y       z     vdW  Elec       q    Type
REMARK                         _______ _______ _______ _____ _____    ______ ____
ROOT
ATOM      1  C   UNL     1      -6.565  -0.807 131.912  0.00  0.00    +0.000 C 
ATOM      2  N   UNL     1      -7.612   0.857 132.077  0.00  0.00    +0.000 N 
ATOM      3  C   UNL     1      -8.293   2.188 131.649  0.00  0.00    +0.000 C 
ATOM      4  O   UNL     1      -8.692   2.990 132.544  0.00  0.00    +0.000 OA
ATOM      5  C   UNL     1      -8.696   2.774 130.139  0.00  0.00    +0.000 C 
ATOM      6  N   UNL     1     -10.035   3.477 130.187  0.00  0.00    +0.000 N 
ATOM      7  C   UNL     1     -10.374   4.808 130.309  0.00  0.00    +0.000 C 
ATOM      8  O   UNL     1     -11.553   5.130 130.101  0.00  0.00    +0.000 OA
ATOM      9  C   UNL     1      -9.379   5.942 130.646  0.00  0.00    +0.000 C 
ATOM     10  C   UNL     1      -7.954   5.591 130.935  0.00  0.00    +0.000 C 
ATOM     11  C   UNL     1      -6.981   6.700 131.234  0.00  0.00    +0.000 C 
ATOM     12  S   UNL     1      -5.336   6.221 130.634  0.00  0.00    +0.000 S 
ATOM     13  C   UNL     1      -4.139   6.703 131.880  0.00  0.00    +0.000 C 
ATOM     14  C   UNL     1      -2.773   6.032 131.946  0.00  0.00    +0.000 C 
ATOM     15  N   UNL     1      -2.737   5.092 133.075  0.00  0.00    +0.000 N 
ATOM     16  C   UNL     1      -3.329   3.920 133.080  0.00  0.00    +0.000 C 
ATOM     17  O   UNL     1      -2.897   2.997 133.759  0.00  0.00    +0.000 OA
ATOM     18  C   UNL     1      -4.601   3.900 132.372  0.00  0.00    +0.000 C 
ATOM     19  N   UNL     1      -4.493   2.577 132.112  0.00  0.00    +0.000 N 
ATOM     20  C   UNL     1      -4.841   1.434 132.642  0.00  0.00    +0.000 C 
ATOM     21  O   UNL     1      -5.357   0.791 131.936  0.00  0.00    +0.000 OA
ATOM     22  C   UNL     1      -5.082   0.752 133.857  0.00  0.00    +0.000 C 
ATOM     23  N   UNL     1      -6.343  -0.021 134.165  0.00  0.00    +0.000 N 
ATOM     24  C   UNL     1      -6.892  -1.007 133.361  0.00  0.00    +0.000 C 
ATOM     25  O   UNL     1      -7.896  -1.685 133.622  0.00  0.00    +0.000 OA
ATOM     26  H   UNL     1      -7.762   1.266 133.033  0.00  0.00    +0.000 HD
ATOM     27  H   UNL     1     -10.826   2.890 129.937  0.00  0.00    +0.000 HD
ATOM     28  H   UNL     1      -1.960   5.074 133.725  0.00  0.00    +0.000 HD
ATOM     29  H   UNL     1      -4.877   2.652 131.232  0.00  0.00    +0.000 HD
ATOM     30  H   UNL     1      -7.077   0.652 134.117  0.00  0.00    +0.000 HD
ENDROOT
BRANCH  14  31
ATOM     31  C   UNL     1      -1.617   6.992 132.225  0.00  0.00    +0.000 C 
ATOM     32  O   UNL     1      -0.716   6.918 131.384  0.00  0.00    +0.000 OA
ATOM     33  N   UNL     1      -1.752   7.975 133.209  0.00  0.00    +0.000 N 
ATOM     34  C   UNL     1      -2.310   7.829 134.535  0.00  0.00    +0.000 C 
ATOM     35  C   UNL     1      -3.006   9.140 134.748  0.00  0.00    +0.000 C 
ATOM     36  C   UNL     1      -1.990  10.129 134.247  0.00  0.00    +0.000 C 
ATOM     37  C   UNL     1      -1.187   9.368 133.188  0.00  0.00    +0.000 C 
BRANCH  37  38
ATOM     38  C   UNL     1       0.243   9.542 133.824  0.00  0.00    +0.000 C 
ATOM     39  O   UNL     1       1.149  10.082 133.186  0.00  0.00    +0.000 OA
ATOM     40  N   UNL     1       0.353   9.229 135.190  0.00  0.00    +0.000 N 
ATOM     41  H   UNL     1      -0.353   8.667 135.662  0.00  0.00    +0.000 HD
BRANCH  40  42
ATOM     42  C   UNL     1       1.368   9.872 136.075  0.00  0.00    +0.000 C 
BRANCH  42  43
ATOM     43  C   UNL     1       1.751   8.881 137.221  0.00  0.00    +0.000 C 
ATOM     44  O   UNL     1       1.503   9.136 138.400  0.00  0.00    +0.000 OA
ATOM     45  N   UNL     1       2.396   7.718 136.846  0.00  0.00    +0.000 N 
ATOM     46  H   UNL     1       2.596   7.554 135.875  0.00  0.00    +0.000 HD
BRANCH  45  47
ATOM     47  C   UNL     1       2.793   6.698 137.820  0.00  0.00    +0.000 C 
BRANCH  47  48
ATOM     48  C   UNL     1       1.884   5.455 137.893  0.00  0.00    +0.000 C 
ATOM     49  N   UNL     1       0.530   5.651 137.947  0.00  0.00    +0.000 N 
ATOM     50  O   UNL     1       2.332   4.310 137.903  0.00  0.00    +0.000 OA
ATOM     51  H   UNL     1       0.059   6.536 137.944  0.00  0.00    +0.000 HD
ATOM     52  H   UNL     1      -0.063   4.831 137.995  0.00  0.00    +0.000 HD
ENDBRANCH  47  48
ENDBRANCH  45  47
ENDBRANCH  42  43
BRANCH  42  53
ATOM     53  C   UNL     1       0.933  11.228 136.736  0.00  0.00    +0.000 C 
BRANCH  53  54
ATOM     54  C   UNL     1       1.589  12.471 136.147  0.00  0.00    +0.000 C 
ATOM     55  C   UNL     1       2.874  12.116 135.490  0.00  0.00    +0.000 C 
ATOM     56  C   UNL     1       0.901  13.094 134.968  0.00  0.00    +0.000 C 
ENDBRANCH  53  54
ENDBRANCH  42  53
ENDBRANCH  40  42
ENDBRANCH  37  38
ENDBRANCH  14  31
BRANCH   1  57
ATOM     57  C   UNL     1      -4.636  -1.108 131.573  0.00  0.00    +0.000 C 
ATOM     58  C   UNL     1      -3.054  -1.572 131.815  0.00  0.00    +0.000 C 
BRANCH  57  60
ATOM     59  C   UNL     1      -5.127  -2.799 129.748  0.00  0.00    +0.000 C 
ATOM     60  C   UNL     1      -4.384  -1.292 130.024  0.00  0.00    +0.000 C 
ENDBRANCH  57  60
ENDBRANCH   1  57
BRANCH  18  61
ATOM     61  C   UNL     1      -6.030   4.040 132.768  0.00  0.00    +0.000 C 
BRANCH  61  62
ATOM     62  C   UNL     1      -6.231   4.551 134.165  0.00  0.00    +0.000 C 
ATOM     63  N   UNL     1      -6.776   3.645 135.039  0.00  0.00    +0.000 N 
ATOM     64  O   UNL     1      -6.265   5.724 134.521  0.00  0.00    +0.000 OA
ATOM     65  H   UNL     1      -7.395   2.958 134.622  0.00  0.00    +0.000 HD
ATOM     66  H   UNL     1      -7.414   4.151 135.653  0.00  0.00    +0.000 HD
ENDBRANCH  61  62
ENDBRANCH  18  61
BRANCH   5  67
ATOM     67  C   UNL     1      -7.880   3.588 128.881  0.00  0.00    +0.000 C 
BRANCH  67  68
ATOM     68  C   UNL     1      -6.471   3.274 128.453  0.00  0.00    +0.000 A 
ATOM     69  C   UNL     1      -6.018   3.996 127.501  0.00  0.00    +0.000 A 
ATOM     70  C   UNL     1      -4.593   4.121 126.932  0.00  0.00    +0.000 A 
ATOM     71  C   UNL     1      -3.565   3.356 126.983  0.00  0.00    +0.000 A 
ATOM     72  C   UNL     1      -4.009   2.469 127.876  0.00  0.00    +0.000 A 
ATOM     73  C   UNL     1      -5.403   2.462 128.612  0.00  0.00    +0.000 A 
BRANCH  71  74
ATOM     74  O   UNL     1      -2.602   3.707 126.117  0.00  0.00    +0.000 OA
ATOM     75  C   UNL     1      -1.457   3.009 126.448  0.00  0.00    +0.000 C 
ENDBRANCH  71  74
ENDBRANCH  67  68
ENDBRANCH   5  67
BRANCH  22  76
ATOM     76  C   UNL     1      -3.883   0.305 134.542  0.00  0.00    +0.000 C 
BRANCH  76  77
ATOM     77  C   UNL     1      -3.924   0.227 136.058  0.00  0.00    +0.000 C 
BRANCH  77  78
ATOM     78  C   UNL     1      -4.099   1.321 136.993  0.00  0.00    +0.000 C 
ATOM     79  N   UNL     1      -3.384   2.334 136.513  0.00  0.00    +0.000 N 
ATOM     80  O   UNL     1      -4.895   1.337 137.918  0.00  0.00    +0.000 OA
ATOM     81  H   UNL     1      -2.823   2.178 135.691  0.00  0.00    +0.000 HD
ATOM     82  H   UNL     1      -3.464   3.200 136.988  0.00  0.00    +0.000 HD
ENDBRANCH  77  78
ENDBRANCH  76  77
ENDBRANCH  22  76
TORSDOF 18
ENDMDL
MODEL 9
REMARK VINA RESULT:      -7.4      3.194      5.182
REMARK  Name = CHEMBL3301668
REMARK  23 active torsions:
REMARK  status: ('A' for Active; 'I' for Inactive)
REMARK    1  A    between atoms: C_1  and  C_2
REMARK    2  A    between atoms: C_2  and  C_3
REMARK    3  A    between atoms: C_3  and  C_4
REMARK    4  A    between atoms: C_3  and  C_5
REMARK    5  A    between atoms: C_9  and  C_10
REMARK    6  A    between atoms: C_10  and  C_11
REMARK    7  A    between atoms: C_14  and  O_15
REMARK    8  A    between atoms: O_15  and  C_16
REMARK    9  A    between atoms: C_27  and  C_28
REMARK   10  A    between atoms: C_34  and  C_35
REMARK   11  A    between atoms: N_37  and  C_38
REMARK   12  A    between atoms: C_38  and  C_39
REMARK   13  A    between atoms: C_38  and  C_43
REMARK   14  A    between atoms: C_39  and  C_40
REMARK   15  A    between atoms: C_40  and  C_41
REMARK   16  A    between atoms: C_40  and  C_42
REMARK   17  A    between atoms: N_45  and  C_46
REMARK   18  A    between atoms: C_46  and  C_47
REMARK   19  A    between atoms: C_53  and  C_54
REMARK   20  A    between atoms: C_54  and  C_55
REMARK   21  A    between atoms: C_61  and  C_62
REMARK   22  A    between atoms: C_62  and  C_63
REMARK   23  A    between atoms: C_63  and  C_64
REMARK                            x       y       z     vdW  Elec       q    Type
REMARK                         _______ _______ _______ _____ _____    ______ ____
ROOT
ATOM      1  C   UNL     1      -6.030   4.158 126.694  0.00  0.00    +0.000 C 
ATOM      2  N   UNL     1      -7.579   4.209 127.917  0.00  0.00    +0.000 N 
ATOM      3  C   UNL     1      -8.462   4.655 129.116  0.00  0.00    +0.000 C 
ATOM      4  O   UNL     1      -9.443   3.931 129.460  0.00  0.00    +0.000 OA
ATOM      5  C   UNL     1      -8.415   6.032 130.057  0.00  0.00    +0.000 C 
ATOM      6  N   UNL     1      -9.818   6.505 130.370  0.00  0.00    +0.000 N 
ATOM      7  C   UNL     1     -10.631   6.315 131.468  0.00  0.00    +0.000 C 
ATOM      8  O   UNL     1     -11.660   7.000 131.555  0.00  0.00    +0.000 OA
ATOM      9  C   UNL     1     -10.331   5.335 132.626  0.00  0.00    +0.000 C 
ATOM     10  C   UNL     1      -9.116   4.467 132.543  0.00  0.00    +0.000 C 
ATOM     11  C   UNL     1      -8.811   3.536 133.685  0.00  0.00    +0.000 C 
ATOM     12  S   UNL     1      -7.012   3.346 133.830  0.00  0.00    +0.000 S 
ATOM     13  C   UNL     1      -6.668   1.613 134.138  0.00  0.00    +0.000 C 
ATOM     14  C   UNL     1      -5.299   1.025 133.822  0.00  0.00    +0.000 C 
ATOM     15  N   UNL     1      -5.379   0.216 132.598  0.00  0.00    +0.000 N 
ATOM     16  C   UNL     1      -5.459   0.716 131.386  0.00  0.00    +0.000 C 
ATOM     17  O   UNL     1      -5.032   0.099 130.419  0.00  0.00    +0.000 OA
ATOM     18  C   UNL     1      -6.245   1.939 131.305  0.00  0.00    +0.000 C 
ATOM     19  N   UNL     1      -5.576   2.356 130.206  0.00  0.00    +0.000 N 
ATOM     20  C   UNL     1      -5.669   2.284 128.904  0.00  0.00    +0.000 C 
ATOM     21  O   UNL     1      -5.594   3.257 128.429  0.00  0.00    +0.000 OA
ATOM     22  C   UNL     1      -6.110   1.486 127.822  0.00  0.00    +0.000 C 
ATOM     23  N   UNL     1      -7.018   1.974 126.719  0.00  0.00    +0.000 N 
ATOM     24  C   UNL     1      -6.810   3.111 125.955  0.00  0.00    +0.000 C 
ATOM     25  O   UNL     1      -7.517   3.498 125.014  0.00  0.00    +0.000 OA
ATOM     26  H   UNL     1      -8.232   3.386 127.939  0.00  0.00    +0.000 HD
ATOM     27  H   UNL     1     -10.176   7.210 129.732  0.00  0.00    +0.000 HD
ATOM     28  H   UNL     1      -4.973  -0.711 132.547  0.00  0.00    +0.000 HD
ATOM     29  H   UNL     1      -5.579   3.281 130.476  0.00  0.00    +0.000 HD
ATOM     30  H   UNL     1      -7.861   2.243 127.179  0.00  0.00    +0.000 HD
ENDROOT
BRANCH  14  31
ATOM     31  C   UNL     1      -4.778   0.050 134.878  0.00  0.00    +0.000 C 
ATOM     32  O   UNL     1      -5.506  -0.016 135.873  0.00  0.00    +0.000 OA
ATOM     33  N   UNL     1      -3.716  -0.804 134.571  0.00  0.00    +0.000 N 
ATOM     34  C   UNL     1      -2.492  -0.477 133.875  0.00  0.00    +0.000 C 
ATOM     35  C   UNL     1      -2.221  -1.721 133.081  0.00  0.00    +0.000 C 
ATOM     36  C   UNL     1      -2.483  -2.808 134.085  0.00  0.00    +0.000 C 
ATOM     37  C   UNL     1      -3.514  -2.215 135.050  0.00  0.00    +0.000 C 
BRANCH  37  38
ATOM     38  C   UNL     1      -2.694  -2.380 136.384  0.00  0.00    +0.000 C 
ATOM     39  O   UNL     1      -1.733  -3.149 136.436  0.00  0.00    +0.000 OA
ATOM     40  N   UNL     1      -3.002  -1.473 137.414  0.00  0.00    +0.000 N 
ATOM     41  H   UNL     1      -3.871  -0.942 137.409  0.00  0.00    +0.000 HD
BRANCH  40  42
ATOM     42  C   UNL     1      -2.000  -1.066 138.443  0.00  0.00    +0.000 C 
BRANCH  42  43
ATOM     43  C   UNL     1      -2.393   0.334 139.016  0.00  0.00    +0.000 C 
ATOM     44  O   UNL     1      -2.817   0.461 140.164  0.00  0.00    +0.000 OA
ATOM     45  N   UNL     1      -2.258   1.414 138.164  0.00  0.00    +0.000 N 
ATOM     46  H   UNL     1      -1.924   1.266 137.227  0.00  0.00    +0.000 HD
BRANCH  45  47
ATOM     47  C   UNL     1      -2.575   2.781 138.582  0.00  0.00    +0.000 C 
BRANCH  47  48
ATOM     48  C   UNL     1      -3.701   3.476 137.790  0.00  0.00    +0.000 C 
ATOM     49  N   UNL     1      -4.739   2.706 137.338  0.00  0.00    +0.000 N 
ATOM     50  O   UNL     1      -3.695   4.683 137.558  0.00  0.00    +0.000 OA
ATOM     51  H   UNL     1      -4.845   1.718 137.470  0.00  0.00    +0.000 HD
ATOM     52  H   UNL     1      -5.476   3.168 136.818  0.00  0.00    +0.000 HD
ENDBRANCH  47  48
ENDBRANCH  45  47
ENDBRANCH  42  43
BRANCH  42  53
ATOM     53  C   UNL     1      -0.513  -0.983 137.947  0.00  0.00    +0.000 C 
BRANCH  53  54
ATOM     54  C   UNL     1       0.522  -1.541 138.918  0.00  0.00    +0.000 C 
ATOM     55  C   UNL     1       1.202  -2.722 138.328  0.00  0.00    +0.000 C 
ATOM     56  C   UNL     1       1.732  -0.689 139.166  0.00  0.00    +0.000 C 
ENDBRANCH  53  54
ENDBRANCH  42  53
ENDBRANCH  40  42
ENDBRANCH  37  38
ENDBRANCH  14  31
BRANCH   1  57
ATOM     57  C   UNL     1      -4.158   3.575 126.982  0.00  0.00    +0.000 C 
ATOM     58  C   UNL     1      -2.771   2.655 126.903  0.00  0.00    +0.000 C 
BRANCH  57  60
ATOM     59  C   UNL     1      -3.043   4.807 128.897  0.00  0.00    +0.000 C 
ATOM     60  C   UNL     1      -3.231   4.835 127.205  0.00  0.00    +0.000 C 
ENDBRANCH  57  60
ENDBRANCH   1  57
BRANCH  18  61
ATOM     61  C   UNL     1      -7.660   2.262 130.968  0.00  0.00    +0.000 C 
BRANCH  61  62
ATOM     62  C   UNL     1      -8.592   1.087 131.047  0.00  0.00    +0.000 C 
ATOM     63  N   UNL     1      -8.323   0.074 130.162  0.00  0.00    +0.000 N 
ATOM     64  O   UNL     1      -9.704   1.065 131.562  0.00  0.00    +0.000 OA
ATOM     65  H   UNL     1      -7.893   0.363 129.290  0.00  0.00    +0.000 HD
ATOM     66  H   UNL     1      -9.215  -0.300 129.838  0.00  0.00    +0.000 HD
ENDBRANCH  61  62
ENDBRANCH  18  61
BRANCH   5  67
ATOM     67  C   UNL     1      -7.519   6.565 131.408  0.00  0.00    +0.000 C 
BRANCH  67  68
ATOM     68  C   UNL     1      -6.050   6.888 131.366  0.00  0.00    +0.000 A 
ATOM     69  C   UNL     1      -5.369   6.455 132.358  0.00  0.00    +0.000 A 
ATOM     70  C   UNL     1      -3.846   6.402 132.579  0.00  0.00    +0.000 A 
ATOM     71  C   UNL     1      -2.867   7.037 132.047  0.00  0.00    +0.000 A 
ATOM     72  C   UNL     1      -3.524   7.644 131.058  0.00  0.00    +0.000 A 
ATOM     73  C   UNL     1      -5.058   7.533 130.712  0.00  0.00    +0.000 A 
BRANCH  71  74
ATOM     74  O   UNL     1      -1.716   6.893 132.722  0.00  0.00    +0.000 OA
ATOM     75  C   UNL     1      -0.732   6.552 131.816  0.00  0.00    +0.000 C 
ENDBRANCH  71  74
ENDBRANCH  67  68
ENDBRANCH   5  67
BRANCH  22  76
ATOM     76  C   UNL     1      -5.208   0.406 127.467  0.00  0.00    +0.000 C 
BRANCH  76  77
ATOM     77  C   UNL     1      -5.343  -0.199 126.081  0.00  0.00    +0.000 C 
BRANCH  77  78
ATOM     78  C   UNL     1      -5.728  -1.555 125.744  0.00  0.00    +0.000 C 
ATOM     79  N   UNL     1      -5.544  -1.676 124.432  0.00  0.00    +0.000 N 
ATOM     80  O   UNL     1      -5.982  -2.436 126.549  0.00  0.00    +0.000 OA
ATOM     81  H   UNL     1      -5.264  -0.860 123.911  0.00  0.00    +0.000 HD
ATOM     82  H   UNL     1      -5.676  -2.578 124.046  0.00  0.00    +0.000 HD
ENDBRANCH  77  78
ENDBRANCH  76  77
ENDBRANCH  22  76
TORSDOF 18
ENDMDL
