MODEL 1
REMARK VINA RESULT:      -9.5      0.000      0.000
REMARK  Name = CHEMBL115305
REMARK  9 active torsions:
REMARK  status: ('A' for Active; 'I' for Inactive)
REMARK    1  A    between atoms: C_1  and  C_2
REMARK    2  A    between atoms: C_5  and  N_6
REMARK    3  A    between atoms: N_6  and  C_7
REMARK    4  A    between atoms: N_6  and  S_20
REMARK    5  A    between atoms: C_7  and  C_8
REMARK    6  A    between atoms: N_10  and  N_11
REMARK    7  A    between atoms: C_12  and  C_13
REMARK    8  A    between atoms: C_18  and  O_19
REMARK    9  A    between atoms: S_20  and  C_23
REMARK                            x       y       z     vdW  Elec       q    Type
REMARK                         _______ _______ _______ _____ _____    ______ ____
ROOT
ATOM      1  N   UNL     1      -7.872   2.229 124.265  0.00  0.00    +0.000 N 
ENDROOT
BRANCH   1   6
ATOM      2  C   UNL     1      -7.250   4.490 118.951  0.00  0.00    +0.000 C 
ATOM      3  C   UNL     1      -7.326   3.922 120.328  0.00  0.00    +0.000 A 
ATOM      4  C   UNL     1      -8.573   3.757 120.883  0.00  0.00    +0.000 A 
ATOM      5  C   UNL     1      -8.693   3.041 122.061  0.00  0.00    +0.000 A 
ATOM      6  C   UNL     1      -7.625   2.745 122.910  0.00  0.00    +0.000 A 
ATOM      7  C   UNL     1      -6.361   2.911 122.337  0.00  0.00    +0.000 A 
ATOM      8  C   UNL     1      -6.218   3.450 121.039  0.00  0.00    +0.000 A 
ENDBRANCH   1   6
BRANCH   1   9
ATOM      9  S   UNL     1      -8.388   0.565 124.419  0.00  0.00    +0.000 S 
ATOM     10  O   UNL     1      -8.728   0.383 125.820  0.00  0.00    +0.000 OA
ATOM     11  O   UNL     1      -9.387   0.291 123.402  0.00  0.00    +0.000 OA
BRANCH   9  12
ATOM     12  C   UNL     1      -7.079  -0.645 124.123  0.00  0.00    +0.000 A 
ATOM     13  C   UNL     1      -6.881  -1.143 122.823  0.00  0.00    +0.000 A 
ATOM     14  C   UNL     1      -5.973  -2.198 122.609  0.00  0.00    +0.000 A 
ATOM     15  C   UNL     1      -5.211  -2.714 123.659  0.00  0.00    +0.000 A 
ATOM     16  C   UNL     1      -5.369  -2.193 124.922  0.00  0.00    +0.000 A 
ATOM     17  C   UNL     1      -6.282  -1.173 125.128  0.00  0.00    +0.000 A 
ENDBRANCH   9  12
ENDBRANCH   1   9
BRANCH   1  18
ATOM     18  C   UNL     1      -7.431   3.017 125.462  0.00  0.00    +0.000 C 
BRANCH  18  19
ATOM     19  C   UNL     1      -8.124   4.167 126.169  0.00  0.00    +0.000 C 
ATOM     20  O   UNL     1      -8.774   5.008 125.525  0.00  0.00    +0.000 OA
ATOM     21  N   UNL     1      -7.964   4.338 127.545  0.00  0.00    +0.000 N 
ATOM     22  H   UNL     1      -7.032   4.370 127.951  0.00  0.00    +0.000 HD
BRANCH  21  23
ATOM     23  N   UNL     1      -8.948   5.124 128.085  0.00  0.00    +0.000 NA
ATOM     24  C   UNL     1      -9.157   5.247 129.349  0.00  0.00    +0.000 C 
BRANCH  24  25
ATOM     25  C   UNL     1     -10.229   6.162 129.859  0.00  0.00    +0.000 A 
ATOM     26  C   UNL     1     -10.834   5.822 131.076  0.00  0.00    +0.000 A 
ATOM     27  C   UNL     1     -11.886   6.593 131.587  0.00  0.00    +0.000 A 
ATOM     28  C   UNL     1     -12.333   7.718 130.895  0.00  0.00    +0.000 A 
ATOM     29  C   UNL     1     -11.724   8.084 129.696  0.00  0.00    +0.000 A 
ATOM     30  C   UNL     1     -10.677   7.310 129.179  0.00  0.00    +0.000 A 
BRANCH  30  31
ATOM     31  O   UNL     1     -10.112   7.691 127.994  0.00  0.00    +0.000 OA
ATOM     32  H   UNL     1     -10.475   7.187 127.252  0.00  0.00    +0.000 HD
ENDBRANCH  30  31
ENDBRANCH  24  25
ENDBRANCH  21  23
ENDBRANCH  18  19
ENDBRANCH   1  18
TORSDOF 8
ENDMDL
MODEL 2
REMARK VINA RESULT:      -9.4      3.919      5.814
REMARK  Name = CHEMBL115305
REMARK  9 active torsions:
REMARK  status: ('A' for Active; 'I' for Inactive)
REMARK    1  A    between atoms: C_1  and  C_2
REMARK    2  A    between atoms: C_5  and  N_6
REMARK    3  A    between atoms: N_6  and  C_7
REMARK    4  A    between atoms: N_6  and  S_20
REMARK    5  A    between atoms: C_7  and  C_8
REMARK    6  A    between atoms: N_10  and  N_11
REMARK    7  A    between atoms: C_12  and  C_13
REMARK    8  A    between atoms: C_18  and  O_19
REMARK    9  A    between atoms: S_20  and  C_23
REMARK                            x       y       z     vdW  Elec       q    Type
REMARK                         _______ _______ _______ _____ _____    ______ ____
ROOT
ATOM      1  N   UNL     1      -8.820   2.315 123.524  0.00  0.00    +0.000 N 
ENDROOT
BRANCH   1   6
ATOM      2  C   UNL     1      -5.986   4.812 119.112  0.00  0.00    +0.000 C 
ATOM      3  C   UNL     1      -6.781   4.160 120.193  0.00  0.00    +0.000 A 
ATOM      4  C   UNL     1      -6.110   3.752 121.321  0.00  0.00    +0.000 A 
ATOM      5  C   UNL     1      -6.839   3.342 122.423  0.00  0.00    +0.000 A 
ATOM      6  C   UNL     1      -8.192   2.999 122.383  0.00  0.00    +0.000 A 
ATOM      7  C   UNL     1      -8.868   3.422 121.236  0.00  0.00    +0.000 A 
ATOM      8  C   UNL     1      -8.174   4.040 120.171  0.00  0.00    +0.000 A 
ENDBRANCH   1   6
BRANCH   1   9
ATOM      9  S   UNL     1      -9.607   0.783 123.221  0.00  0.00    +0.000 S 
ATOM     10  O   UNL     1     -10.534   0.588 124.323  0.00  0.00    +0.000 OA
ATOM     11  O   UNL     1     -10.108   0.780 121.859  0.00  0.00    +0.000 OA
BRANCH   9  12
ATOM     12  C   UNL     1      -8.505  -0.645 123.315  0.00  0.00    +0.000 A 
ATOM     13  C   UNL     1      -9.038  -1.908 123.629  0.00  0.00    +0.000 A 
ATOM     14  C   UNL     1      -8.173  -2.996 123.859  0.00  0.00    +0.000 A 
ATOM     15  C   UNL     1      -6.791  -2.857 123.712  0.00  0.00    +0.000 A 
ATOM     16  C   UNL     1      -6.273  -1.634 123.357  0.00  0.00    +0.000 A 
ATOM     17  C   UNL     1      -7.129  -0.564 123.157  0.00  0.00    +0.000 A 
ENDBRANCH   9  12
ENDBRANCH   1   9
BRANCH   1  18
ATOM     18  C   UNL     1      -8.548   2.783 124.923  0.00  0.00    +0.000 C 
BRANCH  18  19
ATOM     19  C   UNL     1      -8.103   1.988 126.137  0.00  0.00    +0.000 C 
ATOM     20  O   UNL     1      -8.822   1.917 127.148  0.00  0.00    +0.000 OA
ATOM     21  N   UNL     1      -6.837   1.400 126.158  0.00  0.00    +0.000 N 
ATOM     22  H   UNL     1      -6.011   1.957 125.955  0.00  0.00    +0.000 HD
BRANCH  21  23
ATOM     23  N   UNL     1      -6.747   0.403 127.095  0.00  0.00    +0.000 NA
ATOM     24  C   UNL     1      -7.025  -0.831 126.859  0.00  0.00    +0.000 C 
BRANCH  24  25
ATOM     25  C   UNL     1      -6.861  -1.867 127.929  0.00  0.00    +0.000 A 
ATOM     26  C   UNL     1      -7.965  -2.685 128.203  0.00  0.00    +0.000 A 
ATOM     27  C   UNL     1      -7.908  -3.635 129.231  0.00  0.00    +0.000 A 
ATOM     28  C   UNL     1      -6.746  -3.787 129.985  0.00  0.00    +0.000 A 
ATOM     29  C   UNL     1      -5.630  -2.999 129.707  0.00  0.00    +0.000 A 
ATOM     30  C   UNL     1      -5.686  -2.042 128.685  0.00  0.00    +0.000 A 
BRANCH  30  31
ATOM     31  O   UNL     1      -4.578  -1.278 128.449  0.00  0.00    +0.000 OA
ATOM     32  H   UNL     1      -4.788  -0.333 128.480  0.00  0.00    +0.000 HD
ENDBRANCH  30  31
ENDBRANCH  24  25
ENDBRANCH  21  23
ENDBRANCH  18  19
ENDBRANCH   1  18
TORSDOF 8
ENDMDL
MODEL 3
REMARK VINA RESULT:      -9.0      4.827      6.225
REMARK  Name = CHEMBL115305
REMARK  9 active torsions:
REMARK  status: ('A' for Active; 'I' for Inactive)
REMARK    1  A    between atoms: C_1  and  C_2
REMARK    2  A    between atoms: C_5  and  N_6
REMARK    3  A    between atoms: N_6  and  C_7
REMARK    4  A    between atoms: N_6  and  S_20
REMARK    5  A    between atoms: C_7  and  C_8
REMARK    6  A    between atoms: N_10  and  N_11
REMARK    7  A    between atoms: C_12  and  C_13
REMARK    8  A    between atoms: C_18  and  O_19
REMARK    9  A    between atoms: S_20  and  C_23
REMARK                            x       y       z     vdW  Elec       q    Type
REMARK                         _______ _______ _______ _____ _____    ______ ____
ROOT
ATOM      1  N   UNL     1      -7.260   0.407 124.586  0.00  0.00    +0.000 N 
ENDROOT
BRANCH   1   6
ATOM      2  C   UNL     1      -4.318  -4.472 123.458  0.00  0.00    +0.000 C 
ATOM      3  C   UNL     1      -5.116  -3.230 123.674  0.00  0.00    +0.000 A 
ATOM      4  C   UNL     1      -5.093  -2.666 124.928  0.00  0.00    +0.000 A 
ATOM      5  C   UNL     1      -5.642  -1.409 125.107  0.00  0.00    +0.000 A 
ATOM      6  C   UNL     1      -6.507  -0.796 124.199  0.00  0.00    +0.000 A 
ATOM      7  C   UNL     1      -6.522  -1.372 122.926  0.00  0.00    +0.000 A 
ATOM      8  C   UNL     1      -5.794  -2.552 122.656  0.00  0.00    +0.000 A 
ENDBRANCH   1   6
BRANCH   1   9
ATOM      9  S   UNL     1      -8.662   0.195 125.610  0.00  0.00    +0.000 S 
ATOM     10  O   UNL     1      -8.643   1.308 126.544  0.00  0.00    +0.000 OA
ATOM     11  O   UNL     1      -9.826  -0.008 124.768  0.00  0.00    +0.000 OA
BRANCH   9  12
ATOM     12  C   UNL     1      -8.591  -1.268 126.667  0.00  0.00    +0.000 A 
ATOM     13  C   UNL     1      -7.962  -1.182 127.922  0.00  0.00    +0.000 A 
ATOM     14  C   UNL     1      -7.762  -2.349 128.686  0.00  0.00    +0.000 A 
ATOM     15  C   UNL     1      -8.241  -3.585 128.247  0.00  0.00    +0.000 A 
ATOM     16  C   UNL     1      -8.900  -3.661 127.042  0.00  0.00    +0.000 A 
ATOM     17  C   UNL     1      -9.070  -2.512 126.286  0.00  0.00    +0.000 A 
ENDBRANCH   9  12
ENDBRANCH   1   9
BRANCH   1  18
ATOM     18  C   UNL     1      -6.682   1.769 124.337  0.00  0.00    +0.000 C 
BRANCH  18  19
ATOM     19  C   UNL     1      -5.741   2.589 125.200  0.00  0.00    +0.000 C 
ATOM     20  O   UNL     1      -5.274   3.663 124.784  0.00  0.00    +0.000 OA
ATOM     21  N   UNL     1      -5.325   2.099 126.439  0.00  0.00    +0.000 N 
ATOM     22  H   UNL     1      -4.921   1.169 126.510  0.00  0.00    +0.000 HD
BRANCH  21  23
ATOM     23  N   UNL     1      -4.845   3.093 127.252  0.00  0.00    +0.000 NA
ATOM     24  C   UNL     1      -3.685   3.068 127.807  0.00  0.00    +0.000 C 
BRANCH  24  25
ATOM     25  C   UNL     1      -3.219   4.217 128.651  0.00  0.00    +0.000 A 
ATOM     26  C   UNL     1      -2.643   5.307 127.985  0.00  0.00    +0.000 A 
ATOM     27  C   UNL     1      -2.128   6.390 128.708  0.00  0.00    +0.000 A 
ATOM     28  C   UNL     1      -2.197   6.402 130.100  0.00  0.00    +0.000 A 
ATOM     29  C   UNL     1      -2.791   5.338 130.776  0.00  0.00    +0.000 A 
ATOM     30  C   UNL     1      -3.300   4.249 130.056  0.00  0.00    +0.000 A 
BRANCH  30  31
ATOM     31  O   UNL     1      -3.863   3.216 130.751  0.00  0.00    +0.000 OA
ATOM     32  H   UNL     1      -3.386   2.387 130.599  0.00  0.00    +0.000 HD
ENDBRANCH  30  31
ENDBRANCH  24  25
ENDBRANCH  21  23
ENDBRANCH  18  19
ENDBRANCH   1  18
TORSDOF 8
ENDMDL
MODEL 4
REMARK VINA RESULT:      -8.9      1.656      2.439
REMARK  Name = CHEMBL115305
REMARK  9 active torsions:
REMARK  status: ('A' for Active; 'I' for Inactive)
REMARK    1  A    between atoms: C_1  and  C_2
REMARK    2  A    between atoms: C_5  and  N_6
REMARK    3  A    between atoms: N_6  and  C_7
REMARK    4  A    between atoms: N_6  and  S_20
REMARK    5  A    between atoms: C_7  and  C_8
REMARK    6  A    between atoms: N_10  and  N_11
REMARK    7  A    between atoms: C_12  and  C_13
REMARK    8  A    between atoms: C_18  and  O_19
REMARK    9  A    between atoms: S_20  and  C_23
REMARK                            x       y       z     vdW  Elec       q    Type
REMARK                         _______ _______ _______ _____ _____    ______ ____
ROOT
ATOM      1  N   UNL     1      -7.130   2.014 125.995  0.00  0.00    +0.000 N 
ENDROOT
BRANCH   1   6
ATOM      2  C   UNL     1      -7.409   3.867 120.498  0.00  0.00    +0.000 C 
ATOM      3  C   UNL     1      -7.414   3.354 121.898  0.00  0.00    +0.000 A 
ATOM      4  C   UNL     1      -6.229   3.388 122.595  0.00  0.00    +0.000 A 
ATOM      5  C   UNL     1      -6.242   3.123 123.953  0.00  0.00    +0.000 A 
ATOM      6  C   UNL     1      -7.303   2.508 124.620  0.00  0.00    +0.000 A 
ATOM      7  C   UNL     1      -8.504   2.482 123.907  0.00  0.00    +0.000 A 
ATOM      8  C   UNL     1      -8.568   2.946 122.575  0.00  0.00    +0.000 A 
ENDBRANCH   1   6
BRANCH   1   9
ATOM      9  S   UNL     1      -6.781   0.314 126.210  0.00  0.00    +0.000 S 
ATOM     10  O   UNL     1      -5.332   0.203 126.205  0.00  0.00    +0.000 OA
ATOM     11  O   UNL     1      -7.528  -0.173 127.356  0.00  0.00    +0.000 OA
BRANCH   9  12
ATOM     12  C   UNL     1      -7.307  -0.729 124.833  0.00  0.00    +0.000 A 
ATOM     13  C   UNL     1      -6.390  -1.041 123.814  0.00  0.00    +0.000 A 
ATOM     14  C   UNL     1      -6.829  -1.721 122.660  0.00  0.00    +0.000 A 
ATOM     15  C   UNL     1      -8.152  -2.153 122.542  0.00  0.00    +0.000 A 
ATOM     16  C   UNL     1      -9.038  -1.891 123.561  0.00  0.00    +0.000 A 
ATOM     17  C   UNL     1      -8.603  -1.201 124.680  0.00  0.00    +0.000 A 
ENDBRANCH   9  12
ENDBRANCH   1   9
BRANCH   1  18
ATOM     18  C   UNL     1      -6.987   2.984 127.130  0.00  0.00    +0.000 C 
BRANCH  18  19
ATOM     19  C   UNL     1      -7.881   4.144 127.525  0.00  0.00    +0.000 C 
ATOM     20  O   UNL     1      -8.284   4.954 126.674  0.00  0.00    +0.000 OA
ATOM     21  N   UNL     1      -8.188   4.360 128.870  0.00  0.00    +0.000 N 
ATOM     22  H   UNL     1      -7.444   4.420 129.561  0.00  0.00    +0.000 HD
BRANCH  21  23
ATOM     23  N   UNL     1      -9.299   5.148 129.025  0.00  0.00    +0.000 NA
ATOM     24  C   UNL     1      -9.497   5.921 130.035  0.00  0.00    +0.000 C 
BRANCH  24  25
ATOM     25  C   UNL     1     -10.721   6.782 130.107  0.00  0.00    +0.000 A 
ATOM     26  C   UNL     1     -10.897   7.732 129.093  0.00  0.00    +0.000 A 
ATOM     27  C   UNL     1     -11.983   8.615 129.125  0.00  0.00    +0.000 A 
ATOM     28  C   UNL     1     -12.913   8.548 130.162  0.00  0.00    +0.000 A 
ATOM     29  C   UNL     1     -12.767   7.591 131.165  0.00  0.00    +0.000 A 
ATOM     30  C   UNL     1     -11.676   6.711 131.139  0.00  0.00    +0.000 A 
BRANCH  30  31
ATOM     31  O   UNL     1     -11.557   5.795 132.145  0.00  0.00    +0.000 OA
ATOM     32  H   UNL     1     -12.420   5.436 132.400  0.00  0.00    +0.000 HD
ENDBRANCH  30  31
ENDBRANCH  24  25
ENDBRANCH  21  23
ENDBRANCH  18  19
ENDBRANCH   1  18
TORSDOF 8
ENDMDL
MODEL 5
REMARK VINA RESULT:      -8.8      4.261      6.864
REMARK  Name = CHEMBL115305
REMARK  9 active torsions:
REMARK  status: ('A' for Active; 'I' for Inactive)
REMARK    1  A    between atoms: C_1  and  C_2
REMARK    2  A    between atoms: C_5  and  N_6
REMARK    3  A    between atoms: N_6  and  C_7
REMARK    4  A    between atoms: N_6  and  S_20
REMARK    5  A    between atoms: C_7  and  C_8
REMARK    6  A    between atoms: N_10  and  N_11
REMARK    7  A    between atoms: C_12  and  C_13
REMARK    8  A    between atoms: C_18  and  O_19
REMARK    9  A    between atoms: S_20  and  C_23
REMARK                            x       y       z     vdW  Elec       q    Type
REMARK                         _______ _______ _______ _____ _____    ______ ____
ROOT
ATOM      1  N   UNL     1      -7.938   2.005 123.715  0.00  0.00    +0.000 N 
ENDROOT
BRANCH   1   6
ATOM      2  C   UNL     1      -6.831   4.795 118.744  0.00  0.00    +0.000 C 
ATOM      3  C   UNL     1      -7.195   4.066 119.993  0.00  0.00    +0.000 A 
ATOM      4  C   UNL     1      -6.172   3.648 120.810  0.00  0.00    +0.000 A 
ATOM      5  C   UNL     1      -6.476   3.164 122.070  0.00  0.00    +0.000 A 
ATOM      6  C   UNL     1      -7.752   2.760 122.467  0.00  0.00    +0.000 A 
ATOM      7  C   UNL     1      -8.787   3.193 121.634  0.00  0.00    +0.000 A 
ATOM      8  C   UNL     1      -8.511   3.882 120.432  0.00  0.00    +0.000 A 
ENDBRANCH   1   6
BRANCH   1   9
ATOM      9  S   UNL     1      -7.892   2.896 125.219  0.00  0.00    +0.000 S 
ATOM     10  O   UNL     1      -8.190   4.275 124.872  0.00  0.00    +0.000 OA
ATOM     11  O   UNL     1      -8.724   2.211 126.192  0.00  0.00    +0.000 OA
BRANCH   9  12
ATOM     12  C   UNL     1      -6.256   2.978 125.981  0.00  0.00    +0.000 A 
ATOM     13  C   UNL     1      -5.359   3.983 125.580  0.00  0.00    +0.000 A 
ATOM     14  C   UNL     1      -4.030   3.963 126.050  0.00  0.00    +0.000 A 
ATOM     15  C   UNL     1      -3.607   2.997 126.964  0.00  0.00    +0.000 A 
ATOM     16  C   UNL     1      -4.499   2.043 127.395  0.00  0.00    +0.000 A 
ATOM     17  C   UNL     1      -5.796   2.055 126.909  0.00  0.00    +0.000 A 
ENDBRANCH   9  12
ENDBRANCH   1   9
BRANCH   1  18
ATOM     18  C   UNL     1      -8.421   0.585 123.671  0.00  0.00    +0.000 C 
BRANCH  18  19
ATOM     19  C   UNL     1      -8.029  -0.594 124.541  0.00  0.00    +0.000 C 
ATOM     20  O   UNL     1      -7.201  -1.430 124.141  0.00  0.00    +0.000 OA
ATOM     21  N   UNL     1      -8.664  -0.798 125.767  0.00  0.00    +0.000 N 
ATOM     22  H   UNL     1      -9.680  -0.824 125.819  0.00  0.00    +0.000 HD
BRANCH  21  23
ATOM     23  N   UNL     1      -7.939  -1.615 126.595  0.00  0.00    +0.000 NA
ATOM     24  C   UNL     1      -7.213  -1.190 127.568  0.00  0.00    +0.000 C 
BRANCH  24  25
ATOM     25  C   UNL     1      -6.483  -2.155 128.453  0.00  0.00    +0.000 A 
ATOM     26  C   UNL     1      -5.083  -2.099 128.442  0.00  0.00    +0.000 A 
ATOM     27  C   UNL     1      -4.330  -3.009 129.194  0.00  0.00    +0.000 A 
ATOM     28  C   UNL     1      -4.966  -3.973 129.975  0.00  0.00    +0.000 A 
ATOM     29  C   UNL     1      -6.358  -4.024 130.017  0.00  0.00    +0.000 A 
ATOM     30  C   UNL     1      -7.115  -3.120 129.260  0.00  0.00    +0.000 A 
BRANCH  30  31
ATOM     31  O   UNL     1      -8.477  -3.208 129.314  0.00  0.00    +0.000 OA
ATOM     32  H   UNL     1      -8.761  -4.009 129.776  0.00  0.00    +0.000 HD
ENDBRANCH  30  31
ENDBRANCH  24  25
ENDBRANCH  21  23
ENDBRANCH  18  19
ENDBRANCH   1  18
TORSDOF 8
ENDMDL
MODEL 6
REMARK VINA RESULT:      -8.8      3.748      5.859
REMARK  Name = CHEMBL115305
REMARK  9 active torsions:
REMARK  status: ('A' for Active; 'I' for Inactive)
REMARK    1  A    between atoms: C_1  and  C_2
REMARK    2  A    between atoms: C_5  and  N_6
REMARK    3  A    between atoms: N_6  and  C_7
REMARK    4  A    between atoms: N_6  and  S_20
REMARK    5  A    between atoms: C_7  and  C_8
REMARK    6  A    between atoms: N_10  and  N_11
REMARK    7  A    between atoms: C_12  and  C_13
REMARK    8  A    between atoms: C_18  and  O_19
REMARK    9  A    between atoms: S_20  and  C_23
REMARK                            x       y       z     vdW  Elec       q    Type
REMARK                         _______ _______ _______ _____ _____    ______ ____
ROOT
ATOM      1  N   UNL     1      -7.759   0.194 128.654  0.00  0.00    +0.000 N 
ENDROOT
BRANCH   1   6
ATOM      2  C   UNL     1      -5.454  -4.805 130.506  0.00  0.00    +0.000 C 
ATOM      3  C   UNL     1      -6.120  -3.545 130.067  0.00  0.00    +0.000 A 
ATOM      4  C   UNL     1      -5.319  -2.521 129.620  0.00  0.00    +0.000 A 
ATOM      5  C   UNL     1      -5.906  -1.428 129.009  0.00  0.00    +0.000 A 
ATOM      6  C   UNL     1      -7.265  -1.121 129.093  0.00  0.00    +0.000 A 
ATOM      7  C   UNL     1      -8.074  -2.167 129.544  0.00  0.00    +0.000 A 
ATOM      8  C   UNL     1      -7.507  -3.385 129.981  0.00  0.00    +0.000 A 
ENDBRANCH   1   6
BRANCH   1   9
ATOM      9  S   UNL     1      -7.993   0.443 126.939  0.00  0.00    +0.000 S 
ATOM     10  O   UNL     1      -9.336   0.978 126.795  0.00  0.00    +0.000 OA
ATOM     11  O   UNL     1      -6.866   1.198 126.421  0.00  0.00    +0.000 OA
BRANCH   9  12
ATOM     12  C   UNL     1      -8.020  -1.079 125.967  0.00  0.00    +0.000 A 
ATOM     13  C   UNL     1      -6.909  -1.409 125.171  0.00  0.00    +0.000 A 
ATOM     14  C   UNL     1      -6.980  -2.507 124.291  0.00  0.00    +0.000 A 
ATOM     15  C   UNL     1      -8.114  -3.320 124.247  0.00  0.00    +0.000 A 
ATOM     16  C   UNL     1      -9.182  -3.027 125.063  0.00  0.00    +0.000 A 
ATOM     17  C   UNL     1      -9.113  -1.930 125.906  0.00  0.00    +0.000 A 
ENDBRANCH   9  12
ENDBRANCH   1   9
BRANCH   1  18
ATOM     18  C   UNL     1      -8.298   1.169 129.659  0.00  0.00    +0.000 C 
BRANCH  18  19
ATOM     19  C   UNL     1      -8.689   2.623 129.478  0.00  0.00    +0.000 C 
ATOM     20  O   UNL     1      -8.057   3.359 128.700  0.00  0.00    +0.000 OA
ATOM     21  N   UNL     1      -9.714   3.171 130.252  0.00  0.00    +0.000 N 
ATOM     22  H   UNL     1      -9.693   3.082 131.264  0.00  0.00    +0.000 HD
BRANCH  21  23
ATOM     23  N   UNL     1     -10.220   4.319 129.700  0.00  0.00    +0.000 NA
ATOM     24  C   UNL     1     -10.536   5.364 130.380  0.00  0.00    +0.000 C 
BRANCH  24  25
ATOM     25  C   UNL     1     -11.045   6.596 129.694  0.00  0.00    +0.000 A 
ATOM     26  C   UNL     1     -12.027   7.340 130.360  0.00  0.00    +0.000 A 
ATOM     27  C   UNL     1     -12.596   8.469 129.755  0.00  0.00    +0.000 A 
ATOM     28  C   UNL     1     -12.179   8.873 128.488  0.00  0.00    +0.000 A 
ATOM     29  C   UNL     1     -11.184   8.158 127.823  0.00  0.00    +0.000 A 
ATOM     30  C   UNL     1     -10.619   7.024 128.422  0.00  0.00    +0.000 A 
BRANCH  30  31
ATOM     31  O   UNL     1      -9.655   6.339 127.736  0.00  0.00    +0.000 OA
ATOM     32  H   UNL     1      -9.340   5.575 128.240  0.00  0.00    +0.000 HD
ENDBRANCH  30  31
ENDBRANCH  24  25
ENDBRANCH  21  23
ENDBRANCH  18  19
ENDBRANCH   1  18
TORSDOF 8
ENDMDL
MODEL 7
REMARK VINA RESULT:      -8.7      4.417      7.795
REMARK  Name = CHEMBL115305
REMARK  9 active torsions:
REMARK  status: ('A' for Active; 'I' for Inactive)
REMARK    1  A    between atoms: C_1  and  C_2
REMARK    2  A    between atoms: C_5  and  N_6
REMARK    3  A    between atoms: N_6  and  C_7
REMARK    4  A    between atoms: N_6  and  S_20
REMARK    5  A    between atoms: C_7  and  C_8
REMARK    6  A    between atoms: N_10  and  N_11
REMARK    7  A    between atoms: C_12  and  C_13
REMARK    8  A    between atoms: C_18  and  O_19
REMARK    9  A    between atoms: S_20  and  C_23
REMARK                            x       y       z     vdW  Elec       q    Type
REMARK                         _______ _______ _______ _____ _____    ______ ____
ROOT
ATOM      1  N   UNL     1      -7.072  -0.580 126.046  0.00  0.00    +0.000 N 
ENDROOT
BRANCH   1   6
ATOM      2  C   UNL     1      -5.936  -4.029 130.579  0.00  0.00    +0.000 C 
ATOM      3  C   UNL     1      -6.309  -3.137 129.443  0.00  0.00    +0.000 A 
ATOM      4  C   UNL     1      -5.289  -2.588 128.701  0.00  0.00    +0.000 A 
ATOM      5  C   UNL     1      -5.596  -1.935 127.521  0.00  0.00    +0.000 A 
ATOM      6  C   UNL     1      -6.878  -1.502 127.176  0.00  0.00    +0.000 A 
ATOM      7  C   UNL     1      -7.908  -2.068 127.931  0.00  0.00    +0.000 A 
ATOM      8  C   UNL     1      -7.625  -2.916 129.025  0.00  0.00    +0.000 A 
ENDBRANCH   1   6
BRANCH   1   9
ATOM      9  S   UNL     1      -7.370  -1.278 124.470  0.00  0.00    +0.000 S 
ATOM     10  O   UNL     1      -8.690  -1.881 124.546  0.00  0.00    +0.000 OA
ATOM     11  O   UNL     1      -7.104  -0.271 123.459  0.00  0.00    +0.000 OA
BRANCH   9  12
ATOM     12  C   UNL     1      -6.280  -2.656 124.054  0.00  0.00    +0.000 A 
ATOM     13  C   UNL     1      -6.679  -3.969 124.362  0.00  0.00    +0.000 A 
ATOM     14  C   UNL     1      -5.774  -5.035 124.186  0.00  0.00    +0.000 A 
ATOM     15  C   UNL     1      -4.506  -4.818 123.643  0.00  0.00    +0.000 A 
ATOM     16  C   UNL     1      -4.134  -3.541 123.295  0.00  0.00    +0.000 A 
ATOM     17  C   UNL     1      -5.020  -2.496 123.495  0.00  0.00    +0.000 A 
ENDBRANCH   9  12
ENDBRANCH   1   9
BRANCH   1  18
ATOM     18  C   UNL     1      -7.280   0.884 126.297  0.00  0.00    +0.000 C 
BRANCH  18  19
ATOM     19  C   UNL     1      -6.969   2.069 125.402  0.00  0.00    +0.000 C 
ATOM     20  O   UNL     1      -5.872   2.648 125.474  0.00  0.00    +0.000 OA
ATOM     21  N   UNL     1      -7.952   2.575 124.549  0.00  0.00    +0.000 N 
ATOM     22  H   UNL     1      -8.869   2.819 124.914  0.00  0.00    +0.000 HD
BRANCH  21  23
ATOM     23  N   UNL     1      -7.418   3.335 123.541  0.00  0.00    +0.000 NA
ATOM     24  C   UNL     1      -7.166   2.887 122.361  0.00  0.00    +0.000 C 
BRANCH  24  25
ATOM     25  C   UNL     1      -6.619   3.796 121.302  0.00  0.00    +0.000 A 
ATOM     26  C   UNL     1      -7.377   3.944 120.132  0.00  0.00    +0.000 A 
ATOM     27  C   UNL     1      -6.903   4.727 119.073  0.00  0.00    +0.000 A 
ATOM     28  C   UNL     1      -5.677   5.381 119.175  0.00  0.00    +0.000 A 
ATOM     29  C   UNL     1      -4.923   5.265 120.342  0.00  0.00    +0.000 A 
ATOM     30  C   UNL     1      -5.390   4.476 121.401  0.00  0.00    +0.000 A 
BRANCH  30  31
ATOM     31  O   UNL     1      -4.620   4.373 122.525  0.00  0.00    +0.000 OA
ATOM     32  H   UNL     1      -4.185   3.510 122.577  0.00  0.00    +0.000 HD
ENDBRANCH  30  31
ENDBRANCH  24  25
ENDBRANCH  21  23
ENDBRANCH  18  19
ENDBRANCH   1  18
TORSDOF 8
ENDMDL
MODEL 8
REMARK VINA RESULT:      -8.6      4.164      6.092
REMARK  Name = CHEMBL115305
REMARK  9 active torsions:
REMARK  status: ('A' for Active; 'I' for Inactive)
REMARK    1  A    between atoms: C_1  and  C_2
REMARK    2  A    between atoms: C_5  and  N_6
REMARK    3  A    between atoms: N_6  and  C_7
REMARK    4  A    between atoms: N_6  and  S_20
REMARK    5  A    between atoms: C_7  and  C_8
REMARK    6  A    between atoms: N_10  and  N_11
REMARK    7  A    between atoms: C_12  and  C_13
REMARK    8  A    between atoms: C_18  and  O_19
REMARK    9  A    between atoms: S_20  and  C_23
REMARK                            x       y       z     vdW  Elec       q    Type
REMARK                         _______ _______ _______ _____ _____    ______ ____
ROOT
ATOM      1  N   UNL     1      -8.807   0.816 124.740  0.00  0.00    +0.000 N 
ENDROOT
BRANCH   1   6
ATOM      2  C   UNL     1      -6.383   4.174 120.668  0.00  0.00    +0.000 C 
ATOM      3  C   UNL     1      -7.078   3.311 121.667  0.00  0.00    +0.000 A 
ATOM      4  C   UNL     1      -6.305   2.681 122.613  0.00  0.00    +0.000 A 
ATOM      5  C   UNL     1      -6.928   2.052 123.677  0.00  0.00    +0.000 A 
ATOM      6  C   UNL     1      -8.284   1.722 123.705  0.00  0.00    +0.000 A 
ATOM      7  C   UNL     1      -9.063   2.370 122.744  0.00  0.00    +0.000 A 
ATOM      8  C   UNL     1      -8.469   3.195 121.764  0.00  0.00    +0.000 A 
ENDBRANCH   1   6
BRANCH   1   9
ATOM      9  S   UNL     1      -8.959  -0.879 124.336  0.00  0.00    +0.000 S 
ATOM     10  O   UNL     1      -9.447  -1.532 125.539  0.00  0.00    +0.000 OA
ATOM     11  O   UNL     1      -9.716  -0.997 123.103  0.00  0.00    +0.000 OA
BRANCH   9  12
ATOM     12  C   UNL     1      -7.387  -1.702 123.997  0.00  0.00    +0.000 A 
ATOM     13  C   UNL     1      -6.783  -1.543 122.737  0.00  0.00    +0.000 A 
ATOM     14  C   UNL     1      -5.642  -2.301 122.407  0.00  0.00    +0.000 A 
ATOM     15  C   UNL     1      -5.058  -3.162 123.339  0.00  0.00    +0.000 A 
ATOM     16  C   UNL     1      -5.620  -3.280 124.588  0.00  0.00    +0.000 A 
ATOM     17  C   UNL     1      -6.756  -2.549 124.895  0.00  0.00    +0.000 A 
ENDBRANCH   9  12
ENDBRANCH   1   9
BRANCH   1  18
ATOM     18  C   UNL     1      -8.936   1.288 126.158  0.00  0.00    +0.000 C 
BRANCH  18  19
ATOM     19  C   UNL     1      -8.230   0.795 127.407  0.00  0.00    +0.000 C 
ATOM     20  O   UNL     1      -8.544   1.232 128.527  0.00  0.00    +0.000 OA
ATOM     21  N   UNL     1      -7.159  -0.093 127.298  0.00  0.00    +0.000 N 
ATOM     22  H   UNL     1      -6.377   0.122 126.683  0.00  0.00    +0.000 HD
BRANCH  21  23
ATOM     23  N   UNL     1      -6.913  -0.752 128.474  0.00  0.00    +0.000 NA
ATOM     24  C   UNL     1      -7.105  -2.012 128.645  0.00  0.00    +0.000 C 
BRANCH  24  25
ATOM     25  C   UNL     1      -6.771  -2.664 129.953  0.00  0.00    +0.000 A 
ATOM     26  C   UNL     1      -5.933  -3.786 129.913  0.00  0.00    +0.000 A 
ATOM     27  C   UNL     1      -5.625  -4.486 131.087  0.00  0.00    +0.000 A 
ATOM     28  C   UNL     1      -6.139  -4.064 132.312  0.00  0.00    +0.000 A 
ATOM     29  C   UNL     1      -6.953  -2.934 132.372  0.00  0.00    +0.000 A 
ATOM     30  C   UNL     1      -7.269  -2.236 131.198  0.00  0.00    +0.000 A 
BRANCH  30  31
ATOM     31  O   UNL     1      -8.080  -1.141 131.292  0.00  0.00    +0.000 OA
ATOM     32  H   UNL     1      -7.581  -0.320 131.170  0.00  0.00    +0.000 HD
ENDBRANCH  30  31
ENDBRANCH  24  25
ENDBRANCH  21  23
ENDBRANCH  18  19
ENDBRANCH   1  18
TORSDOF 8
ENDMDL
MODEL 9
REMARK VINA RESULT:      -8.6      5.705      8.511
REMARK  Name = CHEMBL115305
REMARK  9 active torsions:
REMARK  status: ('A' for Active; 'I' for Inactive)
REMARK    1  A    between atoms: C_1  and  C_2
REMARK    2  A    between atoms: C_5  and  N_6
REMARK    3  A    between atoms: N_6  and  C_7
REMARK    4  A    between atoms: N_6  and  S_20
REMARK    5  A    between atoms: C_7  and  C_8
REMARK    6  A    between atoms: N_10  and  N_11
REMARK    7  A    between atoms: C_12  and  C_13
REMARK    8  A    between atoms: C_18  and  O_19
REMARK    9  A    between atoms: S_20  and  C_23
REMARK                            x       y       z     vdW  Elec       q    Type
REMARK                         _______ _______ _______ _____ _____    ______ ____
ROOT
ATOM      1  N   UNL     1      -3.617   6.357 130.410  0.00  0.00    +0.000 N 
ENDROOT
BRANCH   1   6
ATOM      2  C   UNL     1       0.384   7.466 134.471  0.00  0.00    +0.000 C 
ATOM      3  C   UNL     1      -0.658   7.266 133.422  0.00  0.00    +0.000 A 
ATOM      4  C   UNL     1      -0.724   6.035 132.814  0.00  0.00    +0.000 A 
ATOM      5  C   UNL     1      -1.804   5.746 131.999  0.00  0.00    +0.000 A 
ATOM      6  C   UNL     1      -2.672   6.709 131.480  0.00  0.00    +0.000 A 
ATOM      7  C   UNL     1      -2.602   7.956 132.107  0.00  0.00    +0.000 A 
ATOM      8  C   UNL     1      -1.635   8.215 133.102  0.00  0.00    +0.000 A 
ENDBRANCH   1   6
BRANCH   1   9
ATOM      9  S   UNL     1      -3.065   6.503 128.757  0.00  0.00    +0.000 S 
ATOM     10  O   UNL     1      -3.926   7.497 128.137  0.00  0.00    +0.000 OA
ATOM     11  O   UNL     1      -1.629   6.710 128.763  0.00  0.00    +0.000 OA
BRANCH   9  12
ATOM     12  C   UNL     1      -3.318   5.019 127.759  0.00  0.00    +0.000 A 
ATOM     13  C   UNL     1      -4.568   4.798 127.155  0.00  0.00    +0.000 A 
ATOM     14  C   UNL     1      -4.827   3.574 126.507  0.00  0.00    +0.000 A 
ATOM     15  C   UNL     1      -3.835   2.598 126.394  0.00  0.00    +0.000 A 
ATOM     16  C   UNL     1      -2.595   2.834 126.942  0.00  0.00    +0.000 A 
ATOM     17  C   UNL     1      -2.358   4.030 127.599  0.00  0.00    +0.000 A 
ENDBRANCH   9  12
ENDBRANCH   1   9
BRANCH   1  18
ATOM     18  C   UNL     1      -4.895   5.644 130.739  0.00  0.00    +0.000 C 
BRANCH  18  19
ATOM     19  C   UNL     1      -6.324   6.150 130.681  0.00  0.00    +0.000 C 
ATOM     20  O   UNL     1      -6.566   7.368 130.634  0.00  0.00    +0.000 OA
ATOM     21  N   UNL     1      -7.387   5.248 130.769  0.00  0.00    +0.000 N 
ATOM     22  H   UNL     1      -7.429   4.580 131.535  0.00  0.00    +0.000 HD
BRANCH  21  23
ATOM     23  N   UNL     1      -8.556   5.781 130.292  0.00  0.00    +0.000 NA
ATOM     24  C   UNL     1      -9.378   6.465 131.008  0.00  0.00    +0.000 C 
BRANCH  24  25
ATOM     25  C   UNL     1     -10.616   7.049 130.397  0.00  0.00    +0.000 A 
ATOM     26  C   UNL     1     -10.452   7.850 129.260  0.00  0.00    +0.000 A 
ATOM     27  C   UNL     1     -11.555   8.480 128.669  0.00  0.00    +0.000 A 
ATOM     28  C   UNL     1     -12.832   8.306 129.200  0.00  0.00    +0.000 A 
ATOM     29  C   UNL     1     -13.015   7.491 130.316  0.00  0.00    +0.000 A 
ATOM     30  C   UNL     1     -11.914   6.865 130.914  0.00  0.00    +0.000 A 
BRANCH  30  31
ATOM     31  O   UNL     1     -12.128   6.084 132.014  0.00  0.00    +0.000 OA
ATOM     32  H   UNL     1     -12.501   5.224 131.769  0.00  0.00    +0.000 HD
ENDBRANCH  30  31
ENDBRANCH  24  25
ENDBRANCH  21  23
ENDBRANCH  18  19
ENDBRANCH   1  18
TORSDOF 8
ENDMDL
