MODEL 1
REMARK VINA RESULT:      -7.3      0.000      0.000
REMARK  Name = CHEMBL1093341
REMARK  8 active torsions:
REMARK  status: ('A' for Active; 'I' for Inactive)
REMARK    1  A    between atoms: C_1  and  C_2
REMARK    2  A    between atoms: C_2  and  N_3
REMARK    3  A    between atoms: N_3  and  C_17
REMARK    4  A    between atoms: C_4  and  C_6
REMARK    5  A    between atoms: C_10  and  O_11
REMARK    6  A    between atoms: O_11  and  C_12
REMARK    7  A    between atoms: C_20  and  O_21
REMARK    8  A    between atoms: O_21  and  C_22
REMARK                            x       y       z     vdW  Elec       q    Type
REMARK                         _______ _______ _______ _____ _____    ______ ____
ROOT
ATOM      1  N   UNL     1     -10.033   5.341 130.733  0.00  0.00    +0.000 N 
ATOM      2  C   UNL     1     -10.551   4.009 130.497  0.00  0.00    +0.000 C 
ATOM      3  O   UNL     1     -11.639   3.869 129.944  0.00  0.00    +0.000 OA
ENDROOT
BRANCH   2   4
ATOM      4  C   UNL     1      -9.755   2.794 130.765  0.00  0.00    +0.000 A 
ATOM      5  C   UNL     1      -9.759   1.936 131.860  0.00  0.00    +0.000 A 
ATOM      6  C   UNL     1      -8.925   0.820 131.540  0.00  0.00    +0.000 A 
ATOM      7  C   UNL     1      -8.559  -0.399 132.151  0.00  0.00    +0.000 A 
ATOM      8  C   UNL     1      -7.750  -1.316 131.447  0.00  0.00    +0.000 A 
ATOM      9  C   UNL     1      -7.368  -1.047 130.130  0.00  0.00    +0.000 A 
ATOM     10  C   UNL     1      -7.695   0.170 129.516  0.00  0.00    +0.000 A 
ATOM     11  C   UNL     1      -8.421   1.089 130.278  0.00  0.00    +0.000 A 
ATOM     12  O   UNL     1      -8.782   2.353 129.898  0.00  0.00    +0.000 OA
BRANCH   8  13
ATOM     13  O   UNL     1      -7.395  -2.437 132.154  0.00  0.00    +0.000 OA
ATOM     14  C   UNL     1      -7.855  -2.515 133.501  0.00  0.00    +0.000 C 
ENDBRANCH   8  13
ENDBRANCH   2   4
BRANCH   1  15
ATOM     15  C   UNL     1     -10.880   6.485 130.391  0.00  0.00    +0.000 A 
ATOM     16  C   UNL     1     -11.978   6.867 131.176  0.00  0.00    +0.000 A 
ATOM     17  C   UNL     1     -12.756   7.984 130.837  0.00  0.00    +0.000 A 
ATOM     18  C   UNL     1     -12.458   8.697 129.689  0.00  0.00    +0.000 A 
ATOM     19  N   UNL     1     -11.441   8.336 128.882  0.00  0.00    +0.000 NA
ATOM     20  C   UNL     1     -10.676   7.264 129.253  0.00  0.00    +0.000 A 
BRANCH  18  21
ATOM     21  O   UNL     1     -13.134   9.809 129.261  0.00  0.00    +0.000 OA
ATOM     22  C   UNL     1     -13.408  10.809 130.236  0.00  0.00    +0.000 C 
ENDBRANCH  18  21
ENDBRANCH   1  15
BRANCH   1  24
ATOM     23  C   UNL     1      -8.553   5.934 132.738  0.00  0.00    +0.000 C 
ATOM     24  C   UNL     1      -8.696   5.738 131.258  0.00  0.00    +0.000 C 
ENDBRANCH   1  24
TORSDOF 5
ENDMDL
MODEL 2
REMARK VINA RESULT:      -6.7      1.553      2.061
REMARK  Name = CHEMBL1093341
REMARK  8 active torsions:
REMARK  status: ('A' for Active; 'I' for Inactive)
REMARK    1  A    between atoms: C_1  and  C_2
REMARK    2  A    between atoms: C_2  and  N_3
REMARK    3  A    between atoms: N_3  and  C_17
REMARK    4  A    between atoms: C_4  and  C_6
REMARK    5  A    between atoms: C_10  and  O_11
REMARK    6  A    between atoms: O_11  and  C_12
REMARK    7  A    between atoms: C_20  and  O_21
REMARK    8  A    between atoms: O_21  and  C_22
REMARK                            x       y       z     vdW  Elec       q    Type
REMARK                         _______ _______ _______ _____ _____    ______ ____
ROOT
ATOM      1  N   UNL     1     -10.020   5.892 130.940  0.00  0.00    +0.000 N 
ATOM      2  C   UNL     1     -10.358   4.506 130.691  0.00  0.00    +0.000 C 
ATOM      3  O   UNL     1     -11.282   4.232 129.930  0.00  0.00    +0.000 OA
ENDROOT
BRANCH   2   4
ATOM      4  C   UNL     1      -9.540   3.389 131.206  0.00  0.00    +0.000 A 
ATOM      5  C   UNL     1      -9.127   2.213 130.588  0.00  0.00    +0.000 A 
ATOM      6  C   UNL     1      -8.211   1.559 131.468  0.00  0.00    +0.000 A 
ATOM      7  C   UNL     1      -7.399   0.405 131.435  0.00  0.00    +0.000 A 
ATOM      8  C   UNL     1      -6.528   0.133 132.511  0.00  0.00    +0.000 A 
ATOM      9  C   UNL     1      -6.424   1.035 133.573  0.00  0.00    +0.000 A 
ATOM     10  C   UNL     1      -7.243   2.171 133.641  0.00  0.00    +0.000 A 
ATOM     11  C   UNL     1      -8.156   2.356 132.599  0.00  0.00    +0.000 A 
ATOM     12  O   UNL     1      -9.088   3.353 132.506  0.00  0.00    +0.000 OA
BRANCH   8  13
ATOM     13  O   UNL     1      -5.834  -1.047 132.412  0.00  0.00    +0.000 OA
ATOM     14  C   UNL     1      -6.231  -2.095 133.293  0.00  0.00    +0.000 C 
ENDBRANCH   8  13
ENDBRANCH   2   4
BRANCH   1  15
ATOM     15  C   UNL     1     -10.866   6.929 130.347  0.00  0.00    +0.000 A 
ATOM     16  C   UNL     1     -10.496   7.629 129.189  0.00  0.00    +0.000 A 
ATOM     17  C   UNL     1     -11.339   8.600 128.629  0.00  0.00    +0.000 A 
ATOM     18  C   UNL     1     -12.538   8.899 129.251  0.00  0.00    +0.000 A 
ATOM     19  N   UNL     1     -12.911   8.284 130.391  0.00  0.00    +0.000 NA
ATOM     20  C   UNL     1     -12.087   7.316 130.898  0.00  0.00    +0.000 A 
BRANCH  18  21
ATOM     21  O   UNL     1     -13.449   9.815 128.796  0.00  0.00    +0.000 OA
ATOM     22  C   UNL     1     -13.636  10.984 129.587  0.00  0.00    +0.000 C 
ENDBRANCH  18  21
ENDBRANCH   1  15
BRANCH   1  24
ATOM     23  C   UNL     1      -7.536   6.513 131.027  0.00  0.00    +0.000 C 
ATOM     24  C   UNL     1      -8.869   6.444 131.710  0.00  0.00    +0.000 C 
ENDBRANCH   1  24
TORSDOF 5
ENDMDL
MODEL 3
REMARK VINA RESULT:      -6.6      2.857      8.599
REMARK  Name = CHEMBL1093341
REMARK  8 active torsions:
REMARK  status: ('A' for Active; 'I' for Inactive)
REMARK    1  A    between atoms: C_1  and  C_2
REMARK    2  A    between atoms: C_2  and  N_3
REMARK    3  A    between atoms: N_3  and  C_17
REMARK    4  A    between atoms: C_4  and  C_6
REMARK    5  A    between atoms: C_10  and  O_11
REMARK    6  A    between atoms: O_11  and  C_12
REMARK    7  A    between atoms: C_20  and  O_21
REMARK    8  A    between atoms: O_21  and  C_22
REMARK                            x       y       z     vdW  Elec       q    Type
REMARK                         _______ _______ _______ _____ _____    ______ ____
ROOT
ATOM      1  N   UNL     1      -7.965   4.677 131.834  0.00  0.00    +0.000 N 
ATOM      2  C   UNL     1      -9.132   4.324 131.053  0.00  0.00    +0.000 C 
ATOM      3  O   UNL     1      -9.450   3.143 130.934  0.00  0.00    +0.000 OA
ENDROOT
BRANCH   2   4
ATOM      4  C   UNL     1     -10.052   5.341 130.504  0.00  0.00    +0.000 A 
ATOM      5  C   UNL     1     -11.012   6.125 131.137  0.00  0.00    +0.000 A 
ATOM      6  C   UNL     1     -11.501   7.067 130.181  0.00  0.00    +0.000 A 
ATOM      7  C   UNL     1     -12.400   8.155 130.176  0.00  0.00    +0.000 A 
ATOM      8  C   UNL     1     -12.555   8.928 129.006  0.00  0.00    +0.000 A 
ATOM      9  C   UNL     1     -11.774   8.657 127.879  0.00  0.00    +0.000 A 
ATOM     10  C   UNL     1     -10.898   7.563 127.852  0.00  0.00    +0.000 A 
ATOM     11  C   UNL     1     -10.842   6.769 129.000  0.00  0.00    +0.000 A 
ATOM     12  O   UNL     1     -10.110   5.623 129.158  0.00  0.00    +0.000 OA
BRANCH   8  13
ATOM     13  O   UNL     1     -13.501   9.918 129.085  0.00  0.00    +0.000 OA
ATOM     14  C   UNL     1     -13.364  10.848 130.157  0.00  0.00    +0.000 C 
ENDBRANCH   8  13
ENDBRANCH   2   4
BRANCH   1  15
ATOM     15  C   UNL     1      -7.140   3.595 132.376  0.00  0.00    +0.000 A 
ATOM     16  C   UNL     1      -7.348   3.063 133.657  0.00  0.00    +0.000 A 
ATOM     17  C   UNL     1      -6.557   2.009 134.139  0.00  0.00    +0.000 A 
ATOM     18  C   UNL     1      -5.532   1.513 133.353  0.00  0.00    +0.000 A 
ATOM     19  N   UNL     1      -5.269   2.028 132.135  0.00  0.00    +0.000 NA
ATOM     20  C   UNL     1      -6.075   3.031 131.674  0.00  0.00    +0.000 A 
BRANCH  18  21
ATOM     21  O   UNL     1      -4.703   0.482 133.707  0.00  0.00    +0.000 OA
ATOM     22  C   UNL     1      -3.765   0.047 132.729  0.00  0.00    +0.000 C 
ENDBRANCH  18  21
ENDBRANCH   1  15
BRANCH   1  24
ATOM     23  C   UNL     1      -6.696   6.811 131.202  0.00  0.00    +0.000 C 
ATOM     24  C   UNL     1      -7.479   6.033 132.218  0.00  0.00    +0.000 C 
ENDBRANCH   1  24
TORSDOF 5
ENDMDL
MODEL 4
REMARK VINA RESULT:      -6.6      7.647      9.219
REMARK  Name = CHEMBL1093341
REMARK  8 active torsions:
REMARK  status: ('A' for Active; 'I' for Inactive)
REMARK    1  A    between atoms: C_1  and  C_2
REMARK    2  A    between atoms: C_2  and  N_3
REMARK    3  A    between atoms: N_3  and  C_17
REMARK    4  A    between atoms: C_4  and  C_6
REMARK    5  A    between atoms: C_10  and  O_11
REMARK    6  A    between atoms: O_11  and  C_12
REMARK    7  A    between atoms: C_20  and  O_21
REMARK    8  A    between atoms: O_21  and  C_22
REMARK                            x       y       z     vdW  Elec       q    Type
REMARK                         _______ _______ _______ _____ _____    ______ ____
ROOT
ATOM      1  N   UNL     1      -4.018   3.729 126.585  0.00  0.00    +0.000 N 
ATOM      2  C   UNL     1      -4.219   4.841 127.491  0.00  0.00    +0.000 C 
ATOM      3  O   UNL     1      -5.201   5.565 127.355  0.00  0.00    +0.000 OA
ENDROOT
BRANCH   2   4
ATOM      4  C   UNL     1      -3.362   5.059 128.674  0.00  0.00    +0.000 A 
ATOM      5  C   UNL     1      -2.421   6.050 128.936  0.00  0.00    +0.000 A 
ATOM      6  C   UNL     1      -2.003   5.902 130.294  0.00  0.00    +0.000 A 
ATOM      7  C   UNL     1      -1.155   6.588 131.190  0.00  0.00    +0.000 A 
ATOM      8  C   UNL     1      -1.070   6.166 132.533  0.00  0.00    +0.000 A 
ATOM      9  C   UNL     1      -1.869   5.114 132.989  0.00  0.00    +0.000 A 
ATOM     10  C   UNL     1      -2.695   4.399 132.110  0.00  0.00    +0.000 A 
ATOM     11  C   UNL     1      -2.682   4.792 130.769  0.00  0.00    +0.000 A 
ATOM     12  O   UNL     1      -3.357   4.191 129.741  0.00  0.00    +0.000 OA
BRANCH   8  13
ATOM     13  O   UNL     1      -0.167   6.855 133.303  0.00  0.00    +0.000 OA
ATOM     14  C   UNL     1      -0.530   8.182 133.677  0.00  0.00    +0.000 C 
ENDBRANCH   8  13
ENDBRANCH   2   4
BRANCH   1  15
ATOM     15  C   UNL     1      -4.950   3.569 125.466  0.00  0.00    +0.000 A 
ATOM     16  C   UNL     1      -4.871   4.353 124.306  0.00  0.00    +0.000 A 
ATOM     17  C   UNL     1      -5.761   4.160 123.239  0.00  0.00    +0.000 A 
ATOM     18  C   UNL     1      -6.757   3.204 123.350  0.00  0.00    +0.000 A 
ATOM     19  N   UNL     1      -6.896   2.461 124.466  0.00  0.00    +0.000 NA
ATOM     20  C   UNL     1      -5.994   2.645 125.478  0.00  0.00    +0.000 A 
BRANCH  18  21
ATOM     21  O   UNL     1      -7.674   2.914 122.376  0.00  0.00    +0.000 OA
ATOM     22  C   UNL     1      -8.948   2.451 122.810  0.00  0.00    +0.000 C 
ENDBRANCH  18  21
ENDBRANCH   1  15
BRANCH   1  24
ATOM     23  C   UNL     1      -1.547   3.057 126.495  0.00  0.00    +0.000 C 
ATOM     24  C   UNL     1      -2.985   2.656 126.644  0.00  0.00    +0.000 C 
ENDBRANCH   1  24
TORSDOF 5
ENDMDL
MODEL 5
REMARK VINA RESULT:      -6.5      2.149      3.068
REMARK  Name = CHEMBL1093341
REMARK  8 active torsions:
REMARK  status: ('A' for Active; 'I' for Inactive)
REMARK    1  A    between atoms: C_1  and  C_2
REMARK    2  A    between atoms: C_2  and  N_3
REMARK    3  A    between atoms: N_3  and  C_17
REMARK    4  A    between atoms: C_4  and  C_6
REMARK    5  A    between atoms: C_10  and  O_11
REMARK    6  A    between atoms: O_11  and  C_12
REMARK    7  A    between atoms: C_20  and  O_21
REMARK    8  A    between atoms: O_21  and  C_22
REMARK                            x       y       z     vdW  Elec       q    Type
REMARK                         _______ _______ _______ _____ _____    ______ ____
ROOT
ATOM      1  N   UNL     1      -8.680   3.007 130.615  0.00  0.00    +0.000 N 
ATOM      2  C   UNL     1      -8.625   1.981 129.594  0.00  0.00    +0.000 C 
ATOM      3  O   UNL     1      -9.081   2.211 128.477  0.00  0.00    +0.000 OA
ENDROOT
BRANCH   2   4
ATOM      4  C   UNL     1      -7.907   0.706 129.794  0.00  0.00    +0.000 A 
ATOM      5  C   UNL     1      -8.257  -0.421 130.531  0.00  0.00    +0.000 A 
ATOM      6  C   UNL     1      -7.295  -1.439 130.250  0.00  0.00    +0.000 A 
ATOM      7  C   UNL     1      -7.101  -2.794 130.595  0.00  0.00    +0.000 A 
ATOM      8  C   UNL     1      -6.035  -3.515 130.018  0.00  0.00    +0.000 A 
ATOM      9  C   UNL     1      -5.215  -2.909 129.062  0.00  0.00    +0.000 A 
ATOM     10  C   UNL     1      -5.371  -1.557 128.727  0.00  0.00    +0.000 A 
ATOM     11  C   UNL     1      -6.382  -0.854 129.388  0.00  0.00    +0.000 A 
ATOM     12  O   UNL     1      -6.658   0.480 129.262  0.00  0.00    +0.000 OA
BRANCH   8  13
ATOM     13  O   UNL     1      -5.892  -4.803 130.471  0.00  0.00    +0.000 OA
ATOM     14  C   UNL     1      -5.365  -4.962 131.786  0.00  0.00    +0.000 C 
ENDBRANCH   8  13
ENDBRANCH   2   4
BRANCH   1  15
ATOM     15  C   UNL     1      -9.375   4.258 130.305  0.00  0.00    +0.000 A 
ATOM     16  C   UNL     1     -10.761   4.403 130.458  0.00  0.00    +0.000 A 
ATOM     17  C   UNL     1     -11.397   5.622 130.178  0.00  0.00    +0.000 A 
ATOM     18  C   UNL     1     -10.648   6.686 129.707  0.00  0.00    +0.000 A 
ATOM     19  N   UNL     1      -9.320   6.574 129.502  0.00  0.00    +0.000 NA
ATOM     20  C   UNL     1      -8.719   5.387 129.815  0.00  0.00    +0.000 A 
BRANCH  18  21
ATOM     21  O   UNL     1     -11.149   7.926 129.411  0.00  0.00    +0.000 OA
ATOM     22  C   UNL     1     -10.788   8.482 128.152  0.00  0.00    +0.000 C 
ENDBRANCH  18  21
ENDBRANCH   1  15
BRANCH   1  24
ATOM     23  C   UNL     1      -8.979   2.713 133.143  0.00  0.00    +0.000 C 
ATOM     24  C   UNL     1      -8.076   2.994 131.978  0.00  0.00    +0.000 C 
ENDBRANCH   1  24
TORSDOF 5
ENDMDL
MODEL 6
REMARK VINA RESULT:      -6.4      5.689      7.830
REMARK  Name = CHEMBL1093341
REMARK  8 active torsions:
REMARK  status: ('A' for Active; 'I' for Inactive)
REMARK    1  A    between atoms: C_1  and  C_2
REMARK    2  A    between atoms: C_2  and  N_3
REMARK    3  A    between atoms: N_3  and  C_17
REMARK    4  A    between atoms: C_4  and  C_6
REMARK    5  A    between atoms: C_10  and  O_11
REMARK    6  A    between atoms: O_11  and  C_12
REMARK    7  A    between atoms: C_20  and  O_21
REMARK    8  A    between atoms: O_21  and  C_22
REMARK                            x       y       z     vdW  Elec       q    Type
REMARK                         _______ _______ _______ _____ _____    ______ ____
ROOT
ATOM      1  N   UNL     1      -6.612   3.735 125.927  0.00  0.00    +0.000 N 
ATOM      2  C   UNL     1      -7.888   4.274 126.349  0.00  0.00    +0.000 C 
ATOM      3  O   UNL     1      -8.719   4.600 125.505  0.00  0.00    +0.000 OA
ENDROOT
BRANCH   2   4
ATOM      4  C   UNL     1      -8.298   4.314 127.767  0.00  0.00    +0.000 A 
ATOM      5  C   UNL     1      -8.325   3.308 128.728  0.00  0.00    +0.000 A 
ATOM      6  C   UNL     1      -8.638   3.915 129.983  0.00  0.00    +0.000 A 
ATOM      7  C   UNL     1      -8.752   3.499 131.327  0.00  0.00    +0.000 A 
ATOM      8  C   UNL     1      -9.000   4.454 132.335  0.00  0.00    +0.000 A 
ATOM      9  C   UNL     1      -9.068   5.812 132.012  0.00  0.00    +0.000 A 
ATOM     10  C   UNL     1      -8.988   6.244 130.681  0.00  0.00    +0.000 A 
ATOM     11  C   UNL     1      -8.833   5.258 129.704  0.00  0.00    +0.000 A 
ATOM     12  O   UNL     1      -8.802   5.455 128.349  0.00  0.00    +0.000 OA
BRANCH   8  13
ATOM     13  O   UNL     1      -9.162   3.938 133.596  0.00  0.00    +0.000 OA
ATOM     14  C   UNL     1      -8.230   4.369 134.586  0.00  0.00    +0.000 C 
ENDBRANCH   8  13
ENDBRANCH   2   4
BRANCH   1  15
ATOM     15  C   UNL     1      -6.315   3.694 124.493  0.00  0.00    +0.000 A 
ATOM     16  C   UNL     1      -6.837   2.705 123.648  0.00  0.00    +0.000 A 
ATOM     17  C   UNL     1      -6.557   2.706 122.273  0.00  0.00    +0.000 A 
ATOM     18  C   UNL     1      -5.721   3.677 121.751  0.00  0.00    +0.000 A 
ATOM     19  N   UNL     1      -5.161   4.619 122.537  0.00  0.00    +0.000 NA
ATOM     20  C   UNL     1      -5.478   4.617 123.867  0.00  0.00    +0.000 A 
BRANCH  18  21
ATOM     21  O   UNL     1      -5.383   3.791 120.428  0.00  0.00    +0.000 OA
ATOM     22  C   UNL     1      -5.672   5.033 119.795  0.00  0.00    +0.000 C 
ENDBRANCH  18  21
ENDBRANCH   1  15
BRANCH   1  24
ATOM     23  C   UNL     1      -5.300   1.675 126.703  0.00  0.00    +0.000 C 
ATOM     24  C   UNL     1      -5.523   3.157 126.766  0.00  0.00    +0.000 C 
ENDBRANCH   1  24
TORSDOF 5
ENDMDL
MODEL 7
REMARK VINA RESULT:      -6.2      6.903      8.464
REMARK  Name = CHEMBL1093341
REMARK  8 active torsions:
REMARK  status: ('A' for Active; 'I' for Inactive)
REMARK    1  A    between atoms: C_1  and  C_2
REMARK    2  A    between atoms: C_2  and  N_3
REMARK    3  A    between atoms: N_3  and  C_17
REMARK    4  A    between atoms: C_4  and  C_6
REMARK    5  A    between atoms: C_10  and  O_11
REMARK    6  A    between atoms: O_11  and  C_12
REMARK    7  A    between atoms: C_20  and  O_21
REMARK    8  A    between atoms: O_21  and  C_22
REMARK                            x       y       z     vdW  Elec       q    Type
REMARK                         _______ _______ _______ _____ _____    ______ ____
ROOT
ATOM      1  N   UNL     1      -4.242   4.068 127.209  0.00  0.00    +0.000 N 
ATOM      2  C   UNL     1      -5.675   3.864 127.256  0.00  0.00    +0.000 C 
ATOM      3  O   UNL     1      -6.346   4.458 128.095  0.00  0.00    +0.000 OA
ENDROOT
BRANCH   2   4
ATOM      4  C   UNL     1      -6.394   3.074 126.235  0.00  0.00    +0.000 A 
ATOM      5  C   UNL     1      -6.779   1.738 126.235  0.00  0.00    +0.000 A 
ATOM      6  C   UNL     1      -7.598   1.523 125.083  0.00  0.00    +0.000 A 
ATOM      7  C   UNL     1      -8.344   0.457 124.536  0.00  0.00    +0.000 A 
ATOM      8  C   UNL     1      -9.126   0.673 123.382  0.00  0.00    +0.000 A 
ATOM      9  C   UNL     1      -9.211   1.951 122.821  0.00  0.00    +0.000 A 
ATOM     10  C   UNL     1      -8.454   3.016 123.330  0.00  0.00    +0.000 A 
ATOM     11  C   UNL     1      -7.623   2.738 124.419  0.00  0.00    +0.000 A 
ATOM     12  O   UNL     1      -6.757   3.610 125.021  0.00  0.00    +0.000 OA
BRANCH   8  13
ATOM     13  O   UNL     1      -9.758  -0.442 122.892  0.00  0.00    +0.000 OA
ATOM     14  C   UNL     1      -9.071  -1.683 123.043  0.00  0.00    +0.000 C 
ENDBRANCH   8  13
ENDBRANCH   2   4
BRANCH   1  15
ATOM     15  C   UNL     1      -3.626   4.907 128.240  0.00  0.00    +0.000 A 
ATOM     16  C   UNL     1      -3.251   6.236 128.000  0.00  0.00    +0.000 A 
ATOM     17  C   UNL     1      -2.687   7.024 129.014  0.00  0.00    +0.000 A 
ATOM     18  C   UNL     1      -2.462   6.466 130.261  0.00  0.00    +0.000 A 
ATOM     19  N   UNL     1      -2.765   5.178 130.520  0.00  0.00    +0.000 NA
ATOM     20  C   UNL     1      -3.346   4.443 129.524  0.00  0.00    +0.000 A 
BRANCH  18  21
ATOM     21  O   UNL     1      -1.931   7.134 131.332  0.00  0.00    +0.000 OA
ATOM     22  C   UNL     1      -0.753   6.585 131.913  0.00  0.00    +0.000 C 
ENDBRANCH  18  21
ENDBRANCH   1  15
BRANCH   1  24
ATOM     23  C   UNL     1      -1.954   3.031 126.705  0.00  0.00    +0.000 C 
ATOM     24  C   UNL     1      -3.264   3.563 126.204  0.00  0.00    +0.000 C 
ENDBRANCH   1  24
TORSDOF 5
ENDMDL
MODEL 8
REMARK VINA RESULT:      -6.1      6.958      7.822
REMARK  Name = CHEMBL1093341
REMARK  8 active torsions:
REMARK  status: ('A' for Active; 'I' for Inactive)
REMARK    1  A    between atoms: C_1  and  C_2
REMARK    2  A    between atoms: C_2  and  N_3
REMARK    3  A    between atoms: N_3  and  C_17
REMARK    4  A    between atoms: C_4  and  C_6
REMARK    5  A    between atoms: C_10  and  O_11
REMARK    6  A    between atoms: O_11  and  C_12
REMARK    7  A    between atoms: C_20  and  O_21
REMARK    8  A    between atoms: O_21  and  C_22
REMARK                            x       y       z     vdW  Elec       q    Type
REMARK                         _______ _______ _______ _____ _____    ______ ____
ROOT
ATOM      1  N   UNL     1      -3.943   3.941 127.877  0.00  0.00    +0.000 N 
ATOM      2  C   UNL     1      -5.241   3.643 127.307  0.00  0.00    +0.000 C 
ATOM      3  O   UNL     1      -6.154   4.457 127.414  0.00  0.00    +0.000 OA
ENDROOT
BRANCH   2   4
ATOM      4  C   UNL     1      -5.479   2.452 126.466  0.00  0.00    +0.000 A 
ATOM      5  C   UNL     1      -5.224   1.107 126.713  0.00  0.00    +0.000 A 
ATOM      6  C   UNL     1      -5.802   0.352 125.646  0.00  0.00    +0.000 A 
ATOM      7  C   UNL     1      -5.964  -1.012 125.322  0.00  0.00    +0.000 A 
ATOM      8  C   UNL     1      -6.702  -1.373 124.175  0.00  0.00    +0.000 A 
ATOM      9  C   UNL     1      -7.323  -0.388 123.402  0.00  0.00    +0.000 A 
ATOM     10  C   UNL     1      -7.149   0.973 123.689  0.00  0.00    +0.000 A 
ATOM     11  C   UNL     1      -6.337   1.291 124.780  0.00  0.00    +0.000 A 
ATOM     12  O   UNL     1      -5.983   2.549 125.189  0.00  0.00    +0.000 OA
BRANCH   8  13
ATOM     13  O   UNL     1      -6.742  -2.719 123.910  0.00  0.00    +0.000 OA
ATOM     14  C   UNL     1      -5.493  -3.405 123.902  0.00  0.00    +0.000 C 
ENDBRANCH   8  13
ENDBRANCH   2   4
BRANCH   1  15
ATOM     15  C   UNL     1      -3.794   5.171 128.657  0.00  0.00    +0.000 A 
ATOM     16  C   UNL     1      -3.530   6.412 128.058  0.00  0.00    +0.000 A 
ATOM     17  C   UNL     1      -3.418   7.578 128.829  0.00  0.00    +0.000 A 
ATOM     18  C   UNL     1      -3.532   7.496 130.206  0.00  0.00    +0.000 A 
ATOM     19  N   UNL     1      -3.740   6.317 130.825  0.00  0.00    +0.000 NA
ATOM     20  C   UNL     1      -3.880   5.200 130.048  0.00  0.00    +0.000 A 
BRANCH  18  21
ATOM     21  O   UNL     1      -3.454   8.562 131.062  0.00  0.00    +0.000 OA
ATOM     22  C   UNL     1      -2.683   8.383 132.244  0.00  0.00    +0.000 C 
ENDBRANCH  18  21
ENDBRANCH   1  15
BRANCH   1  24
ATOM     23  C   UNL     1      -1.919   3.265 126.459  0.00  0.00    +0.000 C 
ATOM     24  C   UNL     1      -2.674   3.169 127.752  0.00  0.00    +0.000 C 
ENDBRANCH   1  24
TORSDOF 5
ENDMDL
MODEL 9
REMARK VINA RESULT:      -6.0      7.091      8.942
REMARK  Name = CHEMBL1093341
REMARK  8 active torsions:
REMARK  status: ('A' for Active; 'I' for Inactive)
REMARK    1  A    between atoms: C_1  and  C_2
REMARK    2  A    between atoms: C_2  and  N_3
REMARK    3  A    between atoms: N_3  and  C_17
REMARK    4  A    between atoms: C_4  and  C_6
REMARK    5  A    between atoms: C_10  and  O_11
REMARK    6  A    between atoms: O_11  and  C_12
REMARK    7  A    between atoms: C_20  and  O_21
REMARK    8  A    between atoms: O_21  and  C_22
REMARK                            x       y       z     vdW  Elec       q    Type
REMARK                         _______ _______ _______ _____ _____    ______ ____
ROOT
ATOM      1  N   UNL     1      -3.223   5.889 130.296  0.00  0.00    +0.000 N 
ATOM      2  C   UNL     1      -2.954   6.023 128.880  0.00  0.00    +0.000 C 
ATOM      3  O   UNL     1      -2.032   6.741 128.501  0.00  0.00    +0.000 OA
ENDROOT
BRANCH   2   4
ATOM      4  C   UNL     1      -3.656   5.214 127.863  0.00  0.00    +0.000 A 
ATOM      5  C   UNL     1      -3.525   3.868 127.533  0.00  0.00    +0.000 A 
ATOM      6  C   UNL     1      -4.559   3.548 126.600  0.00  0.00    +0.000 A 
ATOM      7  C   UNL     1      -5.025   2.391 125.939  0.00  0.00    +0.000 A 
ATOM      8  C   UNL     1      -6.178   2.468 125.130  0.00  0.00    +0.000 A 
ATOM      9  C   UNL     1      -6.891   3.666 125.036  0.00  0.00    +0.000 A 
ATOM     10  C   UNL     1      -6.429   4.833 125.659  0.00  0.00    +0.000 A 
ATOM     11  C   UNL     1      -5.234   4.737 126.377  0.00  0.00    +0.000 A 
ATOM     12  O   UNL     1      -4.576   5.763 127.000  0.00  0.00    +0.000 OA
BRANCH   8  13
ATOM     13  O   UNL     1      -6.508   1.306 124.478  0.00  0.00    +0.000 OA
ATOM     14  C   UNL     1      -7.212   1.443 123.246  0.00  0.00    +0.000 C 
ENDBRANCH   8  13
ENDBRANCH   2   4
BRANCH   1  15
ATOM     15  C   UNL     1      -2.442   6.702 131.231  0.00  0.00    +0.000 A 
ATOM     16  C   UNL     1      -1.183   6.302 131.703  0.00  0.00    +0.000 A 
ATOM     17  C   UNL     1      -0.446   7.113 132.578  0.00  0.00    +0.000 A 
ATOM     18  C   UNL     1      -0.987   8.311 133.011  0.00  0.00    +0.000 A 
ATOM     19  N   UNL     1      -2.213   8.712 132.619  0.00  0.00    +0.000 NA
ATOM     20  C   UNL     1      -2.896   7.919 131.738  0.00  0.00    +0.000 A 
BRANCH  18  21
ATOM     21  O   UNL     1      -0.362   9.193 133.852  0.00  0.00    +0.000 OA
ATOM     22  C   UNL     1      -0.486  10.576 133.540  0.00  0.00    +0.000 C 
ENDBRANCH  18  21
ENDBRANCH   1  15
BRANCH   1  24
ATOM     23  C   UNL     1      -3.743   3.585 131.288  0.00  0.00    +0.000 C 
ATOM     24  C   UNL     1      -4.191   4.982 130.977  0.00  0.00    +0.000 C 
ENDBRANCH   1  24
TORSDOF 5
ENDMDL
