MODEL 1
REMARK VINA RESULT:      -7.7      0.000      0.000
REMARK  Name = CHEMBL1630522
REMARK  23 active torsions:
REMARK  status: ('A' for Active; 'I' for Inactive)
REMARK    1  A    between atoms: C_1  and  C_2
REMARK    2  A    between atoms: C_2  and  C_3
REMARK    3  A    between atoms: C_3  and  C_4
REMARK    4  A    between atoms: C_3  and  C_5
REMARK    5  A    between atoms: C_9  and  C_10
REMARK    6  A    between atoms: C_10  and  C_11
REMARK    7  A    between atoms: C_14  and  O_15
REMARK    8  A    between atoms: C_21  and  N_22
REMARK    9  A    between atoms: C_27  and  C_28
REMARK   10  A    between atoms: C_34  and  C_35
REMARK   11  A    between atoms: N_37  and  C_38
REMARK   12  A    between atoms: C_38  and  C_39
REMARK   13  A    between atoms: C_38  and  N_43
REMARK   14  A    between atoms: C_39  and  C_40
REMARK   15  A    between atoms: C_40  and  C_41
REMARK   16  A    between atoms: C_40  and  C_42
REMARK   17  A    between atoms: N_43  and  C_44
REMARK   18  A    between atoms: C_44  and  C_45
REMARK   19  A    between atoms: C_51  and  C_52
REMARK   20  A    between atoms: C_52  and  C_53
REMARK   21  A    between atoms: C_59  and  C_60
REMARK   22  A    between atoms: C_60  and  C_61
REMARK   23  A    between atoms: C_61  and  C_62
REMARK                            x       y       z     vdW  Elec       q    Type
REMARK                         _______ _______ _______ _____ _____    ______ ____
ROOT
ATOM      1  C   UNL     1      -4.151   5.305 135.195  0.00  0.00    +0.000 C 
ATOM      2  N   UNL     1      -6.237  -5.995 139.102  0.00  0.00    +0.000 N 
ATOM      3  C   UNL     1      -6.049  -5.117 137.937  0.00  0.00    +0.000 C 
ATOM      4  O   UNL     1      -6.972  -4.318 137.587  0.00  0.00    +0.000 OA
ATOM      5  C   UNL     1      -4.748  -5.168 137.152  0.00  0.00    +0.000 C 
ATOM      6  N   UNL     1      -5.031  -5.540 135.759  0.00  0.00    +0.000 N 
ATOM      7  C   UNL     1      -5.910  -4.696 134.937  0.00  0.00    +0.000 C 
ATOM      8  O   UNL     1      -6.154  -5.019 133.732  0.00  0.00    +0.000 OA
ATOM      9  C   UNL     1      -6.526  -3.439 135.527  0.00  0.00    +0.000 C 
ATOM     10  C   UNL     1      -6.076  -2.229 134.724  0.00  0.00    +0.000 C 
ATOM     11 SE   UNL     1      -6.655  -2.428 132.862  0.00  0.00    +0.000 Se
ATOM     12  S   UNL     1      -5.988  -0.637 131.675  0.00  0.00    +0.000 S 
ATOM     13  C   UNL     1      -6.522  -0.820 129.955  0.00  0.00    +0.000 C 
ATOM     14  C   UNL     1      -6.072   0.390 129.153  0.00  0.00    +0.000 C 
ATOM     15  N   UNL     1      -6.669   1.606 129.724  0.00  0.00    +0.000 N 
ATOM     16  C   UNL     1      -6.386   1.979 131.117  0.00  0.00    +0.000 C 
ATOM     17  O   UNL     1      -6.902   3.030 131.611  0.00  0.00    +0.000 OA
ATOM     18  C   UNL     1      -5.477   1.107 131.968  0.00  0.00    +0.000 C 
ATOM     19  N   UNL     1      -4.319   1.894 132.414  0.00  0.00    +0.000 N 
ATOM     20  C   UNL     1      -4.520   3.099 133.230  0.00  0.00    +0.000 C 
ATOM     21  O   UNL     1      -3.519   3.781 133.617  0.00  0.00    +0.000 OA
ATOM     22  C   UNL     1      -5.926   3.531 133.615  0.00  0.00    +0.000 C 
ATOM     23  N   UNL     1      -6.051   3.549 135.079  0.00  0.00    +0.000 N 
ATOM     24  C   UNL     1      -5.181   4.421 135.881  0.00  0.00    +0.000 C 
ATOM     25  O   UNL     1      -5.288   4.435 137.147  0.00  0.00    +0.000 OA
ATOM     26  H   UNL     1      -6.393  -6.780 139.675  0.00  0.00    +0.000 HD
ATOM     27  H   UNL     1      -4.631  -6.354 135.376  0.00  0.00    +0.000 HD
ATOM     28  H   UNL     1      -7.257   2.170 129.173  0.00  0.00    +0.000 HD
ATOM     29  H   UNL     1      -3.408   1.615 132.165  0.00  0.00    +0.000 HD
ATOM     30  H   UNL     1      -6.717   2.975 135.523  0.00  0.00    +0.000 HD
ENDROOT
BRANCH  14  31
ATOM     31  C   UNL     1      -6.521   0.235 127.708  0.00  0.00    +0.000 C 
ATOM     32  O   UNL     1      -7.232  -0.762 127.368  0.00  0.00    +0.000 OA
ATOM     33  N   UNL     1      -6.132   1.238 126.707  0.00  0.00    +0.000 N 
ATOM     34  C   UNL     1      -4.779   1.805 126.560  0.00  0.00    +0.000 C 
ATOM     35  C   UNL     1      -5.078   3.219 126.144  0.00  0.00    +0.000 C 
ATOM     36  C   UNL     1      -6.215   3.041 125.093  0.00  0.00    +0.000 C 
ATOM     37  C   UNL     1      -6.997   1.836 125.621  0.00  0.00    +0.000 C 
BRANCH  37  38
ATOM     38  C   UNL     1      -7.230   0.826 124.510  0.00  0.00    +0.000 C 
ATOM     39  O   UNL     1      -6.702   1.005 123.367  0.00  0.00    +0.000 OA
ATOM     40  N   UNL     1      -8.065  -0.359 124.756  0.00  0.00    +0.000 N 
ATOM     41  H   UNL     1      -8.473  -0.498 125.640  0.00  0.00    +0.000 HD
BRANCH  40  42
ATOM     42  C   UNL     1      -8.289  -1.336 123.680  0.00  0.00    +0.000 C 
BRANCH  42  43
ATOM     43  N   UNL     1      -9.711  -1.333 123.305  0.00  0.00    +0.000 NA
ATOM     44  H   UNL     1     -10.275  -1.073 124.114  0.00  0.00    +0.000 HD
BRANCH  43  45
ATOM     45  C   UNL     1      -9.928  -0.361 122.224  0.00  0.00    +0.000 C 
BRANCH  45  46
ATOM     46  C   UNL     1     -10.241   1.001 122.822  0.00  0.00    +0.000 C 
ATOM     47  N   UNL     1      -9.488   2.186 122.386  0.00  0.00    +0.000 N 
ATOM     48  O   UNL     1     -11.154   1.116 123.699  0.00  0.00    +0.000 OA
ATOM     49  H   UNL     1      -8.782   2.097 121.707  0.00  0.00    +0.000 HD
ATOM     50  H   UNL     1      -9.690   3.068 122.773  0.00  0.00    +0.000 HD
ENDBRANCH  45  46
ENDBRANCH  43  45
ENDBRANCH  42  43
BRANCH  42  51
ATOM     51  C   UNL     1      -7.896  -2.721 124.165  0.00  0.00    +0.000 C 
BRANCH  51  52
ATOM     52  C   UNL     1      -6.472  -3.025 123.731  0.00  0.00    +0.000 C 
ATOM     53  C   UNL     1      -6.125  -2.191 122.508  0.00  0.00    +0.000 C 
ATOM     54  C   UNL     1      -5.514  -2.688 124.862  0.00  0.00    +0.000 C 
ENDBRANCH  51  52
ENDBRANCH  42  51
ENDBRANCH  40  42
ENDBRANCH  37  38
ENDBRANCH  14  31
BRANCH   9  55
ATOM     55  N   UNL     1      -6.092  -3.290 136.923  0.00  0.00    +0.000 NA
ATOM     56  H   UNL     1      -5.167  -2.863 136.948  0.00  0.00    +0.000 HD
ATOM     57  H   UNL     1      -6.056  -4.208 137.368  0.00  0.00    +0.000 HD
ENDBRANCH   9  55
BRANCH   1  58
ATOM     58  C   UNL     1      -4.228   5.099 133.691  0.00  0.00    +0.000 C 
ATOM     59  C   UNL     1      -4.439   6.439 133.007  0.00  0.00    +0.000 C 
BRANCH  58  61
ATOM     60  C   UNL     1      -1.510   4.375 132.667  0.00  0.00    +0.000 C 
ATOM     61  C   UNL     1      -2.931   4.477 133.198  0.00  0.00    +0.000 C 
ENDBRANCH  58  61
ENDBRANCH   1  58
BRANCH  18  62
ATOM     62  C   UNL     1      -6.244   0.604 133.180  0.00  0.00    +0.000 C 
BRANCH  62  63
ATOM     63  C   UNL     1      -5.198   0.421 134.267  0.00  0.00    +0.000 C 
ATOM     64  N   UNL     1      -3.907  -0.205 133.946  0.00  0.00    +0.000 N 
ATOM     65  O   UNL     1      -5.439   0.809 135.453  0.00  0.00    +0.000 OA
ATOM     66  H   UNL     1      -3.720  -0.506 133.027  0.00  0.00    +0.000 HD
ATOM     67  H   UNL     1      -3.229  -0.324 134.650  0.00  0.00    +0.000 HD
ENDBRANCH  62  63
ENDBRANCH  18  62
BRANCH   5  68
ATOM     68  C   UNL     1      -4.083  -3.801 137.187  0.00  0.00    +0.000 C 
BRANCH  68  69
ATOM     69  C   UNL     1      -2.682  -3.882 136.604  0.00  0.00    +0.000 A 
ATOM     70  C   UNL     1      -2.311  -3.034 135.584  0.00  0.00    +0.000 A 
ATOM     71  C   UNL     1      -1.024  -3.082 135.038  0.00  0.00    +0.000 A 
ATOM     72  C   UNL     1      -0.118  -4.017 135.581  0.00  0.00    +0.000 A 
ATOM     73  C   UNL     1      -0.510  -4.878 136.579  0.00  0.00    +0.000 A 
ATOM     74  C   UNL     1      -1.788  -4.804 137.095  0.00  0.00    +0.000 A 
BRANCH  72  75
ATOM     75  O   UNL     1       1.153  -4.118 135.133  0.00  0.00    +0.000 OA
ATOM     76  H   UNL     1       1.361  -4.723 134.448  0.00  0.00    +0.000 HD
ENDBRANCH  72  75
ENDBRANCH  68  69
ENDBRANCH   5  68
BRANCH  22  77
ATOM     77  C   UNL     1      -6.197   4.923 133.066  0.00  0.00    +0.000 C 
BRANCH  77  78
ATOM     78  C   UNL     1      -7.574   5.375 133.525  0.00  0.00    +0.000 C 
BRANCH  78  79
ATOM     79  C   UNL     1      -8.319   5.995 132.354  0.00  0.00    +0.000 C 
ATOM     80  N   UNL     1      -7.690   6.047 131.027  0.00  0.00    +0.000 N 
ATOM     81  O   UNL     1      -9.486   6.470 132.523  0.00  0.00    +0.000 OA
ATOM     82  H   UNL     1      -6.786   5.679 130.896  0.00  0.00    +0.000 HD
ATOM     83  H   UNL     1      -8.173   6.449 130.268  0.00  0.00    +0.000 HD
ENDBRANCH  78  79
ENDBRANCH  77  78
ENDBRANCH  22  77
TORSDOF 19
ENDMDL
MODEL 2
REMARK VINA RESULT:      -7.4      3.285      7.534
REMARK  Name = CHEMBL1630522
REMARK  23 active torsions:
REMARK  status: ('A' for Active; 'I' for Inactive)
REMARK    1  A    between atoms: C_1  and  C_2
REMARK    2  A    between atoms: C_2  and  C_3
REMARK    3  A    between atoms: C_3  and  C_4
REMARK    4  A    between atoms: C_3  and  C_5
REMARK    5  A    between atoms: C_9  and  C_10
REMARK    6  A    between atoms: C_10  and  C_11
REMARK    7  A    between atoms: C_14  and  O_15
REMARK    8  A    between atoms: C_21  and  N_22
REMARK    9  A    between atoms: C_27  and  C_28
REMARK   10  A    between atoms: C_34  and  C_35
REMARK   11  A    between atoms: N_37  and  C_38
REMARK   12  A    between atoms: C_38  and  C_39
REMARK   13  A    between atoms: C_38  and  N_43
REMARK   14  A    between atoms: C_39  and  C_40
REMARK   15  A    between atoms: C_40  and  C_41
REMARK   16  A    between atoms: C_40  and  C_42
REMARK   17  A    between atoms: N_43  and  C_44
REMARK   18  A    between atoms: C_44  and  C_45
REMARK   19  A    between atoms: C_51  and  C_52
REMARK   20  A    between atoms: C_52  and  C_53
REMARK   21  A    between atoms: C_59  and  C_60
REMARK   22  A    between atoms: C_60  and  C_61
REMARK   23  A    between atoms: C_61  and  C_62
REMARK                            x       y       z     vdW  Elec       q    Type
REMARK                         _______ _______ _______ _____ _____    ______ ____
ROOT
ATOM      1  C   UNL     1      -4.845  -4.111 134.198  0.00  0.00    +0.000 C 
ATOM      2  N   UNL     1      -2.374   6.601 139.341  0.00  0.00    +0.000 N 
ATOM      3  C   UNL     1      -3.060   5.898 138.247  0.00  0.00    +0.000 C 
ATOM      4  O   UNL     1      -2.388   5.415 137.282  0.00  0.00    +0.000 OA
ATOM      5  C   UNL     1      -4.572   5.749 138.270  0.00  0.00    +0.000 C 
ATOM      6  N   UNL     1      -5.146   6.392 137.080  0.00  0.00    +0.000 N 
ATOM      7  C   UNL     1      -4.764   5.930 135.738  0.00  0.00    +0.000 C 
ATOM      8  O   UNL     1      -5.260   6.487 134.709  0.00  0.00    +0.000 OA
ATOM      9  C   UNL     1      -3.776   4.787 135.581  0.00  0.00    +0.000 C 
ATOM     10  C   UNL     1      -4.438   3.643 134.829  0.00  0.00    +0.000 C 
ATOM     11 SE   UNL     1      -5.002   4.267 133.058  0.00  0.00    +0.000 Se
ATOM     12  S   UNL     1      -5.982   2.575 131.945  0.00  0.00    +0.000 S 
ATOM     13  C   UNL     1      -6.503   3.150 130.309  0.00  0.00    +0.000 C 
ATOM     14  C   UNL     1      -7.166   2.008 129.558  0.00  0.00    +0.000 C 
ATOM     15  N   UNL     1      -6.209   0.902 129.406  0.00  0.00    +0.000 N 
ATOM     16  C   UNL     1      -5.635   0.258 130.596  0.00  0.00    +0.000 C 
ATOM     17  O   UNL     1      -4.808  -0.698 130.465  0.00  0.00    +0.000 OA
ATOM     18  C   UNL     1      -6.030   0.736 131.984  0.00  0.00    +0.000 C 
ATOM     19  N   UNL     1      -6.648  -0.372 132.726  0.00  0.00    +0.000 N 
ATOM     20  C   UNL     1      -5.886  -1.603 132.978  0.00  0.00    +0.000 C 
ATOM     21  O   UNL     1      -6.420  -2.561 133.621  0.00  0.00    +0.000 OA
ATOM     22  C   UNL     1      -4.458  -1.731 132.472  0.00  0.00    +0.000 C 
ATOM     23  N   UNL     1      -3.552  -1.946 133.609  0.00  0.00    +0.000 N 
ATOM     24  C   UNL     1      -3.726  -3.119 134.477  0.00  0.00    +0.000 C 
ATOM     25  O   UNL     1      -2.943  -3.304 135.461  0.00  0.00    +0.000 OA
ATOM     26  H   UNL     1      -2.029   7.301 139.941  0.00  0.00    +0.000 HD
ATOM     27  H   UNL     1      -5.787   7.133 137.181  0.00  0.00    +0.000 HD
ATOM     28  H   UNL     1      -5.954   0.593 128.507  0.00  0.00    +0.000 HD
ATOM     29  H   UNL     1      -7.573  -0.290 133.054  0.00  0.00    +0.000 HD
ATOM     30  H   UNL     1      -2.828  -1.303 133.789  0.00  0.00    +0.000 HD
ENDROOT
BRANCH  14  31
ATOM     31  C   UNL     1      -7.603   2.492 128.184  0.00  0.00    +0.000 C 
ATOM     32  O   UNL     1      -8.798   2.297 127.794  0.00  0.00    +0.000 OA
ATOM     33  N   UNL     1      -6.646   3.183 127.310  0.00  0.00    +0.000 N 
ATOM     34  C   UNL     1      -5.258   2.750 127.065  0.00  0.00    +0.000 C 
ATOM     35  C   UNL     1      -4.542   4.065 126.924  0.00  0.00    +0.000 C 
ATOM     36  C   UNL     1      -5.510   4.896 126.029  0.00  0.00    +0.000 C 
ATOM     37  C   UNL     1      -6.896   4.412 126.464  0.00  0.00    +0.000 C 
BRANCH  37  38
ATOM     38  C   UNL     1      -7.740   4.060 125.251  0.00  0.00    +0.000 C 
ATOM     39  O   UNL     1      -9.000   4.230 125.283  0.00  0.00    +0.000 OA
ATOM     40  N   UNL     1      -7.102   3.523 124.041  0.00  0.00    +0.000 N 
ATOM     41  H   UNL     1      -6.127   3.392 124.016  0.00  0.00    +0.000 HD
BRANCH  40  42
ATOM     42  C   UNL     1      -7.919   3.183 122.867  0.00  0.00    +0.000 C 
BRANCH  42  43
ATOM     43  N   UNL     1      -8.826   2.076 123.207  0.00  0.00    +0.000 NA
ATOM     44  H   UNL     1      -9.399   1.844 122.395  0.00  0.00    +0.000 HD
BRANCH  43  45
ATOM     45  C   UNL     1      -8.035   0.900 123.600  0.00  0.00    +0.000 C 
BRANCH  45  46
ATOM     46  C   UNL     1      -8.911  -0.057 124.393  0.00  0.00    +0.000 C 
ATOM     47  N   UNL     1      -8.796  -0.115 125.858  0.00  0.00    +0.000 N 
ATOM     48  O   UNL     1      -9.742  -0.806 123.790  0.00  0.00    +0.000 OA
ATOM     49  H   UNL     1      -8.153   0.466 126.324  0.00  0.00    +0.000 HD
ATOM     50  H   UNL     1      -9.363  -0.734 126.372  0.00  0.00    +0.000 HD
ENDBRANCH  45  46
ENDBRANCH  43  45
ENDBRANCH  42  43
BRANCH  42  51
ATOM     51  C   UNL     1      -7.013   2.763 121.722  0.00  0.00    +0.000 C 
BRANCH  51  52
ATOM     52  C   UNL     1      -6.404   3.998 121.079  0.00  0.00    +0.000 C 
ATOM     53  C   UNL     1      -4.900   3.817 120.959  0.00  0.00    +0.000 C 
ATOM     54  C   UNL     1      -7.003   4.196 119.695  0.00  0.00    +0.000 C 
ENDBRANCH  51  52
ENDBRANCH  42  51
ENDBRANCH  40  42
ENDBRANCH  37  38
ENDBRANCH  14  31
BRANCH   9  55
ATOM     55  N   UNL     1      -3.353   4.319 136.909  0.00  0.00    +0.000 NA
ATOM     56  H   UNL     1      -2.392   3.981 136.860  0.00  0.00    +0.000 HD
ATOM     57  H   UNL     1      -3.965   3.561 137.213  0.00  0.00    +0.000 HD
ENDBRANCH   9  55
BRANCH   1  58
ATOM     58  C   UNL     1      -5.630  -3.660 132.977  0.00  0.00    +0.000 C 
ATOM     59  C   UNL     1      -5.647  -4.776 131.946  0.00  0.00    +0.000 C 
BRANCH  58  61
ATOM     60  C   UNL     1      -8.362  -3.365 134.160  0.00  0.00    +0.000 C 
ATOM     61  C   UNL     1      -7.055  -3.325 133.386  0.00  0.00    +0.000 C 
ENDBRANCH  58  61
ENDBRANCH   1  58
BRANCH  18  62
ATOM     62  C   UNL     1      -4.794   1.216 132.726  0.00  0.00    +0.000 C 
BRANCH  62  63
ATOM     63  C   UNL     1      -5.117   1.030 134.200  0.00  0.00    +0.000 C 
ATOM     64  N   UNL     1      -4.054   0.657 135.144  0.00  0.00    +0.000 N 
ATOM     65  O   UNL     1      -6.307   1.198 134.615  0.00  0.00    +0.000 OA
ATOM     66  H   UNL     1      -3.132   0.528 134.821  0.00  0.00    +0.000 HD
ATOM     67  H   UNL     1      -4.263   0.537 136.098  0.00  0.00    +0.000 HD
ENDBRANCH  62  63
ENDBRANCH  18  62
BRANCH   5  68
ATOM     68  C   UNL     1      -4.935   4.273 138.273  0.00  0.00    +0.000 C 
BRANCH  68  69
ATOM     69  C   UNL     1      -5.702   3.921 139.537  0.00  0.00    +0.000 A 
ATOM     70  C   UNL     1      -6.491   4.870 140.149  0.00  0.00    +0.000 A 
ATOM     71  C   UNL     1      -7.214   4.569 141.308  0.00  0.00    +0.000 A 
ATOM     72  C   UNL     1      -7.118   3.256 141.814  0.00  0.00    +0.000 A 
ATOM     73  C   UNL     1      -6.303   2.327 141.212  0.00  0.00    +0.000 A 
ATOM     74  C   UNL     1      -5.603   2.658 140.069  0.00  0.00    +0.000 A 
BRANCH  72  75
ATOM     75  O   UNL     1      -7.800   2.868 142.915  0.00  0.00    +0.000 OA
ATOM     76  H   UNL     1      -8.645   2.473 142.828  0.00  0.00    +0.000 HD
ENDBRANCH  72  75
ENDBRANCH  68  69
ENDBRANCH   5  68
BRANCH  22  77
ATOM     77  C   UNL     1      -4.363  -2.910 131.518  0.00  0.00    +0.000 C 
BRANCH  77  78
ATOM     78  C   UNL     1      -3.116  -2.751 130.661  0.00  0.00    +0.000 C 
BRANCH  78  79
ATOM     79  C   UNL     1      -3.378  -3.321 129.276  0.00  0.00    +0.000 C 
ATOM     80  N   UNL     1      -4.521  -2.839 128.487  0.00  0.00    +0.000 N 
ATOM     81  O   UNL     1      -2.609  -4.213 128.800  0.00  0.00    +0.000 OA
ATOM     82  H   UNL     1      -5.117  -2.148 128.856  0.00  0.00    +0.000 HD
ATOM     83  H   UNL     1      -4.691  -3.208 127.590  0.00  0.00    +0.000 HD
ENDBRANCH  78  79
ENDBRANCH  77  78
ENDBRANCH  22  77
TORSDOF 19
ENDMDL
MODEL 3
REMARK VINA RESULT:      -7.3      3.272      7.511
REMARK  Name = CHEMBL1630522
REMARK  23 active torsions:
REMARK  status: ('A' for Active; 'I' for Inactive)
REMARK    1  A    between atoms: C_1  and  C_2
REMARK    2  A    between atoms: C_2  and  C_3
REMARK    3  A    between atoms: C_3  and  C_4
REMARK    4  A    between atoms: C_3  and  C_5
REMARK    5  A    between atoms: C_9  and  C_10
REMARK    6  A    between atoms: C_10  and  C_11
REMARK    7  A    between atoms: C_14  and  O_15
REMARK    8  A    between atoms: C_21  and  N_22
REMARK    9  A    between atoms: C_27  and  C_28
REMARK   10  A    between atoms: C_34  and  C_35
REMARK   11  A    between atoms: N_37  and  C_38
REMARK   12  A    between atoms: C_38  and  C_39
REMARK   13  A    between atoms: C_38  and  N_43
REMARK   14  A    between atoms: C_39  and  C_40
REMARK   15  A    between atoms: C_40  and  C_41
REMARK   16  A    between atoms: C_40  and  C_42
REMARK   17  A    between atoms: N_43  and  C_44
REMARK   18  A    between atoms: C_44  and  C_45
REMARK   19  A    between atoms: C_51  and  C_52
REMARK   20  A    between atoms: C_52  and  C_53
REMARK   21  A    between atoms: C_59  and  C_60
REMARK   22  A    between atoms: C_60  and  C_61
REMARK   23  A    between atoms: C_61  and  C_62
REMARK                            x       y       z     vdW  Elec       q    Type
REMARK                         _______ _______ _______ _____ _____    ______ ____
ROOT
ATOM      1  C   UNL     1      -4.826  -4.080 134.331  0.00  0.00    +0.000 C 
ATOM      2  N   UNL     1      -2.452   6.796 139.167  0.00  0.00    +0.000 N 
ATOM      3  C   UNL     1      -3.123   6.056 138.088  0.00  0.00    +0.000 C 
ATOM      4  O   UNL     1      -2.439   5.546 137.146  0.00  0.00    +0.000 OA
ATOM      5  C   UNL     1      -4.635   5.902 138.099  0.00  0.00    +0.000 C 
ATOM      6  N   UNL     1      -5.198   6.506 136.883  0.00  0.00    +0.000 N 
ATOM      7  C   UNL     1      -4.799   6.004 135.560  0.00  0.00    +0.000 C 
ATOM      8  O   UNL     1      -5.286   6.526 134.509  0.00  0.00    +0.000 OA
ATOM      9  C   UNL     1      -3.805   4.860 135.450  0.00  0.00    +0.000 C 
ATOM     10  C   UNL     1      -4.455   3.691 134.726  0.00  0.00    +0.000 C 
ATOM     11 SE   UNL     1      -5.001   4.258 132.931  0.00  0.00    +0.000 Se
ATOM     12  S   UNL     1      -5.963   2.529 131.860  0.00  0.00    +0.000 S 
ATOM     13  C   UNL     1      -6.468   3.051 130.202  0.00  0.00    +0.000 C 
ATOM     14  C   UNL     1      -7.118   1.883 129.479  0.00  0.00    +0.000 C 
ATOM     15  N   UNL     1      -6.155   0.777 129.372  0.00  0.00    +0.000 N 
ATOM     16  C   UNL     1      -5.593   0.172 130.587  0.00  0.00    +0.000 C 
ATOM     17  O   UNL     1      -4.760  -0.784 130.495  0.00  0.00    +0.000 OA
ATOM     18  C   UNL     1      -6.004   0.691 131.956  0.00  0.00    +0.000 C 
ATOM     19  N   UNL     1      -6.627  -0.396 132.725  0.00  0.00    +0.000 N 
ATOM     20  C   UNL     1      -5.863  -1.615 133.023  0.00  0.00    +0.000 C 
ATOM     21  O   UNL     1      -6.400  -2.555 133.689  0.00  0.00    +0.000 OA
ATOM     22  C   UNL     1      -4.429  -1.753 132.537  0.00  0.00    +0.000 C 
ATOM     23  N   UNL     1      -3.534  -1.929 133.690  0.00  0.00    +0.000 N 
ATOM     24  C   UNL     1      -3.714  -3.075 134.591  0.00  0.00    +0.000 C 
ATOM     25  O   UNL     1      -2.941  -3.227 135.589  0.00  0.00    +0.000 OA
ATOM     26  H   UNL     1      -2.117   7.515 139.749  0.00  0.00    +0.000 HD
ATOM     27  H   UNL     1      -5.843   7.246 136.955  0.00  0.00    +0.000 HD
ATOM     28  H   UNL     1      -5.889   0.441 128.486  0.00  0.00    +0.000 HD
ATOM     29  H   UNL     1      -7.555  -0.307 133.040  0.00  0.00    +0.000 HD
ATOM     30  H   UNL     1      -2.815  -1.278 133.858  0.00  0.00    +0.000 HD
ENDROOT
BRANCH  14  31
ATOM     31  C   UNL     1      -7.542   2.322 128.086  0.00  0.00    +0.000 C 
ATOM     32  O   UNL     1      -8.773   2.324 127.769  0.00  0.00    +0.000 OA
ATOM     33  N   UNL     1      -6.530   2.745 127.109  0.00  0.00    +0.000 N 
ATOM     34  C   UNL     1      -5.262   2.039 126.846  0.00  0.00    +0.000 C 
ATOM     35  C   UNL     1      -4.327   3.179 126.550  0.00  0.00    +0.000 C 
ATOM     36  C   UNL     1      -5.178   4.099 125.623  0.00  0.00    +0.000 C 
ATOM     37  C   UNL     1      -6.600   3.923 126.162  0.00  0.00    +0.000 C 
BRANCH  37  38
ATOM     38  C   UNL     1      -7.567   3.634 125.027  0.00  0.00    +0.000 C 
ATOM     39  O   UNL     1      -8.731   4.145 125.038  0.00  0.00    +0.000 OA
ATOM     40  N   UNL     1      -7.157   2.765 123.914  0.00  0.00    +0.000 N 
ATOM     41  H   UNL     1      -6.256   2.370 123.906  0.00  0.00    +0.000 HD
BRANCH  40  42
ATOM     42  C   UNL     1      -8.093   2.486 122.815  0.00  0.00    +0.000 C 
BRANCH  42  43
ATOM     43  N   UNL     1      -8.523   3.754 122.206  0.00  0.00    +0.000 NA
ATOM     44  H   UNL     1      -7.780   4.447 122.303  0.00  0.00    +0.000 HD
BRANCH  43  45
ATOM     45  C   UNL     1      -8.808   3.539 120.780  0.00  0.00    +0.000 C 
BRANCH  45  46
ATOM     46  C   UNL     1      -7.695   4.148 119.943  0.00  0.00    +0.000 C 
ATOM     47  N   UNL     1      -6.338   4.266 120.499  0.00  0.00    +0.000 N 
ATOM     48  O   UNL     1      -7.936   4.556 118.764  0.00  0.00    +0.000 OA
ATOM     49  H   UNL     1      -6.151   3.950 121.411  0.00  0.00    +0.000 HD
ATOM     50  H   UNL     1      -5.617   4.661 119.957  0.00  0.00    +0.000 HD
ENDBRANCH  45  46
ENDBRANCH  43  45
ENDBRANCH  42  43
BRANCH  42  51
ATOM     51  C   UNL     1      -9.305   1.747 123.357  0.00  0.00    +0.000 C 
BRANCH  51  52
ATOM     52  C   UNL     1      -8.892   0.357 123.809  0.00  0.00    +0.000 C 
ATOM     53  C   UNL     1      -9.459   0.084 125.192  0.00  0.00    +0.000 C 
ATOM     54  C   UNL     1      -9.427  -0.675 122.829  0.00  0.00    +0.000 C 
ENDBRANCH  51  52
ENDBRANCH  42  51
ENDBRANCH  40  42
ENDBRANCH  37  38
ENDBRANCH  14  31
BRANCH   9  55
ATOM     55  N   UNL     1      -3.395   4.435 136.796  0.00  0.00    +0.000 NA
ATOM     56  H   UNL     1      -2.385   4.540 136.893  0.00  0.00    +0.000 HD
ATOM     57  H   UNL     1      -3.652   3.458 136.937  0.00  0.00    +0.000 HD
ENDBRANCH   9  55
BRANCH   1  58
ATOM     58  C   UNL     1      -5.599  -3.670 133.088  0.00  0.00    +0.000 C 
ATOM     59  C   UNL     1      -5.595  -4.816 132.090  0.00  0.00    +0.000 C 
BRANCH  58  61
ATOM     60  C   UNL     1      -8.395  -3.451 134.132  0.00  0.00    +0.000 C 
ATOM     61  C   UNL     1      -7.031  -3.334 133.470  0.00  0.00    +0.000 C 
ENDBRANCH  58  61
ENDBRANCH   1  58
BRANCH  18  62
ATOM     62  C   UNL     1      -4.778   1.199 132.696  0.00  0.00    +0.000 C 
BRANCH  62  63
ATOM     63  C   UNL     1      -5.116   1.055 134.171  0.00  0.00    +0.000 C 
ATOM     64  N   UNL     1      -4.063   0.707 135.136  0.00  0.00    +0.000 N 
ATOM     65  O   UNL     1      -6.309   1.237 134.570  0.00  0.00    +0.000 OA
ATOM     66  H   UNL     1      -3.138   0.567 134.826  0.00  0.00    +0.000 HD
ATOM     67  H   UNL     1      -4.281   0.614 136.091  0.00  0.00    +0.000 HD
ENDBRANCH  62  63
ENDBRANCH  18  62
BRANCH   5  68
ATOM     68  C   UNL     1      -4.992   4.425 138.143  0.00  0.00    +0.000 C 
BRANCH  68  69
ATOM     69  C   UNL     1      -5.711   4.096 139.441  0.00  0.00    +0.000 A 
ATOM     70  C   UNL     1      -6.502   5.046 140.049  0.00  0.00    +0.000 A 
ATOM     71  C   UNL     1      -7.182   4.766 141.239  0.00  0.00    +0.000 A 
ATOM     72  C   UNL     1      -7.042   3.471 141.781  0.00  0.00    +0.000 A 
ATOM     73  C   UNL     1      -6.225   2.541 141.181  0.00  0.00    +0.000 A 
ATOM     74  C   UNL     1      -5.568   2.852 140.007  0.00  0.00    +0.000 A 
BRANCH  72  75
ATOM     75  O   UNL     1      -7.680   3.102 142.914  0.00  0.00    +0.000 OA
ATOM     76  H   UNL     1      -7.230   3.130 143.736  0.00  0.00    +0.000 HD
ENDBRANCH  72  75
ENDBRANCH  68  69
ENDBRANCH   5  68
BRANCH  22  77
ATOM     77  C   UNL     1      -4.318  -2.960 131.620  0.00  0.00    +0.000 C 
BRANCH  77  78
ATOM     78  C   UNL     1      -3.069  -2.819 130.766  0.00  0.00    +0.000 C 
BRANCH  78  79
ATOM     79  C   UNL     1      -3.339  -3.373 129.377  0.00  0.00    +0.000 C 
ATOM     80  N   UNL     1      -4.562  -2.988 128.657  0.00  0.00    +0.000 N 
ATOM     81  O   UNL     1      -2.509  -4.169 128.838  0.00  0.00    +0.000 OA
ATOM     82  H   UNL     1      -5.205  -2.372 129.075  0.00  0.00    +0.000 HD
ATOM     83  H   UNL     1      -4.737  -3.348 127.757  0.00  0.00    +0.000 HD
ENDBRANCH  78  79
ENDBRANCH  77  78
ENDBRANCH  22  77
TORSDOF 19
ENDMDL
MODEL 4
REMARK VINA RESULT:      -7.0      3.008      8.412
REMARK  Name = CHEMBL1630522
REMARK  23 active torsions:
REMARK  status: ('A' for Active; 'I' for Inactive)
REMARK    1  A    between atoms: C_1  and  C_2
REMARK    2  A    between atoms: C_2  and  C_3
REMARK    3  A    between atoms: C_3  and  C_4
REMARK    4  A    between atoms: C_3  and  C_5
REMARK    5  A    between atoms: C_9  and  C_10
REMARK    6  A    between atoms: C_10  and  C_11
REMARK    7  A    between atoms: C_14  and  O_15
REMARK    8  A    between atoms: C_21  and  N_22
REMARK    9  A    between atoms: C_27  and  C_28
REMARK   10  A    between atoms: C_34  and  C_35
REMARK   11  A    between atoms: N_37  and  C_38
REMARK   12  A    between atoms: C_38  and  C_39
REMARK   13  A    between atoms: C_38  and  N_43
REMARK   14  A    between atoms: C_39  and  C_40
REMARK   15  A    between atoms: C_40  and  C_41
REMARK   16  A    between atoms: C_40  and  C_42
REMARK   17  A    between atoms: N_43  and  C_44
REMARK   18  A    between atoms: C_44  and  C_45
REMARK   19  A    between atoms: C_51  and  C_52
REMARK   20  A    between atoms: C_52  and  C_53
REMARK   21  A    between atoms: C_59  and  C_60
REMARK   22  A    between atoms: C_60  and  C_61
REMARK   23  A    between atoms: C_61  and  C_62
REMARK                            x       y       z     vdW  Elec       q    Type
REMARK                         _______ _______ _______ _____ _____    ______ ____
ROOT
ATOM      1  C   UNL     1      -4.290  -1.887 138.576  0.00  0.00    +0.000 C 
ATOM      2  N   UNL     1      -1.185   9.752 137.098  0.00  0.00    +0.000 N 
ATOM      3  C   UNL     1      -1.834   8.574 136.506  0.00  0.00    +0.000 C 
ATOM      4  O   UNL     1      -1.129   7.604 136.084  0.00  0.00    +0.000 OA
ATOM      5  C   UNL     1      -3.349   8.516 136.397  0.00  0.00    +0.000 C 
ATOM      6  N   UNL     1      -3.734   8.384 134.985  0.00  0.00    +0.000 N 
ATOM      7  C   UNL     1      -3.278   7.226 134.204  0.00  0.00    +0.000 C 
ATOM      8  O   UNL     1      -3.611   7.112 132.983  0.00  0.00    +0.000 OA
ATOM      9  C   UNL     1      -2.407   6.165 134.856  0.00  0.00    +0.000 C 
ATOM     10  C   UNL     1      -3.114   4.820 134.792  0.00  0.00    +0.000 C 
ATOM     11 SE   UNL     1      -3.436   4.340 132.919  0.00  0.00    +0.000 Se
ATOM     12  S   UNL     1      -4.482   2.350 132.825  0.00  0.00    +0.000 S 
ATOM     13  C   UNL     1      -4.780   1.906 131.095  0.00  0.00    +0.000 C 
ATOM     14  C   UNL     1      -5.486   0.562 131.032  0.00  0.00    +0.000 C 
ATOM     15  N   UNL     1      -4.644  -0.464 131.663  0.00  0.00    +0.000 N 
ATOM     16  C   UNL     1      -4.259  -0.333 133.075  0.00  0.00    +0.000 C 
ATOM     17  O   UNL     1      -3.530  -1.220 133.620  0.00  0.00    +0.000 OA
ATOM     18  C   UNL     1      -4.730   0.865 133.883  0.00  0.00    +0.000 C 
ATOM     19  N   UNL     1      -5.532   0.401 135.024  0.00  0.00    +0.000 N 
ATOM     20  C   UNL     1      -4.934  -0.491 136.028  0.00  0.00    +0.000 C 
ATOM     21  O   UNL     1      -5.626  -0.892 137.015  0.00  0.00    +0.000 OA
ATOM     22  C   UNL     1      -3.487  -0.933 135.886  0.00  0.00    +0.000 C 
ATOM     23  N   UNL     1      -2.721  -0.491 137.060  0.00  0.00    +0.000 N 
ATOM     24  C   UNL     1      -3.103  -0.953 138.403  0.00  0.00    +0.000 C 
ATOM     25  O   UNL     1      -2.442  -0.570 139.419  0.00  0.00    +0.000 OA
ATOM     26  H   UNL     1      -0.825  10.657 137.243  0.00  0.00    +0.000 HD
ATOM     27  H   UNL     1      -4.299   9.071 134.562  0.00  0.00    +0.000 HD
ATOM     28  H   UNL     1      -4.339  -1.240 131.139  0.00  0.00    +0.000 HD
ATOM     29  H   UNL     1      -6.470   0.687 135.117  0.00  0.00    +0.000 HD
ATOM     30  H   UNL     1      -1.953   0.115 136.948  0.00  0.00    +0.000 HD
ENDROOT
BRANCH  14  31
ATOM     31  C   UNL     1      -5.736   0.190 129.579  0.00  0.00    +0.000 C 
ATOM     32  O   UNL     1      -5.186   0.859 128.649  0.00  0.00    +0.000 OA
ATOM     33  N   UNL     1      -6.613  -0.942 129.251  0.00  0.00    +0.000 N 
ATOM     34  C   UNL     1      -7.923  -1.206 129.875  0.00  0.00    +0.000 C 
ATOM     35  C   UNL     1      -7.955  -2.708 129.911  0.00  0.00    +0.000 C 
ATOM     36  C   UNL     1      -7.412  -3.103 128.503  0.00  0.00    +0.000 C 
ATOM     37  C   UNL     1      -6.387  -2.007 128.201  0.00  0.00    +0.000 C 
BRANCH  37  38
ATOM     38  C   UNL     1      -6.613  -1.438 126.810  0.00  0.00    +0.000 C 
ATOM     39  O   UNL     1      -5.619  -1.176 126.062  0.00  0.00    +0.000 OA
ATOM     40  N   UNL     1      -7.980  -1.190 126.329  0.00  0.00    +0.000 N 
ATOM     41  H   UNL     1      -8.749  -1.393 126.909  0.00  0.00    +0.000 HD
BRANCH  40  42
ATOM     42  C   UNL     1      -8.197  -0.640 124.984  0.00  0.00    +0.000 C 
BRANCH  42  43
ATOM     43  N   UNL     1      -9.554  -0.081 124.897  0.00  0.00    +0.000 NA
ATOM     44  H   UNL     1      -9.738   0.495 125.719  0.00  0.00    +0.000 HD
BRANCH  43  45
ATOM     45  C   UNL     1      -9.667   0.744 123.686  0.00  0.00    +0.000 C 
BRANCH  45  46
ATOM     46  C   UNL     1      -9.165   2.149 123.981  0.00  0.00    +0.000 C 
ATOM     47  N   UNL     1      -8.455   2.909 122.942  0.00  0.00    +0.000 N 
ATOM     48  O   UNL     1      -9.361   2.667 125.126  0.00  0.00    +0.000 OA
ATOM     49  H   UNL     1      -8.305   2.509 122.056  0.00  0.00    +0.000 HD
ATOM     50  H   UNL     1      -8.130   3.819 123.133  0.00  0.00    +0.000 HD
ENDBRANCH  45  46
ENDBRANCH  43  45
ENDBRANCH  42  43
BRANCH  42  51
ATOM     51  C   UNL     1      -8.037  -1.744 123.953  0.00  0.00    +0.000 C 
BRANCH  51  52
ATOM     52  C   UNL     1      -8.856  -2.952 124.373  0.00  0.00    +0.000 C 
ATOM     53  C   UNL     1      -9.798  -3.344 123.245  0.00  0.00    +0.000 C 
ATOM     54  C   UNL     1      -7.925  -4.114 124.681  0.00  0.00    +0.000 C 
ENDBRANCH  51  52
ENDBRANCH  42  51
ENDBRANCH  40  42
ENDBRANCH  37  38
ENDBRANCH  14  31
BRANCH   9  55
ATOM     55  N   UNL     1      -2.166   6.525 136.260  0.00  0.00    +0.000 NA
ATOM     56  H   UNL     1      -2.182   5.682 136.835  0.00  0.00    +0.000 HD
ATOM     57  H   UNL     1      -2.893   7.167 136.577  0.00  0.00    +0.000 HD
ENDBRANCH   9  55
BRANCH   1  58
ATOM     58  C   UNL     1      -4.901  -2.188 137.217  0.00  0.00    +0.000 C 
ATOM     59  C   UNL     1      -4.750  -3.668 136.911  0.00  0.00    +0.000 C 
BRANCH  58  61
ATOM     60  C   UNL     1      -7.851  -1.859 137.603  0.00  0.00    +0.000 C 
ATOM     61  C   UNL     1      -6.377  -1.821 137.234  0.00  0.00    +0.000 C 
ENDBRANCH  58  61
ENDBRANCH   1  58
BRANCH  18  62
ATOM     62  C   UNL     1      -3.526   1.641 134.392  0.00  0.00    +0.000 C 
BRANCH  62  63
ATOM     63  C   UNL     1      -4.016   2.368 135.633  0.00  0.00    +0.000 C 
ATOM     64  N   UNL     1      -3.131   2.511 136.798  0.00  0.00    +0.000 N 
ATOM     65  O   UNL     1      -5.191   2.853 135.663  0.00  0.00    +0.000 OA
ATOM     66  H   UNL     1      -2.221   2.135 136.774  0.00  0.00    +0.000 HD
ATOM     67  H   UNL     1      -3.448   2.982 137.602  0.00  0.00    +0.000 HD
ENDBRANCH  62  63
ENDBRANCH  18  62
BRANCH   5  68
ATOM     68  C   UNL     1      -3.867   7.319 137.178  0.00  0.00    +0.000 C 
BRANCH  68  69
ATOM     69  C   UNL     1      -5.386   7.345 137.235  0.00  0.00    +0.000 A 
ATOM     70  C   UNL     1      -6.110   6.278 136.752  0.00  0.00    +0.000 A 
ATOM     71  C   UNL     1      -7.508   6.273 136.802  0.00  0.00    +0.000 A 
ATOM     72  C   UNL     1      -8.145   7.391 137.381  0.00  0.00    +0.000 A 
ATOM     73  C   UNL     1      -7.411   8.463 137.832  0.00  0.00    +0.000 A 
ATOM     74  C   UNL     1      -6.032   8.435 137.767  0.00  0.00    +0.000 A 
BRANCH  72  75
ATOM     75  O   UNL     1      -9.490   7.463 137.494  0.00  0.00    +0.000 OA
ATOM     76  H   UNL     1     -10.032   6.851 137.036  0.00  0.00    +0.000 HD
ENDBRANCH  72  75
ENDBRANCH  68  69
ENDBRANCH   5  68
BRANCH  22  77
ATOM     77  C   UNL     1      -3.428  -2.448 135.783  0.00  0.00    +0.000 C 
BRANCH  77  78
ATOM     78  C   UNL     1      -1.986  -2.871 135.547  0.00  0.00    +0.000 C 
BRANCH  78  79
ATOM     79  C   UNL     1      -1.961  -4.143 134.716  0.00  0.00    +0.000 C 
ATOM     80  N   UNL     1      -2.611  -4.174 133.398  0.00  0.00    +0.000 N 
ATOM     81  O   UNL     1      -1.378  -5.182 135.161  0.00  0.00    +0.000 OA
ATOM     82  H   UNL     1      -3.063  -3.369 133.054  0.00  0.00    +0.000 HD
ATOM     83  H   UNL     1      -2.595  -4.998 132.860  0.00  0.00    +0.000 HD
ENDBRANCH  78  79
ENDBRANCH  77  78
ENDBRANCH  22  77
TORSDOF 19
ENDMDL
MODEL 5
REMARK VINA RESULT:      -7.0      3.887     10.410
REMARK  Name = CHEMBL1630522
REMARK  23 active torsions:
REMARK  status: ('A' for Active; 'I' for Inactive)
REMARK    1  A    between atoms: C_1  and  C_2
REMARK    2  A    between atoms: C_2  and  C_3
REMARK    3  A    between atoms: C_3  and  C_4
REMARK    4  A    between atoms: C_3  and  C_5
REMARK    5  A    between atoms: C_9  and  C_10
REMARK    6  A    between atoms: C_10  and  C_11
REMARK    7  A    between atoms: C_14  and  O_15
REMARK    8  A    between atoms: C_21  and  N_22
REMARK    9  A    between atoms: C_27  and  C_28
REMARK   10  A    between atoms: C_34  and  C_35
REMARK   11  A    between atoms: N_37  and  C_38
REMARK   12  A    between atoms: C_38  and  C_39
REMARK   13  A    between atoms: C_38  and  N_43
REMARK   14  A    between atoms: C_39  and  C_40
REMARK   15  A    between atoms: C_40  and  C_41
REMARK   16  A    between atoms: C_40  and  C_42
REMARK   17  A    between atoms: N_43  and  C_44
REMARK   18  A    between atoms: C_44  and  C_45
REMARK   19  A    between atoms: C_51  and  C_52
REMARK   20  A    between atoms: C_52  and  C_53
REMARK   21  A    between atoms: C_59  and  C_60
REMARK   22  A    between atoms: C_60  and  C_61
REMARK   23  A    between atoms: C_61  and  C_62
REMARK                            x       y       z     vdW  Elec       q    Type
REMARK                         _______ _______ _______ _____ _____    ______ ____
ROOT
ATOM      1  C   UNL     1      -7.961   2.444 128.631  0.00  0.00    +0.000 C 
ATOM      2  N   UNL     1      -1.702  -6.215 134.387  0.00  0.00    +0.000 N 
ATOM      3  C   UNL     1      -2.411  -4.933 134.507  0.00  0.00    +0.000 C 
ATOM      4  O   UNL     1      -1.880  -3.869 134.058  0.00  0.00    +0.000 OA
ATOM      5  C   UNL     1      -3.779  -4.880 135.168  0.00  0.00    +0.000 C 
ATOM      6  N   UNL     1      -3.724  -3.989 136.335  0.00  0.00    +0.000 N 
ATOM      7  C   UNL     1      -3.356  -2.576 136.166  0.00  0.00    +0.000 C 
ATOM      8  O   UNL     1      -3.309  -1.807 137.176  0.00  0.00    +0.000 OA
ATOM      9  C   UNL     1      -3.032  -2.036 134.783  0.00  0.00    +0.000 C 
ATOM     10  C   UNL     1      -4.000  -0.916 134.437  0.00  0.00    +0.000 C 
ATOM     11 SE   UNL     1      -3.833   0.524 135.756  0.00  0.00    +0.000 Se
ATOM     12  S   UNL     1      -5.266   2.180 135.244  0.00  0.00    +0.000 S 
ATOM     13  C   UNL     1      -5.111   3.511 136.462  0.00  0.00    +0.000 C 
ATOM     14  C   UNL     1      -6.079   4.630 136.116  0.00  0.00    +0.000 C 
ATOM     15  N   UNL     1      -5.766   5.152 134.778  0.00  0.00    +0.000 N 
ATOM     16  C   UNL     1      -5.821   4.262 133.610  0.00  0.00    +0.000 C 
ATOM     17  O   UNL     1      -5.549   4.714 132.454  0.00  0.00    +0.000 OA
ATOM     18  C   UNL     1      -6.201   2.801 133.785  0.00  0.00    +0.000 C 
ATOM     19  N   UNL     1      -7.409   2.511 132.999  0.00  0.00    +0.000 N 
ATOM     20  C   UNL     1      -7.401   2.704 131.542  0.00  0.00    +0.000 C 
ATOM     21  O   UNL     1      -8.444   2.453 130.862  0.00  0.00    +0.000 OA
ATOM     22  C   UNL     1      -6.144   3.202 130.848  0.00  0.00    +0.000 C 
ATOM     23  N   UNL     1      -5.697   2.204 129.865  0.00  0.00    +0.000 N 
ATOM     24  C   UNL     1      -6.582   1.814 128.759  0.00  0.00    +0.000 C 
ATOM     25  O   UNL     1      -6.197   0.950 127.910  0.00  0.00    +0.000 OA
ATOM     26  H   UNL     1      -1.188  -7.031 134.589  0.00  0.00    +0.000 HD
ATOM     27  H   UNL     1      -3.935  -4.339 137.231  0.00  0.00    +0.000 HD
ATOM     28  H   UNL     1      -5.520   6.099 134.666  0.00  0.00    +0.000 HD
ATOM     29  H   UNL     1      -8.223   2.189 133.448  0.00  0.00    +0.000 HD
ATOM     30  H   UNL     1      -4.805   1.796 129.950  0.00  0.00    +0.000 HD
ENDROOT
BRANCH  14  31
ATOM     31  C   UNL     1      -5.949   5.746 137.140  0.00  0.00    +0.000 C 
ATOM     32  O   UNL     1      -6.934   6.038 137.889  0.00  0.00    +0.000 OA
ATOM     33  N   UNL     1      -4.686   6.487 137.263  0.00  0.00    +0.000 N 
ATOM     34  C   UNL     1      -3.894   7.002 136.131  0.00  0.00    +0.000 C 
ATOM     35  C   UNL     1      -2.487   6.838 136.635  0.00  0.00    +0.000 C 
ATOM     36  C   UNL     1      -2.583   7.339 138.108  0.00  0.00    +0.000 C 
ATOM     37  C   UNL     1      -3.988   6.908 138.537  0.00  0.00    +0.000 C 
BRANCH  37  38
ATOM     38  C   UNL     1      -4.724   8.067 139.188  0.00  0.00    +0.000 C 
ATOM     39  O   UNL     1      -4.522   8.340 140.413  0.00  0.00    +0.000 OA
ATOM     40  N   UNL     1      -5.669   8.873 138.402  0.00  0.00    +0.000 N 
ATOM     41  H   UNL     1      -5.825   8.662 137.453  0.00  0.00    +0.000 HD
BRANCH  40  42
ATOM     42  C   UNL     1      -6.381   9.994 139.032  0.00  0.00    +0.000 C 
BRANCH  42  43
ATOM     43  N   UNL     1      -7.700  10.152 138.403  0.00  0.00    +0.000 NA
ATOM     44  H   UNL     1      -7.616  10.011 137.396  0.00  0.00    +0.000 HD
BRANCH  43  45
ATOM     45  C   UNL     1      -8.629   9.159 138.961  0.00  0.00    +0.000 C 
BRANCH  45  46
ATOM     46  C   UNL     1      -9.569   8.674 137.868  0.00  0.00    +0.000 C 
ATOM     47  N   UNL     1      -9.073   7.770 136.821  0.00  0.00    +0.000 N 
ATOM     48  O   UNL     1     -10.783   9.050 137.860  0.00  0.00    +0.000 OA
ATOM     49  H   UNL     1      -8.133   7.478 136.827  0.00  0.00    +0.000 HD
ATOM     50  H   UNL     1      -9.681   7.456 136.113  0.00  0.00    +0.000 HD
ENDBRANCH  45  46
ENDBRANCH  43  45
ENDBRANCH  42  43
BRANCH  42  51
ATOM     51  C   UNL     1      -5.577  11.271 138.851  0.00  0.00    +0.000 C 
BRANCH  51  52
ATOM     52  C   UNL     1      -6.258  12.409 139.592  0.00  0.00    +0.000 C 
ATOM     53  C   UNL     1      -6.362  12.063 141.068  0.00  0.00    +0.000 C 
ATOM     54  C   UNL     1      -5.443  13.682 139.426  0.00  0.00    +0.000 C 
ENDBRANCH  51  52
ENDBRANCH  42  51
ENDBRANCH  40  42
ENDBRANCH  37  38
ENDBRANCH  14  31
BRANCH   9  55
ATOM     55  N   UNL     1      -3.158  -3.115 133.794  0.00  0.00    +0.000 NA
ATOM     56  H   UNL     1      -3.383  -3.989 134.270  0.00  0.00    +0.000 HD
ATOM     57  H   UNL     1      -2.277  -3.219 133.290  0.00  0.00    +0.000 HD
ENDBRANCH   9  55
BRANCH   1  58
ATOM     58  C   UNL     1      -8.173   3.435 129.763  0.00  0.00    +0.000 C 
ATOM     59  C   UNL     1      -8.617   4.771 129.190  0.00  0.00    +0.000 C 
BRANCH  58  61
ATOM     60  C   UNL     1     -10.509   2.212 131.177  0.00  0.00    +0.000 C 
ATOM     61  C   UNL     1      -9.242   2.906 130.706  0.00  0.00    +0.000 C 
ENDBRANCH  58  61
ENDBRANCH   1  58
BRANCH  18  62
ATOM     62  C   UNL     1      -5.060   1.919 133.305  0.00  0.00    +0.000 C 
BRANCH  62  63
ATOM     63  C   UNL     1      -5.712   0.603 132.911  0.00  0.00    +0.000 C 
ATOM     64  N   UNL     1      -5.207  -0.150 131.754  0.00  0.00    +0.000 N 
ATOM     65  O   UNL     1      -6.695   0.155 133.582  0.00  0.00    +0.000 OA
ATOM     66  H   UNL     1      -4.446   0.197 131.235  0.00  0.00    +0.000 HD
ATOM     67  H   UNL     1      -5.629  -1.002 131.499  0.00  0.00    +0.000 HD
ENDBRANCH  62  63
ENDBRANCH  18  62
BRANCH   5  68
ATOM     68  C   UNL     1      -4.800  -4.351 134.174  0.00  0.00    +0.000 C 
BRANCH  68  69
ATOM     69  C   UNL     1      -6.209  -4.557 134.707  0.00  0.00    +0.000 A 
ATOM     70  C   UNL     1      -7.146  -3.555 134.578  0.00  0.00    +0.000 A 
ATOM     71  C   UNL     1      -8.452  -3.724 135.052  0.00  0.00    +0.000 A 
ATOM     72  C   UNL     1      -8.775  -4.961 135.648  0.00  0.00    +0.000 A 
ATOM     73  C   UNL     1      -7.822  -5.941 135.797  0.00  0.00    +0.000 A 
ATOM     74  C   UNL     1      -6.543  -5.741 135.319  0.00  0.00    +0.000 A 
BRANCH  72  75
ATOM     75  O   UNL     1     -10.017  -5.222 136.112  0.00  0.00    +0.000 OA
ATOM     76  H   UNL     1     -10.194  -5.174 137.031  0.00  0.00    +0.000 HD
ENDBRANCH  72  75
ENDBRANCH  68  69
ENDBRANCH   5  68
BRANCH  22  77
ATOM     77  C   UNL     1      -6.442   4.513 130.138  0.00  0.00    +0.000 C 
BRANCH  77  78
ATOM     78  C   UNL     1      -5.194   4.970 129.399  0.00  0.00    +0.000 C 
BRANCH  78  79
ATOM     79  C   UNL     1      -4.936   6.437 129.699  0.00  0.00    +0.000 C 
ATOM     80  N   UNL     1      -5.530   7.059 130.892  0.00  0.00    +0.000 N 
ATOM     81  O   UNL     1      -4.207   7.126 128.920  0.00  0.00    +0.000 OA
ATOM     82  H   UNL     1      -6.095   6.525 131.495  0.00  0.00    +0.000 HD
ATOM     83  H   UNL     1      -5.362   8.010 131.086  0.00  0.00    +0.000 HD
ENDBRANCH  78  79
ENDBRANCH  77  78
ENDBRANCH  22  77
TORSDOF 19
ENDMDL
MODEL 6
REMARK VINA RESULT:      -7.0      4.250     10.118
REMARK  Name = CHEMBL1630522
REMARK  23 active torsions:
REMARK  status: ('A' for Active; 'I' for Inactive)
REMARK    1  A    between atoms: C_1  and  C_2
REMARK    2  A    between atoms: C_2  and  C_3
REMARK    3  A    between atoms: C_3  and  C_4
REMARK    4  A    between atoms: C_3  and  C_5
REMARK    5  A    between atoms: C_9  and  C_10
REMARK    6  A    between atoms: C_10  and  C_11
REMARK    7  A    between atoms: C_14  and  O_15
REMARK    8  A    between atoms: C_21  and  N_22
REMARK    9  A    between atoms: C_27  and  C_28
REMARK   10  A    between atoms: C_34  and  C_35
REMARK   11  A    between atoms: N_37  and  C_38
REMARK   12  A    between atoms: C_38  and  C_39
REMARK   13  A    between atoms: C_38  and  N_43
REMARK   14  A    between atoms: C_39  and  C_40
REMARK   15  A    between atoms: C_40  and  C_41
REMARK   16  A    between atoms: C_40  and  C_42
REMARK   17  A    between atoms: N_43  and  C_44
REMARK   18  A    between atoms: C_44  and  C_45
REMARK   19  A    between atoms: C_51  and  C_52
REMARK   20  A    between atoms: C_52  and  C_53
REMARK   21  A    between atoms: C_59  and  C_60
REMARK   22  A    between atoms: C_60  and  C_61
REMARK   23  A    between atoms: C_61  and  C_62
REMARK                            x       y       z     vdW  Elec       q    Type
REMARK                         _______ _______ _______ _____ _____    ______ ____
ROOT
ATOM      1  C   UNL     1      -8.198   1.751 127.476  0.00  0.00    +0.000 C 
ATOM      2  N   UNL     1      -2.394  -6.655 134.031  0.00  0.00    +0.000 N 
ATOM      3  C   UNL     1      -2.800  -5.245 133.931  0.00  0.00    +0.000 C 
ATOM      4  O   UNL     1      -2.214  -4.471 133.112  0.00  0.00    +0.000 OA
ATOM      5  C   UNL     1      -3.921  -4.714 134.810  0.00  0.00    +0.000 C 
ATOM      6  N   UNL     1      -3.409  -3.626 135.653  0.00  0.00    +0.000 N 
ATOM      7  C   UNL     1      -2.842  -2.420 135.033  0.00  0.00    +0.000 C 
ATOM      8  O   UNL     1      -2.399  -1.479 135.763  0.00  0.00    +0.000 OA
ATOM      9  C   UNL     1      -2.785  -2.298 133.520  0.00  0.00    +0.000 C 
ATOM     10  C   UNL     1      -3.586  -1.083 133.078  0.00  0.00    +0.000 C 
ATOM     11 SE   UNL     1      -2.826   0.530 133.892  0.00  0.00    +0.000 Se
ATOM     12  S   UNL     1      -4.011   2.327 133.238  0.00  0.00    +0.000 S 
ATOM     13  C   UNL     1      -3.309   3.818 133.989  0.00  0.00    +0.000 C 
ATOM     14  C   UNL     1      -4.110   5.032 133.548  0.00  0.00    +0.000 C 
ATOM     15  N   UNL     1      -4.055   5.149 132.084  0.00  0.00    +0.000 N 
ATOM     16  C   UNL     1      -4.567   4.061 131.240  0.00  0.00    +0.000 C 
ATOM     17  O   UNL     1      -4.519   4.162 129.974  0.00  0.00    +0.000 OA
ATOM     18  C   UNL     1      -5.154   2.814 131.880  0.00  0.00    +0.000 C 
ATOM     19  N   UNL     1      -6.553   2.658 131.459  0.00  0.00    +0.000 N 
ATOM     20  C   UNL     1      -6.880   2.512 130.034  0.00  0.00    +0.000 C 
ATOM     21  O   UNL     1      -8.090   2.377 129.669  0.00  0.00    +0.000 OA
ATOM     22  C   UNL     1      -5.770   2.520 128.995  0.00  0.00    +0.000 C 
ATOM     23  N   UNL     1      -5.780   1.250 128.256  0.00  0.00    +0.000 N 
ATOM     24  C   UNL     1      -6.973   0.850 127.497  0.00  0.00    +0.000 C 
ATOM     25  O   UNL     1      -6.982  -0.250 126.859  0.00  0.00    +0.000 OA
ATOM     26  H   UNL     1      -2.006  -7.504 134.343  0.00  0.00    +0.000 HD
ATOM     27  H   UNL     1      -3.446  -3.704 136.634  0.00  0.00    +0.000 HD
ATOM     28  H   UNL     1      -3.675   5.957 131.669  0.00  0.00    +0.000 HD
ATOM     29  H   UNL     1      -7.272   2.653 132.132  0.00  0.00    +0.000 HD
ATOM     30  H   UNL     1      -4.986   0.666 128.271  0.00  0.00    +0.000 HD
ENDROOT
BRANCH  14  31
ATOM     31  C   UNL     1      -3.521   6.284 134.180  0.00  0.00    +0.000 C 
ATOM     32  O   UNL     1      -4.117   6.845 135.152  0.00  0.00    +0.000 OA
ATOM     33  N   UNL     1      -2.263   6.843 133.666  0.00  0.00    +0.000 N 
ATOM     34  C   UNL     1      -1.938   7.026 132.240  0.00  0.00    +0.000 C 
ATOM     35  C   UNL     1      -0.460   6.753 132.219  0.00  0.00    +0.000 C 
ATOM     36  C   UNL     1       0.055   7.519 133.474  0.00  0.00    +0.000 C 
ATOM     37  C   UNL     1      -1.099   7.381 134.470  0.00  0.00    +0.000 C 
BRANCH  37  38
ATOM     38  C   UNL     1      -1.448   8.732 135.071  0.00  0.00    +0.000 C 
ATOM     39  O   UNL     1      -1.946   8.799 136.238  0.00  0.00    +0.000 OA
ATOM     40  N   UNL     1      -1.209   9.962 134.302  0.00  0.00    +0.000 N 
ATOM     41  H   UNL     1      -0.823   9.910 133.398  0.00  0.00    +0.000 HD
BRANCH  40  42
ATOM     42  C   UNL     1      -1.546  11.270 134.884  0.00  0.00    +0.000 C 
BRANCH  42  43
ATOM     43  N   UNL     1      -1.669  12.266 133.809  0.00  0.00    +0.000 NA
ATOM     44  H   UNL     1      -2.207  13.065 134.146  0.00  0.00    +0.000 HD
BRANCH  43  45
ATOM     45  C   UNL     1      -0.329  12.714 133.403  0.00  0.00    +0.000 C 
BRANCH  45  46
ATOM     46  C   UNL     1      -0.265  12.813 131.888  0.00  0.00    +0.000 C 
ATOM     47  N   UNL     1      -1.507  12.831 131.100  0.00  0.00    +0.000 N 
ATOM     48  O   UNL     1       0.861  12.881 131.301  0.00  0.00    +0.000 OA
ATOM     49  H   UNL     1      -2.378  12.780 131.554  0.00  0.00    +0.000 HD
ATOM     50  H   UNL     1      -1.466  12.896 130.118  0.00  0.00    +0.000 HD
ENDBRANCH  45  46
ENDBRANCH  43  45
ENDBRANCH  42  43
BRANCH  42  51
ATOM     51  C   UNL     1      -0.450  11.694 135.846  0.00  0.00    +0.000 C 
BRANCH  51  52
ATOM     52  C   UNL     1      -1.073  12.344 137.070  0.00  0.00    +0.000 C 
ATOM     53  C   UNL     1      -0.868  13.849 137.004  0.00  0.00    +0.000 C 
ATOM     54  C   UNL     1      -2.562  12.037 137.106  0.00  0.00    +0.000 C 
ENDBRANCH  51  52
ENDBRANCH  42  51
ENDBRANCH  40  42
ENDBRANCH  37  38
ENDBRANCH  14  31
BRANCH   9  55
ATOM     55  N   UNL     1      -3.355  -3.508 132.909  0.00  0.00    +0.000 NA
ATOM     56  H   UNL     1      -4.106  -3.865 133.500  0.00  0.00    +0.000 HD
ATOM     57  H   UNL     1      -2.627  -4.218 132.817  0.00  0.00    +0.000 HD
ENDBRANCH   9  55
BRANCH   1  58
ATOM     58  C   UNL     1      -7.929   2.992 128.312  0.00  0.00    +0.000 C 
ATOM     59  C   UNL     1      -8.195   4.232 127.476  0.00  0.00    +0.000 C 
BRANCH  58  61
ATOM     60  C   UNL     1     -10.123   3.004 130.347  0.00  0.00    +0.000 C 
ATOM     61  C   UNL     1      -8.844   2.992 129.526  0.00  0.00    +0.000 C 
ENDBRANCH  58  61
ENDBRANCH   1  58
BRANCH  18  62
ATOM     62  C   UNL     1      -4.356   1.596 131.445  0.00  0.00    +0.000 C 
BRANCH  62  63
ATOM     63  C   UNL     1      -5.323   0.429 131.544  0.00  0.00    +0.000 C 
ATOM     64  N   UNL     1      -5.270  -0.657 130.554  0.00  0.00    +0.000 N 
ATOM     65  O   UNL     1      -6.180   0.391 132.483  0.00  0.00    +0.000 OA
ATOM     66  H   UNL     1      -4.606  -0.627 129.827  0.00  0.00    +0.000 HD
ATOM     67  H   UNL     1      -5.897  -1.413 130.618  0.00  0.00    +0.000 HD
ENDBRANCH  62  63
ENDBRANCH  18  62
BRANCH   5  68
ATOM     68  C   UNL     1      -5.046  -4.189 133.932  0.00  0.00    +0.000 C 
BRANCH  68  69
ATOM     69  C   UNL     1      -6.393  -4.481 134.571  0.00  0.00    +0.000 A 
ATOM     70  C   UNL     1      -7.403  -3.547 134.506  0.00  0.00    +0.000 A 
ATOM     71  C   UNL     1      -8.655  -3.796 135.077  0.00  0.00    +0.000 A 
ATOM     72  C   UNL     1      -8.849  -5.043 135.705  0.00  0.00    +0.000 A 
ATOM     73  C   UNL     1      -7.824  -5.956 135.790  0.00  0.00    +0.000 A 
ATOM     74  C   UNL     1      -6.600  -5.677 135.215  0.00  0.00    +0.000 A 
BRANCH  72  75
ATOM     75  O   UNL     1     -10.033  -5.381 136.264  0.00  0.00    +0.000 OA
ATOM     76  H   UNL     1     -10.799  -5.454 135.729  0.00  0.00    +0.000 HD
ENDBRANCH  72  75
ENDBRANCH  68  69
ENDBRANCH   5  68
BRANCH  22  77
ATOM     77  C   UNL     1      -5.992   3.671 128.027  0.00  0.00    +0.000 C 
BRANCH  77  78
ATOM     78  C   UNL     1      -4.854   3.693 127.017  0.00  0.00    +0.000 C 
BRANCH  78  79
ATOM     79  C   UNL     1      -3.997   4.927 127.247  0.00  0.00    +0.000 C 
ATOM     80  N   UNL     1      -2.560   4.783 127.520  0.00  0.00    +0.000 N 
ATOM     81  O   UNL     1      -4.523   6.083 127.202  0.00  0.00    +0.000 OA
ATOM     82  H   UNL     1      -2.153   3.888 127.555  0.00  0.00    +0.000 HD
ATOM     83  H   UNL     1      -2.005   5.583 127.669  0.00  0.00    +0.000 HD
ENDBRANCH  78  79
ENDBRANCH  77  78
ENDBRANCH  22  77
TORSDOF 19
ENDMDL
MODEL 7
REMARK VINA RESULT:      -7.0      2.997      8.474
REMARK  Name = CHEMBL1630522
REMARK  23 active torsions:
REMARK  status: ('A' for Active; 'I' for Inactive)
REMARK    1  A    between atoms: C_1  and  C_2
REMARK    2  A    between atoms: C_2  and  C_3
REMARK    3  A    between atoms: C_3  and  C_4
REMARK    4  A    between atoms: C_3  and  C_5
REMARK    5  A    between atoms: C_9  and  C_10
REMARK    6  A    between atoms: C_10  and  C_11
REMARK    7  A    between atoms: C_14  and  O_15
REMARK    8  A    between atoms: C_21  and  N_22
REMARK    9  A    between atoms: C_27  and  C_28
REMARK   10  A    between atoms: C_34  and  C_35
REMARK   11  A    between atoms: N_37  and  C_38
REMARK   12  A    between atoms: C_38  and  C_39
REMARK   13  A    between atoms: C_38  and  N_43
REMARK   14  A    between atoms: C_39  and  C_40
REMARK   15  A    between atoms: C_40  and  C_41
REMARK   16  A    between atoms: C_40  and  C_42
REMARK   17  A    between atoms: N_43  and  C_44
REMARK   18  A    between atoms: C_44  and  C_45
REMARK   19  A    between atoms: C_51  and  C_52
REMARK   20  A    between atoms: C_52  and  C_53
REMARK   21  A    between atoms: C_59  and  C_60
REMARK   22  A    between atoms: C_60  and  C_61
REMARK   23  A    between atoms: C_61  and  C_62
REMARK                            x       y       z     vdW  Elec       q    Type
REMARK                         _______ _______ _______ _____ _____    ______ ____
ROOT
ATOM      1  C   UNL     1      -4.035  -2.069 138.295  0.00  0.00    +0.000 C 
ATOM      2  N   UNL     1      -0.910   9.540 136.639  0.00  0.00    +0.000 N 
ATOM      3  C   UNL     1      -1.651   8.385 136.112  0.00  0.00    +0.000 C 
ATOM      4  O   UNL     1      -1.023   7.412 135.589  0.00  0.00    +0.000 OA
ATOM      5  C   UNL     1      -3.169   8.356 136.193  0.00  0.00    +0.000 C 
ATOM      6  N   UNL     1      -3.729   8.258 134.838  0.00  0.00    +0.000 N 
ATOM      7  C   UNL     1      -3.397   7.108 133.986  0.00  0.00    +0.000 C 
ATOM      8  O   UNL     1      -3.882   7.023 132.815  0.00  0.00    +0.000 OA
ATOM      9  C   UNL     1      -2.473   6.019 134.506  0.00  0.00    +0.000 C 
ATOM     10  C   UNL     1      -3.208   4.688 134.508  0.00  0.00    +0.000 C 
ATOM     11 SE   UNL     1      -3.771   4.250 132.682  0.00  0.00    +0.000 Se
ATOM     12  S   UNL     1      -4.859   2.282 132.686  0.00  0.00    +0.000 S 
ATOM     13  C   UNL     1      -5.379   1.876 131.000  0.00  0.00    +0.000 C 
ATOM     14  C   UNL     1      -6.114   0.546 131.002  0.00  0.00    +0.000 C 
ATOM     15  N   UNL     1      -5.220  -0.507 131.505  0.00  0.00    +0.000 N 
ATOM     16  C   UNL     1      -4.660  -0.410 132.860  0.00  0.00    +0.000 C 
ATOM     17  O   UNL     1      -3.887  -1.320 133.295  0.00  0.00    +0.000 OA
ATOM     18  C   UNL     1      -5.003   0.781 133.741  0.00  0.00    +0.000 C 
ATOM     19  N   UNL     1      -5.665   0.308 134.966  0.00  0.00    +0.000 N 
ATOM     20  C   UNL     1      -4.965  -0.613 135.871  0.00  0.00    +0.000 C 
ATOM     21  O   UNL     1      -5.536  -1.021 136.931  0.00  0.00    +0.000 OA
ATOM     22  C   UNL     1      -3.555  -1.077 135.542  0.00  0.00    +0.000 C 
ATOM     23  N   UNL     1      -2.640  -0.672 136.619  0.00  0.00    +0.000 N 
ATOM     24  C   UNL     1      -2.861  -1.153 137.990  0.00  0.00    +0.000 C 
ATOM     25  O   UNL     1      -2.070  -0.801 138.922  0.00  0.00    +0.000 OA
ATOM     26  H   UNL     1      -0.517  10.436 136.753  0.00  0.00    +0.000 HD
ATOM     27  H   UNL     1      -4.329   8.963 134.501  0.00  0.00    +0.000 HD
ATOM     28  H   UNL     1      -4.998  -1.277 130.934  0.00  0.00    +0.000 HD
ATOM     29  H   UNL     1      -6.578   0.609 135.180  0.00  0.00    +0.000 HD
ATOM     30  H   UNL     1      -1.880  -0.078 136.421  0.00  0.00    +0.000 HD
ENDROOT
BRANCH  14  31
ATOM     31  C   UNL     1      -6.551   0.207 129.586  0.00  0.00    +0.000 C 
ATOM     32  O   UNL     1      -6.393   1.055 128.652  0.00  0.00    +0.000 OA
ATOM     33  N   UNL     1      -7.156  -1.101 129.297  0.00  0.00    +0.000 N 
ATOM     34  C   UNL     1      -8.198  -1.750 130.114  0.00  0.00    +0.000 C 
ATOM     35  C   UNL     1      -7.834  -3.203 129.986  0.00  0.00    +0.000 C 
ATOM     36  C   UNL     1      -7.507  -3.350 128.468  0.00  0.00    +0.000 C 
ATOM     37  C   UNL     1      -6.882  -1.999 128.111  0.00  0.00    +0.000 C 
BRANCH  37  38
ATOM     38  C   UNL     1      -7.525  -1.432 126.856  0.00  0.00    +0.000 C 
ATOM     39  O   UNL     1      -8.721  -1.743 126.558  0.00  0.00    +0.000 OA
ATOM     40  N   UNL     1      -6.763  -0.524 125.986  0.00  0.00    +0.000 N 
ATOM     41  H   UNL     1      -5.838  -0.283 126.217  0.00  0.00    +0.000 HD
BRANCH  40  42
ATOM     42  C   UNL     1      -7.385   0.025 124.772  0.00  0.00    +0.000 C 
BRANCH  42  43
ATOM     43  N   UNL     1      -7.223  -0.930 123.665  0.00  0.00    +0.000 NA
ATOM     44  H   UNL     1      -6.736  -1.761 124.001  0.00  0.00    +0.000 HD
BRANCH  43  45
ATOM     45  C   UNL     1      -8.547  -1.313 123.152  0.00  0.00    +0.000 C 
BRANCH  45  46
ATOM     46  C   UNL     1      -8.829  -2.763 123.510  0.00  0.00    +0.000 C 
ATOM     47  N   UNL     1      -7.780  -3.583 124.135  0.00  0.00    +0.000 N 
ATOM     48  O   UNL     1      -9.970  -3.267 123.269  0.00  0.00    +0.000 OA
ATOM     49  H   UNL     1      -6.897  -3.192 124.323  0.00  0.00    +0.000 HD
ATOM     50  H   UNL     1      -7.962  -4.522 124.368  0.00  0.00    +0.000 HD
ENDBRANCH  45  46
ENDBRANCH  43  45
ENDBRANCH  42  43
BRANCH  42  51
ATOM     51  C   UNL     1      -6.716   1.339 124.409  0.00  0.00    +0.000 C 
BRANCH  51  52
ATOM     52  C   UNL     1      -7.490   2.010 123.287  0.00  0.00    +0.000 C 
ATOM     53  C   UNL     1      -8.846   2.461 123.805  0.00  0.00    +0.000 C 
ATOM     54  C   UNL     1      -6.713   3.216 122.784  0.00  0.00    +0.000 C 
ENDBRANCH  51  52
ENDBRANCH  42  51
ENDBRANCH  40  42
ENDBRANCH  37  38
ENDBRANCH  14  31
BRANCH   9  55
ATOM     55  N   UNL     1      -2.051   6.347 135.876  0.00  0.00    +0.000 NA
ATOM     56  H   UNL     1      -2.770   6.048 136.534  0.00  0.00    +0.000 HD
ATOM     57  H   UNL     1      -1.913   7.355 135.956  0.00  0.00    +0.000 HD
ENDBRANCH   9  55
BRANCH   1  58
ATOM     58  C   UNL     1      -4.817  -2.333 137.018  0.00  0.00    +0.000 C 
ATOM     59  C   UNL     1      -4.806  -3.822 136.717  0.00  0.00    +0.000 C 
BRANCH  58  61
ATOM     60  C   UNL     1      -7.668  -1.782 137.741  0.00  0.00    +0.000 C 
ATOM     61  C   UNL     1      -6.251  -1.862 137.197  0.00  0.00    +0.000 C 
ENDBRANCH  58  61
ENDBRANCH   1  58
BRANCH  18  62
ATOM     62  C   UNL     1      -3.730   1.525 134.108  0.00  0.00    +0.000 C 
BRANCH  62  63
ATOM     63  C   UNL     1      -4.067   2.288 135.379  0.00  0.00    +0.000 C 
ATOM     64  N   UNL     1      -3.077   2.385 136.462  0.00  0.00    +0.000 N 
ATOM     65  O   UNL     1      -5.204   2.841 135.505  0.00  0.00    +0.000 OA
ATOM     66  H   UNL     1      -2.196   1.957 136.363  0.00  0.00    +0.000 HD
ATOM     67  H   UNL     1      -3.295   2.879 137.285  0.00  0.00    +0.000 HD
ENDBRANCH  62  63
ENDBRANCH  18  62
BRANCH   5  68
ATOM     68  C   UNL     1      -3.609   7.153 137.012  0.00  0.00    +0.000 C 
BRANCH  68  69
ATOM     69  C   UNL     1      -5.119   7.158 137.184  0.00  0.00    +0.000 A 
ATOM     70  C   UNL     1      -5.739   8.229 137.789  0.00  0.00    +0.000 A 
ATOM     71  C   UNL     1      -7.128   8.261 137.950  0.00  0.00    +0.000 A 
ATOM     72  C   UNL     1      -7.869   7.167 137.455  0.00  0.00    +0.000 A 
ATOM     73  C   UNL     1      -7.235   6.091 136.880  0.00  0.00    +0.000 A 
ATOM     74  C   UNL     1      -5.862   6.091 136.737  0.00  0.00    +0.000 A 
BRANCH  72  75
ATOM     75  O   UNL     1      -9.217   7.123 137.545  0.00  0.00    +0.000 OA
ATOM     76  H   UNL     1      -9.735   7.798 137.151  0.00  0.00    +0.000 HD
ENDBRANCH  72  75
ENDBRANCH  68  69
ENDBRANCH   5  68
BRANCH  22  77
ATOM     77  C   UNL     1      -3.539  -2.592 135.407  0.00  0.00    +0.000 C 
BRANCH  77  78
ATOM     78  C   UNL     1      -2.133  -3.040 135.041  0.00  0.00    +0.000 C 
BRANCH  78  79
ATOM     79  C   UNL     1      -2.202  -4.354 134.282  0.00  0.00    +0.000 C 
ATOM     80  N   UNL     1      -1.603  -5.568 134.857  0.00  0.00    +0.000 N 
ATOM     81  O   UNL     1      -2.777  -4.406 133.150  0.00  0.00    +0.000 OA
ATOM     82  H   UNL     1      -1.158  -5.528 135.734  0.00  0.00    +0.000 HD
ATOM     83  H   UNL     1      -1.648  -6.420 134.365  0.00  0.00    +0.000 HD
ENDBRANCH  78  79
ENDBRANCH  77  78
ENDBRANCH  22  77
TORSDOF 19
ENDMDL
MODEL 8
REMARK VINA RESULT:      -6.9      3.859     10.221
REMARK  Name = CHEMBL1630522
REMARK  23 active torsions:
REMARK  status: ('A' for Active; 'I' for Inactive)
REMARK    1  A    between atoms: C_1  and  C_2
REMARK    2  A    between atoms: C_2  and  C_3
REMARK    3  A    between atoms: C_3  and  C_4
REMARK    4  A    between atoms: C_3  and  C_5
REMARK    5  A    between atoms: C_9  and  C_10
REMARK    6  A    between atoms: C_10  and  C_11
REMARK    7  A    between atoms: C_14  and  O_15
REMARK    8  A    between atoms: C_21  and  N_22
REMARK    9  A    between atoms: C_27  and  C_28
REMARK   10  A    between atoms: C_34  and  C_35
REMARK   11  A    between atoms: N_37  and  C_38
REMARK   12  A    between atoms: C_38  and  C_39
REMARK   13  A    between atoms: C_38  and  N_43
REMARK   14  A    between atoms: C_39  and  C_40
REMARK   15  A    between atoms: C_40  and  C_41
REMARK   16  A    between atoms: C_40  and  C_42
REMARK   17  A    between atoms: N_43  and  C_44
REMARK   18  A    between atoms: C_44  and  C_45
REMARK   19  A    between atoms: C_51  and  C_52
REMARK   20  A    between atoms: C_52  and  C_53
REMARK   21  A    between atoms: C_59  and  C_60
REMARK   22  A    between atoms: C_60  and  C_61
REMARK   23  A    between atoms: C_61  and  C_62
REMARK                            x       y       z     vdW  Elec       q    Type
REMARK                         _______ _______ _______ _____ _____    ______ ____
ROOT
ATOM      1  C   UNL     1      -6.947   1.074 127.070  0.00  0.00    +0.000 C 
ATOM      2  N   UNL     1      -1.515  -6.563 134.781  0.00  0.00    +0.000 N 
ATOM      3  C   UNL     1      -2.148  -5.248 134.603  0.00  0.00    +0.000 C 
ATOM      4  O   UNL     1      -1.533  -4.324 133.986  0.00  0.00    +0.000 OA
ATOM      5  C   UNL     1      -3.541  -4.995 135.158  0.00  0.00    +0.000 C 
ATOM      6  N   UNL     1      -3.488  -3.893 136.129  0.00  0.00    +0.000 N 
ATOM      7  C   UNL     1      -3.027  -2.563 135.707  0.00  0.00    +0.000 C 
ATOM      8  O   UNL     1      -2.981  -1.610 136.546  0.00  0.00    +0.000 OA
ATOM      9  C   UNL     1      -2.604  -2.327 134.266  0.00  0.00    +0.000 C 
ATOM     10  C   UNL     1      -3.484  -1.252 133.649  0.00  0.00    +0.000 C 
ATOM     11 SE   UNL     1      -3.293   0.413 134.667  0.00  0.00    +0.000 Se
ATOM     12  S   UNL     1      -4.595   2.003 133.754  0.00  0.00    +0.000 S 
ATOM     13  C   UNL     1      -4.419   3.541 134.693  0.00  0.00    +0.000 C 
ATOM     14  C   UNL     1      -5.299   4.615 134.076  0.00  0.00    +0.000 C 
ATOM     15  N   UNL     1      -4.889   4.843 132.683  0.00  0.00    +0.000 N 
ATOM     16  C   UNL     1      -4.942   3.741 131.712  0.00  0.00    +0.000 C 
ATOM     17  O   UNL     1      -4.588   3.938 130.507  0.00  0.00    +0.000 OA
ATOM     18  C   UNL     1      -5.419   2.365 132.148  0.00  0.00    +0.000 C 
ATOM     19  N   UNL     1      -6.603   1.986 131.364  0.00  0.00    +0.000 N 
ATOM     20  C   UNL     1      -6.513   1.883 129.901  0.00  0.00    +0.000 C 
ATOM     21  O   UNL     1      -7.536   1.554 129.223  0.00  0.00    +0.000 OA
ATOM     22  C   UNL     1      -5.196   2.167 129.198  0.00  0.00    +0.000 C 
ATOM     23  N   UNL     1      -4.764   0.972 128.460  0.00  0.00    +0.000 N 
ATOM     24  C   UNL     1      -5.618   0.414 127.401  0.00  0.00    +0.000 C 
ATOM     25  O   UNL     1      -5.245  -0.621 126.764  0.00  0.00    +0.000 OA
ATOM     26  H   UNL     1      -1.062  -7.346 135.170  0.00  0.00    +0.000 HD
ATOM     27  H   UNL     1      -3.763  -4.045 137.062  0.00  0.00    +0.000 HD
ATOM     28  H   UNL     1      -4.581   5.734 132.401  0.00  0.00    +0.000 HD
ATOM     29  H   UNL     1      -7.456   1.801 131.819  0.00  0.00    +0.000 HD
ATOM     30  H   UNL     1      -3.904   0.545 128.676  0.00  0.00    +0.000 HD
ENDROOT
BRANCH  14  31
ATOM     31  C   UNL     1      -5.150   5.906 134.866  0.00  0.00    +0.000 C 
ATOM     32  O   UNL     1      -6.152   6.395 135.477  0.00  0.00    +0.000 OA
ATOM     33  N   UNL     1      -3.849   6.587 134.923  0.00  0.00    +0.000 N 
ATOM     34  C   UNL     1      -2.966   6.821 133.766  0.00  0.00    +0.000 C 
ATOM     35  C   UNL     1      -1.602   6.686 134.383  0.00  0.00    +0.000 C 
ATOM     36  C   UNL     1      -1.742   7.477 135.719  0.00  0.00    +0.000 C 
ATOM     37  C   UNL     1      -3.193   7.218 136.131  0.00  0.00    +0.000 C 
BRANCH  37  38
ATOM     38  C   UNL     1      -3.885   8.522 136.491  0.00  0.00    +0.000 C 
ATOM     39  O   UNL     1      -3.377   9.631 136.133  0.00  0.00    +0.000 OA
ATOM     40  N   UNL     1      -5.141   8.502 137.255  0.00  0.00    +0.000 N 
ATOM     41  H   UNL     1      -5.534   7.643 137.533  0.00  0.00    +0.000 HD
BRANCH  40  42
ATOM     42  C   UNL     1      -5.810   9.764 137.603  0.00  0.00    +0.000 C 
BRANCH  42  43
ATOM     43  N   UNL     1      -4.906  10.587 138.421  0.00  0.00    +0.000 NA
ATOM     44  H   UNL     1      -4.284  11.117 137.811  0.00  0.00    +0.000 HD
BRANCH  43  45
ATOM     45  C   UNL     1      -5.698  11.515 139.240  0.00  0.00    +0.000 C 
BRANCH  45  46
ATOM     46  C   UNL     1      -5.103  12.911 139.141  0.00  0.00    +0.000 C 
ATOM     47  N   UNL     1      -3.689  13.084 138.777  0.00  0.00    +0.000 N 
ATOM     48  O   UNL     1      -5.829  13.929 139.373  0.00  0.00    +0.000 OA
ATOM     49  H   UNL     1      -3.128  12.296 138.597  0.00  0.00    +0.000 HD
ATOM     50  H   UNL     1      -3.304  13.988 138.712  0.00  0.00    +0.000 HD
ENDBRANCH  45  46
ENDBRANCH  43  45
ENDBRANCH  42  43
BRANCH  42  51
ATOM     51  C   UNL     1      -7.075   9.467 138.390  0.00  0.00    +0.000 C 
BRANCH  51  52
ATOM     52  C   UNL     1      -7.952   8.511 137.598  0.00  0.00    +0.000 C 
ATOM     53  C   UNL     1      -8.206   7.258 138.419  0.00  0.00    +0.000 C 
ATOM     54  C   UNL     1      -9.276   9.185 137.278  0.00  0.00    +0.000 C 
ENDBRANCH  51  52
ENDBRANCH  42  51
ENDBRANCH  40  42
ENDBRANCH  37  38
ENDBRANCH  14  31
BRANCH   9  55
ATOM     55  N   UNL     1      -2.748  -3.575 133.503  0.00  0.00    +0.000 NA
ATOM     56  H   UNL     1      -3.710  -3.905 133.569  0.00  0.00    +0.000 HD
ATOM     57  H   UNL     1      -2.118  -4.282 133.885  0.00  0.00    +0.000 HD
ENDBRANCH   9  55
BRANCH   1  58
ATOM     58  C   UNL     1      -7.152   2.281 127.970  0.00  0.00    +0.000 C 
ATOM     59  C   UNL     1      -7.422   3.509 127.117  0.00  0.00    +0.000 C 
BRANCH  58  61
ATOM     60  C   UNL     1      -9.601   2.299 129.691  0.00  0.00    +0.000 C 
ATOM     61  C   UNL     1      -8.337   2.031 128.889  0.00  0.00    +0.000 C 
ENDBRANCH  58  61
ENDBRANCH   1  58
BRANCH  18  62
ATOM     62  C   UNL     1      -4.313   1.349 131.920  0.00  0.00    +0.000 C 
BRANCH  62  63
ATOM     63  C   UNL     1      -5.028   0.033 131.661  0.00  0.00    +0.000 C 
ATOM     64  N   UNL     1      -6.160  -0.368 132.509  0.00  0.00    +0.000 N 
ATOM     65  O   UNL     1      -4.646  -0.721 130.712  0.00  0.00    +0.000 OA
ATOM     66  H   UNL     1      -6.455   0.217 133.245  0.00  0.00    +0.000 HD
ATOM     67  H   UNL     1      -6.623  -1.220 132.342  0.00  0.00    +0.000 HD
ENDBRANCH  62  63
ENDBRANCH  18  62
BRANCH   5  68
ATOM     68  C   UNL     1      -4.479  -4.625 134.021  0.00  0.00    +0.000 C 
BRANCH  68  69
ATOM     69  C   UNL     1      -5.926  -4.753 134.469  0.00  0.00    +0.000 A 
ATOM     70  C   UNL     1      -6.313  -5.824 135.244  0.00  0.00    +0.000 A 
ATOM     71  C   UNL     1      -7.636  -5.960 135.678  0.00  0.00    +0.000 A 
ATOM     72  C   UNL     1      -8.551  -4.952 135.308  0.00  0.00    +0.000 A 
ATOM     73  C   UNL     1      -8.159  -3.904 134.508  0.00  0.00    +0.000 A 
ATOM     74  C   UNL     1      -6.844  -3.801 134.098  0.00  0.00    +0.000 A 
BRANCH  72  75
ATOM     75  O   UNL     1      -9.844  -4.987 135.700  0.00  0.00    +0.000 OA
ATOM     76  H   UNL     1     -10.321  -5.793 135.669  0.00  0.00    +0.000 HD
ENDBRANCH  72  75
ENDBRANCH  68  69
ENDBRANCH   5  68
BRANCH  22  77
ATOM     77  C   UNL     1      -5.379   3.324 128.228  0.00  0.00    +0.000 C 
BRANCH  77  78
ATOM     78  C   UNL     1      -4.071   3.560 127.489  0.00  0.00    +0.000 C 
BRANCH  78  79
ATOM     79  C   UNL     1      -3.709   5.034 127.558  0.00  0.00    +0.000 C 
ATOM     80  N   UNL     1      -2.327   5.439 127.852  0.00  0.00    +0.000 N 
ATOM     81  O   UNL     1      -4.602   5.918 127.363  0.00  0.00    +0.000 OA
ATOM     82  H   UNL     1      -1.636   4.754 128.003  0.00  0.00    +0.000 HD
ATOM     83  H   UNL     1      -2.092   6.394 127.897  0.00  0.00    +0.000 HD
ENDBRANCH  78  79
ENDBRANCH  77  78
ENDBRANCH  22  77
TORSDOF 19
ENDMDL
MODEL 9
REMARK VINA RESULT:      -6.9      3.834     10.146
REMARK  Name = CHEMBL1630522
REMARK  23 active torsions:
REMARK  status: ('A' for Active; 'I' for Inactive)
REMARK    1  A    between atoms: C_1  and  C_2
REMARK    2  A    between atoms: C_2  and  C_3
REMARK    3  A    between atoms: C_3  and  C_4
REMARK    4  A    between atoms: C_3  and  C_5
REMARK    5  A    between atoms: C_9  and  C_10
REMARK    6  A    between atoms: C_10  and  C_11
REMARK    7  A    between atoms: C_14  and  O_15
REMARK    8  A    between atoms: C_21  and  N_22
REMARK    9  A    between atoms: C_27  and  C_28
REMARK   10  A    between atoms: C_34  and  C_35
REMARK   11  A    between atoms: N_37  and  C_38
REMARK   12  A    between atoms: C_38  and  C_39
REMARK   13  A    between atoms: C_38  and  N_43
REMARK   14  A    between atoms: C_39  and  C_40
REMARK   15  A    between atoms: C_40  and  C_41
REMARK   16  A    between atoms: C_40  and  C_42
REMARK   17  A    between atoms: N_43  and  C_44
REMARK   18  A    between atoms: C_44  and  C_45
REMARK   19  A    between atoms: C_51  and  C_52
REMARK   20  A    between atoms: C_52  and  C_53
REMARK   21  A    between atoms: C_59  and  C_60
REMARK   22  A    between atoms: C_60  and  C_61
REMARK   23  A    between atoms: C_61  and  C_62
REMARK                            x       y       z     vdW  Elec       q    Type
REMARK                         _______ _______ _______ _____ _____    ______ ____
ROOT
ATOM      1  C   UNL     1      -7.322   0.676 126.704  0.00  0.00    +0.000 C 
ATOM      2  N   UNL     1      -1.928  -6.658 134.730  0.00  0.00    +0.000 N 
ATOM      3  C   UNL     1      -2.413  -5.299 134.446  0.00  0.00    +0.000 C 
ATOM      4  O   UNL     1      -1.773  -4.550 133.645  0.00  0.00    +0.000 OA
ATOM      5  C   UNL     1      -3.682  -4.791 135.113  0.00  0.00    +0.000 C 
ATOM      6  N   UNL     1      -3.371  -3.599 135.913  0.00  0.00    +0.000 N 
ATOM      7  C   UNL     1      -2.807  -2.405 135.266  0.00  0.00    +0.000 C 
ATOM      8  O   UNL     1      -2.538  -1.374 135.958  0.00  0.00    +0.000 OA
ATOM      9  C   UNL     1      -2.546  -2.405 133.769  0.00  0.00    +0.000 C 
ATOM     10  C   UNL     1      -3.359  -1.300 133.113  0.00  0.00    +0.000 C 
ATOM     11 SE   UNL     1      -2.836   0.432 133.868  0.00  0.00    +0.000 Se
ATOM     12  S   UNL     1      -4.040   2.066 132.897  0.00  0.00    +0.000 S 
ATOM     13  C   UNL     1      -3.557   3.666 133.594  0.00  0.00    +0.000 C 
ATOM     14  C   UNL     1      -4.370   4.770 132.939  0.00  0.00    +0.000 C 
ATOM     15  N   UNL     1      -4.117   4.770 131.490  0.00  0.00    +0.000 N 
ATOM     16  C   UNL     1      -4.429   3.578 130.690  0.00  0.00    +0.000 C 
ATOM     17  O   UNL     1      -4.210   3.578 129.438  0.00  0.00    +0.000 OA
ATOM     18  C   UNL     1      -5.011   2.343 131.359  0.00  0.00    +0.000 C 
ATOM     19  N   UNL     1      -6.323   2.040 130.770  0.00  0.00    +0.000 N 
ATOM     20  C   UNL     1      -6.434   1.750 129.334  0.00  0.00    +0.000 C 
ATOM     21  O   UNL     1      -7.568   1.487 128.824  0.00  0.00    +0.000 OA
ATOM     22  C   UNL     1      -5.193   1.764 128.457  0.00  0.00    +0.000 C 
ATOM     23  N   UNL     1      -5.009   0.441 127.844  0.00  0.00    +0.000 N 
ATOM     24  C   UNL     1      -6.052  -0.117 126.972  0.00  0.00    +0.000 C 
ATOM     25  O   UNL     1      -5.894  -1.262 126.444  0.00  0.00    +0.000 OA
ATOM     26  H   UNL     1      -1.530  -7.444 135.169  0.00  0.00    +0.000 HD
ATOM     27  H   UNL     1      -3.540  -3.599 136.883  0.00  0.00    +0.000 HD
ATOM     28  H   UNL     1      -3.740   5.570 131.057  0.00  0.00    +0.000 HD
ATOM     29  H   UNL     1      -7.128   2.031 131.338  0.00  0.00    +0.000 HD
ATOM     30  H   UNL     1      -4.187  -0.073 128.019  0.00  0.00    +0.000 HD
ENDROOT
BRANCH  14  31
ATOM     31  C   UNL     1      -3.965   6.113 133.525  0.00  0.00    +0.000 C 
ATOM     32  O   UNL     1      -4.705   6.677 134.390  0.00  0.00    +0.000 OA
ATOM     33  N   UNL     1      -2.718   6.758 133.090  0.00  0.00    +0.000 N 
ATOM     34  C   UNL     1      -2.269   6.875 131.690  0.00  0.00    +0.000 C 
ATOM     35  C   UNL     1      -0.778   6.748 131.829  0.00  0.00    +0.000 C 
ATOM     36  C   UNL     1      -0.464   7.645 133.065  0.00  0.00    +0.000 C 
ATOM     37  C   UNL     1      -1.696   7.461 133.956  0.00  0.00    +0.000 C 
BRANCH  37  38
ATOM     38  C   UNL     1      -2.225   8.809 134.416  0.00  0.00    +0.000 C 
ATOM     39  O   UNL     1      -2.239   9.794 133.612  0.00  0.00    +0.000 OA
ATOM     40  N   UNL     1      -2.721   8.974 135.790  0.00  0.00    +0.000 N 
ATOM     41  H   UNL     1      -2.711   8.211 136.411  0.00  0.00    +0.000 HD
BRANCH  40  42
ATOM     42  C   UNL     1      -3.234  10.278 136.234  0.00  0.00    +0.000 C 
BRANCH  42  43
ATOM     43  N   UNL     1      -2.147  11.268 136.200  0.00  0.00    +0.000 NA
ATOM     44  H   UNL     1      -2.509  12.181 136.477  0.00  0.00    +0.000 HD
BRANCH  43  45
ATOM     45  C   UNL     1      -1.085  10.860 137.131  0.00  0.00    +0.000 C 
BRANCH  45  46
ATOM     46  C   UNL     1       0.231  10.746 136.379  0.00  0.00    +0.000 C 
ATOM     47  N   UNL     1       0.321  11.195 134.982  0.00  0.00    +0.000 N 
ATOM     48  O   UNL     1       1.255  10.263 136.958  0.00  0.00    +0.000 OA
ATOM     49  H   UNL     1      -0.471  11.569 134.534  0.00  0.00    +0.000 HD
ATOM     50  H   UNL     1       1.173  11.121 134.495  0.00  0.00    +0.000 HD
ENDBRANCH  45  46
ENDBRANCH  43  45
ENDBRANCH  42  43
BRANCH  42  51
ATOM     51  C   UNL     1      -3.766  10.158 137.651  0.00  0.00    +0.000 C 
BRANCH  51  52
ATOM     52  C   UNL     1      -5.285  10.201 137.629  0.00  0.00    +0.000 C 
ATOM     53  C   UNL     1      -5.834   8.789 137.755  0.00  0.00    +0.000 C 
ATOM     54  C   UNL     1      -5.786  11.045 138.789  0.00  0.00    +0.000 C 
ENDBRANCH  51  52
ENDBRANCH  42  51
ENDBRANCH  40  42
ENDBRANCH  37  38
ENDBRANCH  14  31
BRANCH   9  55
ATOM     55  N   UNL     1      -2.939  -3.703 133.203  0.00  0.00    +0.000 NA
ATOM     56  H   UNL     1      -2.129  -4.322 133.178  0.00  0.00    +0.000 HD
ATOM     57  H   UNL     1      -3.293  -3.568 132.255  0.00  0.00    +0.000 HD
ENDBRANCH   9  55
BRANCH   1  58
ATOM     58  C   UNL     1      -7.261   1.999 127.449  0.00  0.00    +0.000 C 
ATOM     59  C   UNL     1      -7.569   3.136 126.489  0.00  0.00    +0.000 C 
BRANCH  58  61
ATOM     60  C   UNL     1      -9.422   2.459 129.468  0.00  0.00    +0.000 C 
ATOM     61  C   UNL     1      -8.283   1.994 128.574  0.00  0.00    +0.000 C 
ENDBRANCH  58  61
ENDBRANCH   1  58
BRANCH  18  62
ATOM     62  C   UNL     1      -4.076   1.164 131.150  0.00  0.00    +0.000 C 
BRANCH  62  63
ATOM     63  C   UNL     1      -4.963  -0.068 131.237  0.00  0.00    +0.000 C 
ATOM     64  N   UNL     1      -4.697  -1.228 130.374  0.00  0.00    +0.000 N 
ATOM     65  O   UNL     1      -5.934  -0.094 132.058  0.00  0.00    +0.000 OA
ATOM     66  H   UNL     1      -3.945  -1.207 129.740  0.00  0.00    +0.000 HD
ATOM     67  H   UNL     1      -5.272  -2.025 130.431  0.00  0.00    +0.000 HD
ENDBRANCH  62  63
ENDBRANCH  18  62
BRANCH   5  68
ATOM     68  C   UNL     1      -4.705  -4.434 134.047  0.00  0.00    +0.000 C 
BRANCH  68  69
ATOM     69  C   UNL     1      -6.113  -4.669 134.569  0.00  0.00    +0.000 A 
ATOM     70  C   UNL     1      -6.380  -5.770 135.354  0.00  0.00    +0.000 A 
ATOM     71  C   UNL     1      -7.665  -6.003 135.855  0.00  0.00    +0.000 A 
ATOM     72  C   UNL     1      -8.669  -5.063 135.542  0.00  0.00    +0.000 A 
ATOM     73  C   UNL     1      -8.397  -3.985 134.733  0.00  0.00    +0.000 A 
ATOM     74  C   UNL     1      -7.116  -3.785 134.255  0.00  0.00    +0.000 A 
BRANCH  72  75
ATOM     75  O   UNL     1      -9.934  -5.194 136.001  0.00  0.00    +0.000 OA
ATOM     76  H   UNL     1     -10.148  -5.892 136.589  0.00  0.00    +0.000 HD
ENDBRANCH  72  75
ENDBRANCH  68  69
ENDBRANCH   5  68
BRANCH  22  77
ATOM     77  C   UNL     1      -5.355   2.810 127.365  0.00  0.00    +0.000 C 
BRANCH  77  78
ATOM     78  C   UNL     1      -4.166   2.725 126.420  0.00  0.00    +0.000 C 
BRANCH  78  79
ATOM     79  C   UNL     1      -3.235   3.899 126.672  0.00  0.00    +0.000 C 
ATOM     80  N   UNL     1      -3.783   5.192 127.107  0.00  0.00    +0.000 N 
ATOM     81  O   UNL     1      -1.983   3.764 126.505  0.00  0.00    +0.000 OA
ATOM     82  H   UNL     1      -4.753   5.297 127.236  0.00  0.00    +0.000 HD
ATOM     83  H   UNL     1      -3.179   5.953 127.270  0.00  0.00    +0.000 HD
ENDBRANCH  78  79
ENDBRANCH  77  78
ENDBRANCH  22  77
TORSDOF 19
ENDMDL
