MODEL 1
REMARK VINA RESULT:      -9.2      0.000      0.000
REMARK  Name = CHEMBL513488
REMARK  9 active torsions:
REMARK  status: ('A' for Active; 'I' for Inactive)
REMARK    1  A    between atoms: C_1  and  C_2
REMARK    2  A    between atoms: C_4  and  C_5
REMARK    3  A    between atoms: C_5  and  C_6
REMARK    4  A    between atoms: C_5  and  N_14
REMARK    5  A    between atoms: C_17  and  C_18
REMARK    6  A    between atoms: CA_30  and  CB_31
REMARK    7  A    between atoms: CB_31  and  CG_32
REMARK    8  A    between atoms: CG_32  and  CD1_33
REMARK    9  A    between atoms: CG_32  and  CD2_34
REMARK                            x       y       z     vdW  Elec       q    Type
REMARK                         _______ _______ _______ _____ _____    ______ ____
ROOT
ATOM      1  N   LEU A   1      -7.183   1.702 125.959  0.00  0.00    +0.000 N 
ATOM      2  C   UNK A   2      -6.802   1.690 124.614  0.00  0.00    +0.000 C 
ATOM      3  O   UNK A   2      -6.728   0.652 123.965  0.00  0.00    +0.000 OA
ATOM      4  C   UNK A   2      -6.387   3.087 124.045  0.00  0.00    +0.000 C 
ATOM      5  N   UNK A   2      -7.361   4.070 124.449  0.00  0.00    +0.000 N 
ATOM      6  C   LEU A   1      -7.552   4.260 125.782  0.00  0.00    +0.000 C 
ATOM      7  O   LEU A   1      -7.913   5.355 126.173  0.00  0.00    +0.000 OA
ATOM      8  CA  LEU A   1      -7.290   3.009 126.665  0.00  0.00    +0.000 C 
ATOM      9  H   UNK A   2      -7.541   4.900 123.895  0.00  0.00    +0.000 HD
ENDROOT
BRANCH   4  10
ATOM     10  C   UNK A   2      -6.247   3.152 122.540  0.00  0.00    +0.000 C 
ATOM     11  C   UNK A   2      -7.602   3.301 121.837  0.00  0.00    +0.000 C 
ATOM     12  C   UNK A   2      -7.180   3.989 120.587  0.00  0.00    +0.000 A 
ATOM     13  C   UNK A   2      -7.927   4.142 119.438  0.00  0.00    +0.000 A 
ATOM     14  C   UNK A   2      -7.347   4.816 118.368  0.00  0.00    +0.000 A 
ATOM     15  C   UNK A   2      -6.050   5.347 118.471  0.00  0.00    +0.000 A 
ATOM     16  C   UNK A   2      -5.317   5.221 119.651  0.00  0.00    +0.000 A 
ATOM     17  C   UNK A   2      -5.895   4.535 120.701  0.00  0.00    +0.000 A 
ATOM     18  C   UNK A   2      -5.332   4.300 122.061  0.00  0.00    +0.000 C 
ENDBRANCH   4  10
BRANCH   1  19
ATOM     19  C   UNK A   0      -7.320   0.391 126.706  0.00  0.00    +0.000 C 
BRANCH  19  20
ATOM     20  C   UNK A   0      -5.998  -0.457 127.130  0.00  0.00    +0.000 C 
ATOM     21  O   UNK A   0      -5.021  -0.632 126.398  0.00  0.00    +0.000 OA
ATOM     22  N   UNK A   0      -6.003  -0.998 128.410  0.00  0.00    +0.000 N 
ATOM     23  C   UNK A   0      -6.217  -2.436 128.491  0.00  0.00    +0.000 C 
ATOM     24  C   UNK A   0      -6.775  -2.695 129.883  0.00  0.00    +0.000 C 
ATOM     25  O   UNK A   0      -5.785  -2.359 130.876  0.00  0.00    +0.000 OA
ATOM     26  C   UNK A   0      -5.353  -0.988 130.742  0.00  0.00    +0.000 C 
ATOM     27  C   UNK A   0      -4.891  -0.692 129.312  0.00  0.00    +0.000 C 
ENDBRANCH  19  20
BRANCH  19  31
ATOM     28  C   UNK A   0      -8.684  -3.751 124.328  0.00  0.00    +0.000 C 
ATOM     29  C   UNK A   0      -8.601  -2.463 125.020  0.00  0.00    +0.000 A 
ATOM     30  N   UNK A   0      -7.542  -1.794 125.423  0.00  0.00    +0.000 NA
ATOM     31  C   UNK A   0      -8.080  -0.628 125.913  0.00  0.00    +0.000 A 
ATOM     32  C   UNK A   0      -9.442  -0.635 125.710  0.00  0.00    +0.000 A 
ATOM     33  O   UNK A   0      -9.798  -1.849 125.242  0.00  0.00    +0.000 OA
ENDBRANCH  19  31
ENDBRANCH   1  19
BRANCH   8  34
ATOM     34  CB  LEU A   1      -8.420   2.951 127.693  0.00  0.00    +0.000 C 
BRANCH  34  35
ATOM     35  CG  LEU A   1      -8.196   3.139 129.177  0.00  0.00    +0.000 C 
ATOM     36  CD1 LEU A   1      -8.349   1.794 129.892  0.00  0.00    +0.000 C 
ATOM     37  CD2 LEU A   1      -6.774   3.664 129.376  0.00  0.00    +0.000 C 
ENDBRANCH  34  35
ENDBRANCH   8  34
TORSDOF 6
ENDMDL
MODEL 2
REMARK VINA RESULT:      -8.8      3.982      6.583
REMARK  Name = CHEMBL513488
REMARK  9 active torsions:
REMARK  status: ('A' for Active; 'I' for Inactive)
REMARK    1  A    between atoms: C_1  and  C_2
REMARK    2  A    between atoms: C_4  and  C_5
REMARK    3  A    between atoms: C_5  and  C_6
REMARK    4  A    between atoms: C_5  and  N_14
REMARK    5  A    between atoms: C_17  and  C_18
REMARK    6  A    between atoms: CA_30  and  CB_31
REMARK    7  A    between atoms: CB_31  and  CG_32
REMARK    8  A    between atoms: CG_32  and  CD1_33
REMARK    9  A    between atoms: CG_32  and  CD2_34
REMARK                            x       y       z     vdW  Elec       q    Type
REMARK                         _______ _______ _______ _____ _____    ______ ____
ROOT
ATOM      1  N   LEU A   1      -7.075   3.250 128.876  0.00  0.00    +0.000 N 
ATOM      2  C   UNK A   2      -7.909   2.299 128.280  0.00  0.00    +0.000 C 
ATOM      3  O   UNK A   2      -9.073   2.139 128.633  0.00  0.00    +0.000 OA
ATOM      4  C   UNK A   2      -7.207   1.401 127.209  0.00  0.00    +0.000 C 
ATOM      5  N   UNK A   2      -6.422   2.234 126.334  0.00  0.00    +0.000 N 
ATOM      6  C   LEU A   1      -5.432   2.981 126.891  0.00  0.00    +0.000 C 
ATOM      7  O   LEU A   1      -4.455   3.258 126.220  0.00  0.00    +0.000 OA
ATOM      8  CA  LEU A   1      -5.687   3.412 128.362  0.00  0.00    +0.000 C 
ATOM      9  H   UNK A   2      -6.233   1.968 125.374  0.00  0.00    +0.000 HD
ENDROOT
BRANCH   4  10
ATOM     10  C   UNK A   2      -8.140   0.568 126.358  0.00  0.00    +0.000 C 
ATOM     11  C   UNK A   2      -7.697   0.521 124.890  0.00  0.00    +0.000 C 
ATOM     12  C   UNK A   2      -8.284  -0.783 124.476  0.00  0.00    +0.000 A 
ATOM     13  C   UNK A   2      -8.449  -1.239 123.186  0.00  0.00    +0.000 A 
ATOM     14  C   UNK A   2      -9.028  -2.492 123.007  0.00  0.00    +0.000 A 
ATOM     15  C   UNK A   2      -9.405  -3.275 124.111  0.00  0.00    +0.000 A 
ATOM     16  C   UNK A   2      -9.197  -2.821 125.414  0.00  0.00    +0.000 A 
ATOM     17  C   UNK A   2      -8.638  -1.569 125.580  0.00  0.00    +0.000 A 
ATOM     18  C   UNK A   2      -8.290  -0.885 126.858  0.00  0.00    +0.000 C 
ENDBRANCH   4  10
BRANCH   1  19
ATOM     19  C   UNK A   0      -7.543   3.975 130.122  0.00  0.00    +0.000 C 
BRANCH  19  20
ATOM     20  C   UNK A   0      -8.531   3.235 131.182  0.00  0.00    +0.000 C 
ATOM     21  O   UNK A   0      -9.726   3.504 131.322  0.00  0.00    +0.000 OA
ATOM     22  N   UNK A   0      -7.956   2.235 131.957  0.00  0.00    +0.000 N 
ATOM     23  C   UNK A   0      -7.702   2.577 133.349  0.00  0.00    +0.000 C 
ATOM     24  C   UNK A   0      -6.586   1.649 133.808  0.00  0.00    +0.000 C 
ATOM     25  O   UNK A   0      -7.049   0.283 133.787  0.00  0.00    +0.000 OA
ATOM     26  C   UNK A   0      -7.521  -0.089 132.475  0.00  0.00    +0.000 C 
ATOM     27  C   UNK A   0      -8.567   0.904 131.962  0.00  0.00    +0.000 C 
ENDBRANCH  19  20
BRANCH  19  31
ATOM     28  C   UNK A   0     -10.747   7.176 128.084  0.00  0.00    +0.000 C 
ATOM     29  C   UNK A   0      -9.796   6.450 128.928  0.00  0.00    +0.000 A 
ATOM     30  N   UNK A   0      -9.133   5.340 128.681  0.00  0.00    +0.000 NA
ATOM     31  C   UNK A   0      -8.334   5.203 129.791  0.00  0.00    +0.000 A 
ATOM     32  C   UNK A   0      -8.514   6.289 130.618  0.00  0.00    +0.000 A 
ATOM     33  O   UNK A   0      -9.527   7.034 130.130  0.00  0.00    +0.000 OA
ENDBRANCH  19  31
ENDBRANCH   1  19
BRANCH   8  34
ATOM     34  CB  LEU A   1      -5.261   4.877 128.472  0.00  0.00    +0.000 C 
BRANCH  34  35
ATOM     35  CG  LEU A   1      -4.027   5.323 129.222  0.00  0.00    +0.000 C 
ATOM     36  CD1 LEU A   1      -3.425   4.131 129.971  0.00  0.00    +0.000 C 
ATOM     37  CD2 LEU A   1      -3.017   5.847 128.201  0.00  0.00    +0.000 C 
ENDBRANCH  34  35
ENDBRANCH   8  34
TORSDOF 6
ENDMDL
MODEL 3
REMARK VINA RESULT:      -8.6      2.734      5.767
REMARK  Name = CHEMBL513488
REMARK  9 active torsions:
REMARK  status: ('A' for Active; 'I' for Inactive)
REMARK    1  A    between atoms: C_1  and  C_2
REMARK    2  A    between atoms: C_4  and  C_5
REMARK    3  A    between atoms: C_5  and  C_6
REMARK    4  A    between atoms: C_5  and  N_14
REMARK    5  A    between atoms: C_17  and  C_18
REMARK    6  A    between atoms: CA_30  and  CB_31
REMARK    7  A    between atoms: CB_31  and  CG_32
REMARK    8  A    between atoms: CG_32  and  CD1_33
REMARK    9  A    between atoms: CG_32  and  CD2_34
REMARK                            x       y       z     vdW  Elec       q    Type
REMARK                         _______ _______ _______ _____ _____    ______ ____
ROOT
ATOM      1  N   LEU A   1      -6.203   2.885 127.944  0.00  0.00    +0.000 N 
ATOM      2  C   UNK A   2      -6.512   3.673 126.831  0.00  0.00    +0.000 C 
ATOM      3  O   UNK A   2      -6.623   4.893 126.904  0.00  0.00    +0.000 OA
ATOM      4  C   UNK A   2      -6.798   2.864 125.523  0.00  0.00    +0.000 C 
ATOM      5  N   UNK A   2      -5.782   1.856 125.359  0.00  0.00    +0.000 N 
ATOM      6  C   LEU A   1      -5.649   0.926 126.342  0.00  0.00    +0.000 C 
ATOM      7  O   LEU A   1      -5.234  -0.181 126.053  0.00  0.00    +0.000 OA
ATOM      8  CA  LEU A   1      -6.043   1.416 127.763  0.00  0.00    +0.000 C 
ATOM      9  H   UNK A   2      -5.516   1.511 124.443  0.00  0.00    +0.000 HD
ENDROOT
BRANCH   4  10
ATOM     10  C   UNK A   2      -6.854   3.689 124.256  0.00  0.00    +0.000 C 
ATOM     11  C   UNK A   2      -5.458   3.985 123.695  0.00  0.00    +0.000 C 
ATOM     12  C   UNK A   2      -5.780   4.154 122.252  0.00  0.00    +0.000 A 
ATOM     13  C   UNK A   2      -4.966   4.704 121.285  0.00  0.00    +0.000 A 
ATOM     14  C   UNK A   2      -5.457   4.778 119.985  0.00  0.00    +0.000 A 
ATOM     15  C   UNK A   2      -6.732   4.281 119.668  0.00  0.00    +0.000 A 
ATOM     16  C   UNK A   2      -7.533   3.690 120.646  0.00  0.00    +0.000 A 
ATOM     17  C   UNK A   2      -7.043   3.637 121.937  0.00  0.00    +0.000 A 
ATOM     18  C   UNK A   2      -7.689   3.032 123.136  0.00  0.00    +0.000 C 
ENDBRANCH   4  10
BRANCH   1  19
ATOM     19  C   UNK A   0      -6.196   3.515 129.323  0.00  0.00    +0.000 C 
BRANCH  19  20
ATOM     20  C   UNK A   0      -7.535   4.230 129.906  0.00  0.00    +0.000 C 
ATOM     21  O   UNK A   0      -8.070   5.220 129.402  0.00  0.00    +0.000 OA
ATOM     22  N   UNK A   0      -8.087   3.657 131.046  0.00  0.00    +0.000 N 
ATOM     23  C   UNK A   0      -7.880   4.387 132.289  0.00  0.00    +0.000 C 
ATOM     24  C   UNK A   0      -7.999   3.355 133.401  0.00  0.00    +0.000 C 
ATOM     25  O   UNK A   0      -9.343   2.832 133.438  0.00  0.00    +0.000 OA
ATOM     26  C   UNK A   0      -9.718   2.263 132.166  0.00  0.00    +0.000 C 
ATOM     27  C   UNK A   0      -9.497   3.262 131.027  0.00  0.00    +0.000 C 
ENDBRANCH  19  20
BRANCH  19  31
ATOM     28  C   UNK A   0      -2.243   6.450 128.666  0.00  0.00    +0.000 C 
ATOM     29  C   UNK A   0      -3.538   5.850 128.998  0.00  0.00    +0.000 A 
ATOM     30  N   UNK A   0      -3.946   4.607 128.858  0.00  0.00    +0.000 NA
ATOM     31  C   UNK A   0      -5.199   4.628 129.425  0.00  0.00    +0.000 A 
ATOM     32  C   UNK A   0      -5.444   5.881 129.940  0.00  0.00    +0.000 A 
ATOM     33  O   UNK A   0      -4.436   6.698 129.573  0.00  0.00    +0.000 OA
ENDBRANCH  19  31
ENDBRANCH   1  19
BRANCH   8  34
ATOM     34  CB  LEU A   1      -4.975   0.889 128.723  0.00  0.00    +0.000 C 
BRANCH  34  35
ATOM     35  CG  LEU A   1      -5.220  -0.255 129.681  0.00  0.00    +0.000 C 
ATOM     36  CD1 LEU A   1      -4.200  -0.195 130.821  0.00  0.00    +0.000 C 
ATOM     37  CD2 LEU A   1      -6.631  -0.101 130.249  0.00  0.00    +0.000 C 
ENDBRANCH  34  35
ENDBRANCH   8  34
TORSDOF 6
ENDMDL
MODEL 4
REMARK VINA RESULT:      -8.5      4.672      9.095
REMARK  Name = CHEMBL513488
REMARK  9 active torsions:
REMARK  status: ('A' for Active; 'I' for Inactive)
REMARK    1  A    between atoms: C_1  and  C_2
REMARK    2  A    between atoms: C_4  and  C_5
REMARK    3  A    between atoms: C_5  and  C_6
REMARK    4  A    between atoms: C_5  and  N_14
REMARK    5  A    between atoms: C_17  and  C_18
REMARK    6  A    between atoms: CA_30  and  CB_31
REMARK    7  A    between atoms: CB_31  and  CG_32
REMARK    8  A    between atoms: CG_32  and  CD1_33
REMARK    9  A    between atoms: CG_32  and  CD2_34
REMARK                            x       y       z     vdW  Elec       q    Type
REMARK                         _______ _______ _______ _____ _____    ______ ____
ROOT
ATOM      1  N   LEU A   1      -6.890   4.030 130.716  0.00  0.00    +0.000 N 
ATOM      2  C   UNK A   2      -5.853   4.940 130.484  0.00  0.00    +0.000 C 
ATOM      3  O   UNK A   2      -5.965   5.870 129.692  0.00  0.00    +0.000 OA
ATOM      4  C   UNK A   2      -4.522   4.612 131.237  0.00  0.00    +0.000 C 
ATOM      5  N   UNK A   2      -4.823   4.286 132.609  0.00  0.00    +0.000 N 
ATOM      6  C   LEU A   1      -5.646   3.229 132.842  0.00  0.00    +0.000 C 
ATOM      7  O   LEU A   1      -5.518   2.602 133.877  0.00  0.00    +0.000 OA
ATOM      8  CA  LEU A   1      -6.690   2.954 131.725  0.00  0.00    +0.000 C 
ATOM      9  H   UNK A   2      -4.153   4.446 133.353  0.00  0.00    +0.000 HD
ENDROOT
BRANCH   4  10
ATOM     10  C   UNK A   2      -3.490   5.718 131.230  0.00  0.00    +0.000 C 
ATOM     11  C   UNK A   2      -3.957   6.952 132.012  0.00  0.00    +0.000 C 
ATOM     12  C   UNK A   2      -2.644   7.524 132.416  0.00  0.00    +0.000 A 
ATOM     13  C   UNK A   2      -2.414   8.790 132.911  0.00  0.00    +0.000 A 
ATOM     14  C   UNK A   2      -1.104   9.139 133.226  0.00  0.00    +0.000 A 
ATOM     15  C   UNK A   2      -0.056   8.217 133.068  0.00  0.00    +0.000 A 
ATOM     16  C   UNK A   2      -0.305   6.925 132.603  0.00  0.00    +0.000 A 
ATOM     17  C   UNK A   2      -1.605   6.594 132.277  0.00  0.00    +0.000 A 
ATOM     18  C   UNK A   2      -2.123   5.281 131.798  0.00  0.00    +0.000 C 
ENDBRANCH   4  10
BRANCH   1  19
ATOM     19  C   UNK A   0      -8.120   4.062 129.831  0.00  0.00    +0.000 C 
BRANCH  19  20
ATOM     20  C   UNK A   0      -7.979   4.357 128.237  0.00  0.00    +0.000 C 
ATOM     21  O   UNK A   0      -8.528   5.293 127.652  0.00  0.00    +0.000 OA
ATOM     22  N   UNK A   0      -7.173   3.479 127.522  0.00  0.00    +0.000 N 
ATOM     23  C   UNK A   0      -7.871   2.522 126.674  0.00  0.00    +0.000 C 
ATOM     24  C   UNK A   0      -6.916   1.350 126.498  0.00  0.00    +0.000 C 
ATOM     25  O   UNK A   0      -5.745   1.781 125.774  0.00  0.00    +0.000 OA
ATOM     26  C   UNK A   0      -5.091   2.880 126.441  0.00  0.00    +0.000 C 
ATOM     27  C   UNK A   0      -6.074   4.021 126.719  0.00  0.00    +0.000 C 
ENDBRANCH  19  20
BRANCH  19  31
ATOM     28  C   UNK A   0     -12.246   6.640 130.829  0.00  0.00    +0.000 C 
ATOM     29  C   UNK A   0     -10.887   6.102 130.727  0.00  0.00    +0.000 A 
ATOM     30  N   UNK A   0     -10.432   5.110 129.992  0.00  0.00    +0.000 NA
ATOM     31  C   UNK A   0      -9.080   5.134 130.244  0.00  0.00    +0.000 A 
ATOM     32  C   UNK A   0      -8.791   6.196 131.071  0.00  0.00    +0.000 A 
ATOM     33  O   UNK A   0      -9.952   6.752 131.475  0.00  0.00    +0.000 OA
ENDBRANCH  19  31
ENDBRANCH   1  19
BRANCH   8  34
ATOM     34  CB  LEU A   1      -8.014   2.649 132.426  0.00  0.00    +0.000 C 
BRANCH  34  35
ATOM     35  CG  LEU A   1      -8.753   1.340 132.257  0.00  0.00    +0.000 C 
ATOM     36  CD1 LEU A   1     -10.193   1.619 131.816  0.00  0.00    +0.000 C 
ATOM     37  CD2 LEU A   1      -8.036   0.528 131.178  0.00  0.00    +0.000 C 
ENDBRANCH  34  35
ENDBRANCH   8  34
TORSDOF 6
ENDMDL
MODEL 5
REMARK VINA RESULT:      -8.4      2.291      5.134
REMARK  Name = CHEMBL513488
REMARK  9 active torsions:
REMARK  status: ('A' for Active; 'I' for Inactive)
REMARK    1  A    between atoms: C_1  and  C_2
REMARK    2  A    between atoms: C_4  and  C_5
REMARK    3  A    between atoms: C_5  and  C_6
REMARK    4  A    between atoms: C_5  and  N_14
REMARK    5  A    between atoms: C_17  and  C_18
REMARK    6  A    between atoms: CA_30  and  CB_31
REMARK    7  A    between atoms: CB_31  and  CG_32
REMARK    8  A    between atoms: CG_32  and  CD1_33
REMARK    9  A    between atoms: CG_32  and  CD2_34
REMARK                            x       y       z     vdW  Elec       q    Type
REMARK                         _______ _______ _______ _____ _____    ______ ____
ROOT
ATOM      1  N   LEU A   1      -7.889   0.668 127.421  0.00  0.00    +0.000 N 
ATOM      2  C   UNK A   2      -7.958   1.756 126.546  0.00  0.00    +0.000 C 
ATOM      3  O   UNK A   2      -7.874   2.916 126.938  0.00  0.00    +0.000 OA
ATOM      4  C   UNK A   2      -8.247   1.375 125.057  0.00  0.00    +0.000 C 
ATOM      5  N   UNK A   2      -7.399   0.273 124.677  0.00  0.00    +0.000 N 
ATOM      6  C   LEU A   1      -7.514  -0.885 125.381  0.00  0.00    +0.000 C 
ATOM      7  O   LEU A   1      -7.261  -1.938 124.826  0.00  0.00    +0.000 OA
ATOM      8  CA  LEU A   1      -7.955  -0.711 126.861  0.00  0.00    +0.000 C 
ATOM      9  H   UNK A   2      -7.107   0.131 123.717  0.00  0.00    +0.000 HD
ENDROOT
BRANCH   4  10
ATOM     10  C   UNK A   2      -8.046   2.491 124.056  0.00  0.00    +0.000 C 
ATOM     11  C   UNK A   2      -6.640   2.475 123.444  0.00  0.00    +0.000 C 
ATOM     12  C   UNK A   2      -6.911   3.129 122.135  0.00  0.00    +0.000 A 
ATOM     13  C   UNK A   2      -5.977   3.639 121.259  0.00  0.00    +0.000 A 
ATOM     14  C   UNK A   2      -6.436   4.220 120.081  0.00  0.00    +0.000 A 
ATOM     15  C   UNK A   2      -7.809   4.259 119.786  0.00  0.00    +0.000 A 
ATOM     16  C   UNK A   2      -8.744   3.704 120.660  0.00  0.00    +0.000 A 
ATOM     17  C   UNK A   2      -8.279   3.145 121.834  0.00  0.00    +0.000 A 
ATOM     18  C   UNK A   2      -9.070   2.467 122.901  0.00  0.00    +0.000 C 
ENDBRANCH   4  10
BRANCH   1  19
ATOM     19  C   UNK A   0      -7.910   0.912 128.916  0.00  0.00    +0.000 C 
BRANCH  19  20
ATOM     20  C   UNK A   0      -8.568   2.273 129.518  0.00  0.00    +0.000 C 
ATOM     21  O   UNK A   0      -9.714   2.657 129.274  0.00  0.00    +0.000 OA
ATOM     22  N   UNK A   0      -7.757   3.022 130.362  0.00  0.00    +0.000 N 
ATOM     23  C   UNK A   0      -7.212   4.248 129.797  0.00  0.00    +0.000 C 
ATOM     24  C   UNK A   0      -5.956   4.553 130.600  0.00  0.00    +0.000 C 
ATOM     25  O   UNK A   0      -6.310   4.839 131.968  0.00  0.00    +0.000 OA
ATOM     26  C   UNK A   0      -7.046   3.747 132.559  0.00  0.00    +0.000 C 
ATOM     27  C   UNK A   0      -8.252   3.364 131.697  0.00  0.00    +0.000 C 
ENDBRANCH  19  20
BRANCH  19  31
ATOM     28  C   UNK A   0      -3.914   0.272 131.795  0.00  0.00    +0.000 C 
ATOM     29  C   UNK A   0      -4.872   0.556 130.725  0.00  0.00    +0.000 A 
ATOM     30  N   UNK A   0      -6.188   0.524 130.747  0.00  0.00    +0.000 NA
ATOM     31  C   UNK A   0      -6.529   0.973 129.493  0.00  0.00    +0.000 A 
ATOM     32  C   UNK A   0      -5.387   1.318 128.807  0.00  0.00    +0.000 A 
ATOM     33  O   UNK A   0      -4.318   0.950 129.543  0.00  0.00    +0.000 OA
ENDBRANCH  19  31
ENDBRANCH   1  19
BRANCH   8  34
ATOM     34  CB  LEU A   1      -7.085  -1.651 127.694  0.00  0.00    +0.000 C 
BRANCH  34  35
ATOM     35  CG  LEU A   1      -7.607  -2.932 128.306  0.00  0.00    +0.000 C 
ATOM     36  CD1 LEU A   1      -7.983  -2.683 129.769  0.00  0.00    +0.000 C 
ATOM     37  CD2 LEU A   1      -8.851  -3.356 127.525  0.00  0.00    +0.000 C 
ENDBRANCH  34  35
ENDBRANCH   8  34
TORSDOF 6
ENDMDL
MODEL 6
REMARK VINA RESULT:      -8.3      4.227      7.135
REMARK  Name = CHEMBL513488
REMARK  9 active torsions:
REMARK  status: ('A' for Active; 'I' for Inactive)
REMARK    1  A    between atoms: C_1  and  C_2
REMARK    2  A    between atoms: C_4  and  C_5
REMARK    3  A    between atoms: C_5  and  C_6
REMARK    4  A    between atoms: C_5  and  N_14
REMARK    5  A    between atoms: C_17  and  C_18
REMARK    6  A    between atoms: CA_30  and  CB_31
REMARK    7  A    between atoms: CB_31  and  CG_32
REMARK    8  A    between atoms: CG_32  and  CD1_33
REMARK    9  A    between atoms: CG_32  and  CD2_34
REMARK                            x       y       z     vdW  Elec       q    Type
REMARK                         _______ _______ _______ _____ _____    ______ ____
ROOT
ATOM      1  N   LEU A   1      -7.396   4.966 130.164  0.00  0.00    +0.000 N 
ATOM      2  C   UNK A   2      -8.029   4.125 129.243  0.00  0.00    +0.000 C 
ATOM      3  O   UNK A   2      -9.250   4.034 129.174  0.00  0.00    +0.000 OA
ATOM      4  C   UNK A   2      -7.055   3.248 128.390  0.00  0.00    +0.000 C 
ATOM      5  N   UNK A   2      -5.979   4.074 127.902  0.00  0.00    +0.000 N 
ATOM      6  C   LEU A   1      -5.197   4.701 128.820  0.00  0.00    +0.000 C 
ATOM      7  O   LEU A   1      -4.038   4.945 128.538  0.00  0.00    +0.000 OA
ATOM      8  CA  LEU A   1      -5.909   5.052 130.156  0.00  0.00    +0.000 C 
ATOM      9  H   UNK A   2      -5.491   3.859 127.039  0.00  0.00    +0.000 HD
ENDROOT
BRANCH   4  10
ATOM     10  C   UNK A   2      -7.688   2.550 127.207  0.00  0.00    +0.000 C 
ATOM     11  C   UNK A   2      -6.700   2.363 126.047  0.00  0.00    +0.000 C 
ATOM     12  C   UNK A   2      -7.284   1.162 125.390  0.00  0.00    +0.000 A 
ATOM     13  C   UNK A   2      -6.985   0.683 124.133  0.00  0.00    +0.000 A 
ATOM     14  C   UNK A   2      -7.648  -0.459 123.695  0.00  0.00    +0.000 A 
ATOM     15  C   UNK A   2      -8.573  -1.116 124.524  0.00  0.00    +0.000 A 
ATOM     16  C   UNK A   2      -8.839  -0.647 125.811  0.00  0.00    +0.000 A 
ATOM     17  C   UNK A   2      -8.188   0.497 126.229  0.00  0.00    +0.000 A 
ATOM     18  C   UNK A   2      -8.279   1.167 127.558  0.00  0.00    +0.000 C 
ENDBRANCH   4  10
BRANCH   1  19
ATOM     19  C   UNK A   0      -8.218   5.640 131.244  0.00  0.00    +0.000 C 
BRANCH  19  20
ATOM     20  C   UNK A   0      -8.977   4.750 132.375  0.00  0.00    +0.000 C 
ATOM     21  O   UNK A   0      -9.806   5.198 133.170  0.00  0.00    +0.000 OA
ATOM     22  N   UNK A   0      -8.648   3.401 132.414  0.00  0.00    +0.000 N 
ATOM     23  C   UNK A   0      -7.794   2.986 133.518  0.00  0.00    +0.000 C 
ATOM     24  C   UNK A   0      -7.097   1.716 133.049  0.00  0.00    +0.000 C 
ATOM     25  O   UNK A   0      -8.071   0.671 132.853  0.00  0.00    +0.000 OA
ATOM     26  C   UNK A   0      -9.090   1.074 131.914  0.00  0.00    +0.000 C 
ATOM     27  C   UNK A   0      -9.721   2.408 132.322  0.00  0.00    +0.000 C 
ENDBRANCH  19  20
BRANCH  19  31
ATOM     28  C   UNK A   0     -11.010   8.625 128.423  0.00  0.00    +0.000 C 
ATOM     29  C   UNK A   0     -10.475   7.630 129.355  0.00  0.00    +0.000 A 
ATOM     30  N   UNK A   0      -9.230   7.400 129.712  0.00  0.00    +0.000 NA
ATOM     31  C   UNK A   0      -9.358   6.424 130.672  0.00  0.00    +0.000 A 
ATOM     32  C   UNK A   0     -10.695   6.171 130.887  0.00  0.00    +0.000 A 
ATOM     33  O   UNK A   0     -11.412   6.855 129.972  0.00  0.00    +0.000 OA
ENDBRANCH  19  31
ENDBRANCH   1  19
BRANCH   8  34
ATOM     34  CB  LEU A   1      -5.471   6.468 130.530  0.00  0.00    +0.000 C 
BRANCH  34  35
ATOM     35  CG  LEU A   1      -4.641   6.777 131.756  0.00  0.00    +0.000 C 
ATOM     36  CD1 LEU A   1      -4.320   5.477 132.498  0.00  0.00    +0.000 C 
ATOM     37  CD2 LEU A   1      -3.341   7.435 131.293  0.00  0.00    +0.000 C 
ENDBRANCH  34  35
ENDBRANCH   8  34
TORSDOF 6
ENDMDL
MODEL 7
REMARK VINA RESULT:      -8.1      4.587      7.869
REMARK  Name = CHEMBL513488
REMARK  9 active torsions:
REMARK  status: ('A' for Active; 'I' for Inactive)
REMARK    1  A    between atoms: C_1  and  C_2
REMARK    2  A    between atoms: C_4  and  C_5
REMARK    3  A    between atoms: C_5  and  C_6
REMARK    4  A    between atoms: C_5  and  N_14
REMARK    5  A    between atoms: C_17  and  C_18
REMARK    6  A    between atoms: CA_30  and  CB_31
REMARK    7  A    between atoms: CB_31  and  CG_32
REMARK    8  A    between atoms: CG_32  and  CD1_33
REMARK    9  A    between atoms: CG_32  and  CD2_34
REMARK                            x       y       z     vdW  Elec       q    Type
REMARK                         _______ _______ _______ _____ _____    ______ ____
ROOT
ATOM      1  N   LEU A   1      -7.205   3.788 130.626  0.00  0.00    +0.000 N 
ATOM      2  C   UNK A   2      -8.096   4.822 130.325  0.00  0.00    +0.000 C 
ATOM      3  O   UNK A   2      -7.999   5.490 129.300  0.00  0.00    +0.000 OA
ATOM      4  C   UNK A   2      -9.151   5.115 131.441  0.00  0.00    +0.000 C 
ATOM      5  N   UNK A   2      -9.713   3.869 131.899  0.00  0.00    +0.000 N 
ATOM      6  C   LEU A   1      -8.864   2.950 132.431  0.00  0.00    +0.000 C 
ATOM      7  O   LEU A   1      -9.285   2.176 133.270  0.00  0.00    +0.000 OA
ATOM      8  CA  LEU A   1      -7.415   2.996 131.869  0.00  0.00    +0.000 C 
ATOM      9  H   UNK A   2     -10.651   3.816 132.281  0.00  0.00    +0.000 HD
ENDROOT
BRANCH   4  10
ATOM     10  C   UNK A   2     -10.289   6.023 131.029  0.00  0.00    +0.000 C 
ATOM     11  C   UNK A   2      -9.803   7.224 130.208  0.00  0.00    +0.000 C 
ATOM     12  C   UNK A   2     -11.027   7.517 129.414  0.00  0.00    +0.000 A 
ATOM     13  C   UNK A   2     -11.287   8.663 128.693  0.00  0.00    +0.000 A 
ATOM     14  C   UNK A   2     -12.501   8.747 128.018  0.00  0.00    +0.000 A 
ATOM     15  C   UNK A   2     -13.418   7.683 128.051  0.00  0.00    +0.000 A 
ATOM     16  C   UNK A   2     -13.129   6.511 128.751  0.00  0.00    +0.000 A 
ATOM     17  C   UNK A   2     -11.929   6.445 129.432  0.00  0.00    +0.000 A 
ATOM     18  C   UNK A   2     -11.383   5.300 130.216  0.00  0.00    +0.000 C 
ENDBRANCH   4  10
BRANCH   1  19
ATOM     19  C   UNK A   0      -5.965   3.601 129.774  0.00  0.00    +0.000 C 
BRANCH  19  20
ATOM     20  C   UNK A   0      -5.220   4.888 129.113  0.00  0.00    +0.000 C 
ATOM     21  O   UNK A   0      -5.381   5.262 127.949  0.00  0.00    +0.000 OA
ATOM     22  N   UNK A   0      -4.359   5.591 129.948  0.00  0.00    +0.000 N 
ATOM     23  C   UNK A   0      -2.937   5.396 129.703  0.00  0.00    +0.000 C 
ATOM     24  C   UNK A   0      -2.241   5.723 131.017  0.00  0.00    +0.000 C 
ATOM     25  O   UNK A   0      -2.428   7.118 131.333  0.00  0.00    +0.000 OA
ATOM     26  C   UNK A   0      -3.829   7.457 131.395  0.00  0.00    +0.000 C 
ATOM     27  C   UNK A   0      -4.558   7.032 130.117  0.00  0.00    +0.000 C 
ENDBRANCH  19  20
BRANCH  19  31
ATOM     28  C   UNK A   0      -5.519   0.491 125.928  0.00  0.00    +0.000 C 
ATOM     29  C   UNK A   0      -5.970   1.356 127.021  0.00  0.00    +0.000 A 
ATOM     30  N   UNK A   0      -5.271   2.148 127.806  0.00  0.00    +0.000 NA
ATOM     31  C   UNK A   0      -6.239   2.766 128.562  0.00  0.00    +0.000 A 
ATOM     32  C   UNK A   0      -7.481   2.356 128.133  0.00  0.00    +0.000 A 
ATOM     33  O   UNK A   0      -7.317   1.372 127.226  0.00  0.00    +0.000 OA
ENDBRANCH  19  31
ENDBRANCH   1  19
BRANCH   8  34
ATOM     34  CB  LEU A   1      -6.986   1.547 131.640  0.00  0.00    +0.000 C 
BRANCH  34  35
ATOM     35  CG  LEU A   1      -5.892   0.875 132.439  0.00  0.00    +0.000 C 
ATOM     36  CD1 LEU A   1      -5.269   1.886 133.404  0.00  0.00    +0.000 C 
ATOM     37  CD2 LEU A   1      -6.523  -0.268 133.234  0.00  0.00    +0.000 C 
ENDBRANCH  34  35
ENDBRANCH   8  34
TORSDOF 6
ENDMDL
MODEL 8
REMARK VINA RESULT:      -8.1      4.847      8.006
REMARK  Name = CHEMBL513488
REMARK  9 active torsions:
REMARK  status: ('A' for Active; 'I' for Inactive)
REMARK    1  A    between atoms: C_1  and  C_2
REMARK    2  A    between atoms: C_4  and  C_5
REMARK    3  A    between atoms: C_5  and  C_6
REMARK    4  A    between atoms: C_5  and  N_14
REMARK    5  A    between atoms: C_17  and  C_18
REMARK    6  A    between atoms: CA_30  and  CB_31
REMARK    7  A    between atoms: CB_31  and  CG_32
REMARK    8  A    between atoms: CG_32  and  CD1_33
REMARK    9  A    between atoms: CG_32  and  CD2_34
REMARK                            x       y       z     vdW  Elec       q    Type
REMARK                         _______ _______ _______ _____ _____    ______ ____
ROOT
ATOM      1  N   LEU A   1      -7.579  -1.476 131.168  0.00  0.00    +0.000 N 
ATOM      2  C   UNK A   2      -7.657  -1.006 129.853  0.00  0.00    +0.000 C 
ATOM      3  O   UNK A   2      -7.837   0.179 129.593  0.00  0.00    +0.000 OA
ATOM      4  C   UNK A   2      -7.595  -2.123 128.760  0.00  0.00    +0.000 C 
ATOM      5  N   UNK A   2      -6.524  -3.035 129.075  0.00  0.00    +0.000 N 
ATOM      6  C   LEU A   1      -6.580  -3.690 130.266  0.00  0.00    +0.000 C 
ATOM      7  O   LEU A   1      -6.060  -4.786 130.358  0.00  0.00    +0.000 OA
ATOM      8  CA  LEU A   1      -7.315  -2.923 131.400  0.00  0.00    +0.000 C 
ATOM      9  H   UNK A   2      -6.037  -3.555 128.354  0.00  0.00    +0.000 HD
ENDROOT
BRANCH   4  10
ATOM     10  C   UNK A   2      -7.393  -1.628 127.346  0.00  0.00    +0.000 C 
ATOM     11  C   UNK A   2      -6.063  -2.106 126.749  0.00  0.00    +0.000 C 
ATOM     12  C   UNK A   2      -6.403  -2.098 125.299  0.00  0.00    +0.000 A 
ATOM     13  C   UNK A   2      -5.518  -2.174 124.245  0.00  0.00    +0.000 A 
ATOM     14  C   UNK A   2      -6.037  -2.145 122.955  0.00  0.00    +0.000 A 
ATOM     15  C   UNK A   2      -7.424  -2.068 122.739  0.00  0.00    +0.000 A 
ATOM     16  C   UNK A   2      -8.314  -2.032 123.813  0.00  0.00    +0.000 A 
ATOM     17  C   UNK A   2      -7.787  -2.044 125.089  0.00  0.00    +0.000 A 
ATOM     18  C   UNK A   2      -8.526  -2.047 126.384  0.00  0.00    +0.000 C 
ENDBRANCH   4  10
BRANCH   1  19
ATOM     19  C   UNK A   0      -7.920  -0.545 132.314  0.00  0.00    +0.000 C 
BRANCH  19  20
ATOM     20  C   UNK A   0      -8.954   0.692 132.087  0.00  0.00    +0.000 C 
ATOM     21  O   UNK A   0     -10.125   0.561 131.724  0.00  0.00    +0.000 OA
ATOM     22  N   UNK A   0      -8.449   1.963 132.335  0.00  0.00    +0.000 N 
ATOM     23  C   UNK A   0      -8.161   2.773 131.160  0.00  0.00    +0.000 C 
ATOM     24  C   UNK A   0      -7.114   3.786 131.601  0.00  0.00    +0.000 C 
ATOM     25  O   UNK A   0      -7.677   4.668 132.594  0.00  0.00    +0.000 OA
ATOM     26  C   UNK A   0      -8.184   3.927 133.724  0.00  0.00    +0.000 C 
ATOM     27  C   UNK A   0      -9.157   2.834 133.276  0.00  0.00    +0.000 C 
ENDBRANCH  19  20
BRANCH  19  31
ATOM     28  C   UNK A   0      -4.488   1.494 135.268  0.00  0.00    +0.000 C 
ATOM     29  C   UNK A   0      -5.266   0.915 134.171  0.00  0.00    +0.000 A 
ATOM     30  N   UNK A   0      -6.530   0.549 134.141  0.00  0.00    +0.000 NA
ATOM     31  C   UNK A   0      -6.712   0.173 132.831  0.00  0.00    +0.000 A 
ATOM     32  C   UNK A   0      -5.552   0.405 132.126  0.00  0.00    +0.000 A 
ATOM     33  O   UNK A   0      -4.590   0.773 132.996  0.00  0.00    +0.000 OA
ENDBRANCH  19  31
ENDBRANCH   1  19
BRANCH   8  34
ATOM     34  CB  LEU A   1      -6.477  -3.100 132.666  0.00  0.00    +0.000 C 
BRANCH  34  35
ATOM     35  CG  LEU A   1      -6.963  -3.865 133.877  0.00  0.00    +0.000 C 
ATOM     36  CD1 LEU A   1      -6.142  -5.148 134.035  0.00  0.00    +0.000 C 
ATOM     37  CD2 LEU A   1      -6.767  -2.978 135.106  0.00  0.00    +0.000 C 
ENDBRANCH  34  35
ENDBRANCH   8  34
TORSDOF 6
ENDMDL
MODEL 9
REMARK VINA RESULT:      -8.0      5.305      8.268
REMARK  Name = CHEMBL513488
REMARK  9 active torsions:
REMARK  status: ('A' for Active; 'I' for Inactive)
REMARK    1  A    between atoms: C_1  and  C_2
REMARK    2  A    between atoms: C_4  and  C_5
REMARK    3  A    between atoms: C_5  and  C_6
REMARK    4  A    between atoms: C_5  and  N_14
REMARK    5  A    between atoms: C_17  and  C_18
REMARK    6  A    between atoms: CA_30  and  CB_31
REMARK    7  A    between atoms: CB_31  and  CG_32
REMARK    8  A    between atoms: CG_32  and  CD1_33
REMARK    9  A    between atoms: CG_32  and  CD2_34
REMARK                            x       y       z     vdW  Elec       q    Type
REMARK                         _______ _______ _______ _____ _____    ______ ____
ROOT
ATOM      1  N   LEU A   1      -6.915   3.617 132.426  0.00  0.00    +0.000 N 
ATOM      2  C   UNK A   2      -7.811   4.058 131.447  0.00  0.00    +0.000 C 
ATOM      3  O   UNK A   2      -8.061   3.396 130.445  0.00  0.00    +0.000 OA
ATOM      4  C   UNK A   2      -8.381   5.494 131.689  0.00  0.00    +0.000 C 
ATOM      5  N   UNK A   2      -8.792   5.614 133.066  0.00  0.00    +0.000 N 
ATOM      6  C   LEU A   1      -7.848   5.428 134.026  0.00  0.00    +0.000 C 
ATOM      7  O   LEU A   1      -7.972   6.003 135.092  0.00  0.00    +0.000 OA
ATOM      8  CA  LEU A   1      -6.698   4.459 133.635  0.00  0.00    +0.000 C 
ATOM      9  H   UNK A   2      -9.532   6.247 133.347  0.00  0.00    +0.000 HD
ENDROOT
BRANCH   4  10
ATOM     10  C   UNK A   2      -9.551   5.878 130.812  0.00  0.00    +0.000 C 
ATOM     11  C   UNK A   2     -10.757   6.358 131.630  0.00  0.00    +0.000 C 
ATOM     12  C   UNK A   2     -11.416   7.249 130.637  0.00  0.00    +0.000 A 
ATOM     13  C   UNK A   2     -12.697   7.754 130.705  0.00  0.00    +0.000 A 
ATOM     14  C   UNK A   2     -13.132   8.570 129.666  0.00  0.00    +0.000 A 
ATOM     15  C   UNK A   2     -12.279   8.888 128.596  0.00  0.00    +0.000 A 
ATOM     16  C   UNK A   2     -10.971   8.405 128.555  0.00  0.00    +0.000 A 
ATOM     17  C   UNK A   2     -10.555   7.582 129.583  0.00  0.00    +0.000 A 
ATOM     18  C   UNK A   2      -9.207   6.974 129.780  0.00  0.00    +0.000 C 
ENDBRANCH   4  10
BRANCH   1  19
ATOM     19  C   UNK A   0      -6.073   2.384 132.164  0.00  0.00    +0.000 C 
BRANCH  19  20
ATOM     20  C   UNK A   0      -4.921   2.404 131.016  0.00  0.00    +0.000 C 
ATOM     21  O   UNK A   0      -4.022   1.566 130.919  0.00  0.00    +0.000 OA
ATOM     22  N   UNK A   0      -4.990   3.447 130.099  0.00  0.00    +0.000 N 
ATOM     23  C   UNK A   0      -4.003   4.504 130.264  0.00  0.00    +0.000 C 
ATOM     24  C   UNK A   0      -4.608   5.742 129.616  0.00  0.00    +0.000 C 
ATOM     25  O   UNK A   0      -4.761   5.524 128.199  0.00  0.00    +0.000 OA
ATOM     26  C   UNK A   0      -5.568   4.357 127.932  0.00  0.00    +0.000 C 
ATOM     27  C   UNK A   0      -5.025   3.130 128.670  0.00  0.00    +0.000 C 
ENDBRANCH  19  20
BRANCH  19  31
ATOM     28  C   UNK A   0      -7.793  -1.612 129.768  0.00  0.00    +0.000 C 
ATOM     29  C   UNK A   0      -7.495  -0.528 130.707  0.00  0.00    +0.000 A 
ATOM     30  N   UNK A   0      -6.711   0.518 130.557  0.00  0.00    +0.000 NA
ATOM     31  C   UNK A   0      -6.907   1.220 131.724  0.00  0.00    +0.000 A 
ATOM     32  C   UNK A   0      -7.861   0.582 132.483  0.00  0.00    +0.000 A 
ATOM     33  O   UNK A   0      -8.161  -0.593 131.894  0.00  0.00    +0.000 OA
ENDBRANCH  19  31
ENDBRANCH   1  19
BRANCH   8  34
ATOM     34  CB  LEU A   1      -6.441   3.566 134.849  0.00  0.00    +0.000 C 
BRANCH  34  35
ATOM     35  CG  LEU A   1      -5.155   3.606 135.644  0.00  0.00    +0.000 C 
ATOM     36  CD1 LEU A   1      -5.383   4.376 136.947  0.00  0.00    +0.000 C 
ATOM     37  CD2 LEU A   1      -4.753   2.167 135.964  0.00  0.00    +0.000 C 
ENDBRANCH  34  35
ENDBRANCH   8  34
TORSDOF 6
ENDMDL
