MODEL 1
REMARK VINA RESULT:     -10.6      0.000      0.000
REMARK  Name = CHEMBL306010
REMARK  11 active torsions:
REMARK  status: ('A' for Active; 'I' for Inactive)
REMARK    1  A    between atoms: C_1  and  O_2
REMARK    2  A    between atoms: O_2  and  C_3
REMARK    3  A    between atoms: C_5  and  O_6
REMARK    4  A    between atoms: O_6  and  C_7
REMARK    5  A    between atoms: N_10  and  C_11
REMARK    6  A    between atoms: C_11  and  C_12
REMARK    7  A    between atoms: C_13  and  C_14
REMARK    8  A    between atoms: C_16  and  C_17
REMARK    9  A    between atoms: C_20  and  C_21
REMARK   10  A    between atoms: C_26  and  C_27
REMARK   11  A    between atoms: C_32  and  N_33
REMARK                            x       y       z     vdW  Elec       q    Type
REMARK                         _______ _______ _______ _____ _____    ______ ____
ROOT
ATOM      1  C   UNL     1      -7.295  -2.516 128.510  0.00  0.00    +0.000 A 
ATOM      2  C   UNL     1      -7.412  -2.903 127.157  0.00  0.00    +0.000 A 
ATOM      3  C   UNL     1      -6.582  -2.385 126.192  0.00  0.00    +0.000 A 
ATOM      4  C   UNL     1      -5.738  -1.383 126.593  0.00  0.00    +0.000 A 
ATOM      5  C   UNL     1      -5.482  -1.080 127.941  0.00  0.00    +0.000 A 
ATOM      6  C   UNL     1      -6.293  -1.616 128.969  0.00  0.00    +0.000 A 
ENDROOT
BRANCH   6   7
ATOM      7  C   UNL     1      -6.079  -1.040 130.406  0.00  0.00    +0.000 C 
ATOM      8  O   UNL     1      -5.112  -1.488 131.037  0.00  0.00    +0.000 OA
ATOM      9  N   UNL     1      -6.967  -0.025 130.994  0.00  0.00    +0.000 N 
ATOM     10  C   UNL     1      -6.535   1.438 131.152  0.00  0.00    +0.000 C 
ATOM     11  C   UNL     1      -7.418   2.230 132.155  0.00  0.00    +0.000 C 
ATOM     12  C   UNL     1      -9.273   2.364 131.871  0.00  0.00    +0.000 C 
ATOM     13  C   UNL     1      -9.302   0.581 131.835  0.00  0.00    +0.000 C 
ATOM     14  C   UNL     1      -8.422  -0.201 130.832  0.00  0.00    +0.000 C 
BRANCH  12  15
ATOM     15  N   UNL     1      -9.984   3.788 130.893  0.00  0.00    +0.000 N 
ATOM     16  C   UNL     1      -9.544   4.542 131.968  0.00  0.00    +0.000 C 
ATOM     17  O   UNL     1      -9.671   4.310 133.226  0.00  0.00    +0.000 OA
ATOM     18  O   UNL     1      -8.897   5.582 131.583  0.00  0.00    +0.000 OA
ATOM     19  C   UNL     1      -9.933   6.469 131.735  0.00  0.00    +0.000 C 
ATOM     20  C   UNL     1     -10.394   6.270 130.344  0.00  0.00    +0.000 A 
ATOM     21  C   UNL     1     -10.019   7.610 129.572  0.00  0.00    +0.000 A 
ATOM     22  C   UNL     1     -10.773   8.353 128.728  0.00  0.00    +0.000 A 
ATOM     23  C   UNL     1     -11.933   7.666 128.634  0.00  0.00    +0.000 A 
ATOM     24  C   UNL     1     -12.102   6.115 129.354  0.00  0.00    +0.000 A 
ATOM     25  C   UNL     1     -11.266   5.112 130.366  0.00  0.00    +0.000 A 
ENDBRANCH  12  15
ENDBRANCH   6   7
BRANCH   1  27
ATOM     26  C   UNL     1      -9.054  -4.016 128.383  0.00  0.00    +0.000 C 
ATOM     27  O   UNL     1      -8.285  -3.179 129.199  0.00  0.00    +0.000 OA
ENDBRANCH   1  27
BRANCH   3  28
ATOM     28  O   UNL     1      -6.681  -2.741 124.883  0.00  0.00    +0.000 OA
BRANCH  28  29
ATOM     29  C   UNL     1      -7.549  -1.984 123.992  0.00  0.00    +0.000 C 
ATOM     30  C   UNL     1      -6.901  -0.857 123.128  0.00  0.00    +0.000 C 
ATOM     31  C   UNL     1      -6.951   0.598 123.697  0.00  0.00    +0.000 C 
ATOM     32  N   UNL     1      -8.317   0.963 124.042  0.00  0.00    +0.000 NA
ATOM     33  C   UNL     1      -8.854  -0.090 124.873  0.00  0.00    +0.000 C 
ATOM     34  C   UNL     1      -8.912  -1.508 124.444  0.00  0.00    +0.000 C 
BRANCH  32  35
ATOM     35  C   UNL     1      -8.338   2.231 124.821  0.00  0.00    +0.000 C 
BRANCH  35  36
ATOM     36  C   UNL     1      -6.966   2.719 125.296  0.00  0.00    +0.000 A 
ATOM     37  C   UNL     1      -6.047   3.441 124.478  0.00  0.00    +0.000 A 
ATOM     38  C   UNL     1      -6.256   3.898 123.057  0.00  0.00    +0.000 C 
ATOM     39  C   UNL     1      -4.793   3.750 124.971  0.00  0.00    +0.000 A 
ATOM     40  C   UNL     1      -4.476   3.499 126.297  0.00  0.00    +0.000 A 
ATOM     41  C   UNL     1      -3.166   3.947 126.840  0.00  0.00    +0.000 C 
ATOM     42  N   UNL     1      -5.381   2.877 127.156  0.00  0.00    +0.000 N 
ATOM     43  O   UNL     1      -5.077   2.702 128.382  0.00  0.00    +0.000 OA
ATOM     44  C   UNL     1      -6.617   2.467 126.652  0.00  0.00    +0.000 A 
ATOM     45  C   UNL     1      -7.566   1.794 127.602  0.00  0.00    +0.000 C 
ENDBRANCH  35  36
ENDBRANCH  32  35
ENDBRANCH  28  29
ENDBRANCH   3  28
TORSDOF 7
ENDMDL
MODEL 2
REMARK VINA RESULT:     -10.4      2.579      3.247
REMARK  Name = CHEMBL306010
REMARK  11 active torsions:
REMARK  status: ('A' for Active; 'I' for Inactive)
REMARK    1  A    between atoms: C_1  and  O_2
REMARK    2  A    between atoms: O_2  and  C_3
REMARK    3  A    between atoms: C_5  and  O_6
REMARK    4  A    between atoms: O_6  and  C_7
REMARK    5  A    between atoms: N_10  and  C_11
REMARK    6  A    between atoms: C_11  and  C_12
REMARK    7  A    between atoms: C_13  and  C_14
REMARK    8  A    between atoms: C_16  and  C_17
REMARK    9  A    between atoms: C_20  and  C_21
REMARK   10  A    between atoms: C_26  and  C_27
REMARK   11  A    between atoms: C_32  and  N_33
REMARK                            x       y       z     vdW  Elec       q    Type
REMARK                         _______ _______ _______ _____ _____    ______ ____
ROOT
ATOM      1  C   UNL     1      -6.202  -2.297 128.006  0.00  0.00    +0.000 A 
ATOM      2  C   UNL     1      -6.305  -2.405 126.601  0.00  0.00    +0.000 A 
ATOM      3  C   UNL     1      -7.471  -2.815 126.001  0.00  0.00    +0.000 A 
ATOM      4  C   UNL     1      -8.468  -3.239 126.840  0.00  0.00    +0.000 A 
ATOM      5  C   UNL     1      -8.465  -3.005 128.226  0.00  0.00    +0.000 A 
ATOM      6  C   UNL     1      -7.295  -2.552 128.880  0.00  0.00    +0.000 A 
ENDROOT
BRANCH   6   7
ATOM      7  C   UNL     1      -7.321  -2.546 130.442  0.00  0.00    +0.000 C 
ATOM      8  O   UNL     1      -7.306  -3.654 130.994  0.00  0.00    +0.000 OA
ATOM      9  N   UNL     1      -7.363  -1.304 131.230  0.00  0.00    +0.000 N 
ATOM     10  C   UNL     1      -6.138  -0.784 131.991  0.00  0.00    +0.000 C 
ATOM     11  C   UNL     1      -6.494   0.270 133.074  0.00  0.00    +0.000 C 
ATOM     12  C   UNL     1      -7.393   1.850 132.588  0.00  0.00    +0.000 C 
ATOM     13  C   UNL     1      -8.651   0.805 131.878  0.00  0.00    +0.000 C 
ATOM     14  C   UNL     1      -8.289  -0.241 130.798  0.00  0.00    +0.000 C 
BRANCH  12  15
ATOM     15  N   UNL     1      -6.433   3.385 132.125  0.00  0.00    +0.000 N 
ATOM     16  C   UNL     1      -6.750   3.782 133.414  0.00  0.00    +0.000 C 
ATOM     17  O   UNL     1      -7.877   3.714 134.028  0.00  0.00    +0.000 OA
ATOM     18  O   UNL     1      -5.722   4.237 134.034  0.00  0.00    +0.000 OA
ATOM     19  C   UNL     1      -6.009   5.566 133.847  0.00  0.00    +0.000 C 
ATOM     20  C   UNL     1      -5.242   5.621 132.584  0.00  0.00    +0.000 A 
ATOM     21  C   UNL     1      -3.933   6.463 132.914  0.00  0.00    +0.000 A 
ATOM     22  C   UNL     1      -3.365   7.474 132.215  0.00  0.00    +0.000 A 
ATOM     23  C   UNL     1      -4.139   7.587 131.114  0.00  0.00    +0.000 A 
ATOM     24  C   UNL     1      -5.388   6.451 130.793  0.00  0.00    +0.000 A 
ATOM     25  C   UNL     1      -6.147   5.187 131.538  0.00  0.00    +0.000 A 
ENDBRANCH  12  15
ENDBRANCH   6   7
BRANCH   1  27
ATOM     26  C   UNL     1      -4.137  -2.920 128.848  0.00  0.00    +0.000 C 
ATOM     27  O   UNL     1      -4.912  -1.904 128.279  0.00  0.00    +0.000 OA
ENDBRANCH   1  27
BRANCH   3  28
ATOM     28  O   UNL     1      -7.590  -2.931 124.651  0.00  0.00    +0.000 OA
BRANCH  28  29
ATOM     29  C   UNL     1      -7.919  -1.760 123.851  0.00  0.00    +0.000 C 
ATOM     30  C   UNL     1      -6.762  -0.775 123.492  0.00  0.00    +0.000 C 
ATOM     31  C   UNL     1      -6.562   0.463 124.425  0.00  0.00    +0.000 C 
ATOM     32  N   UNL     1      -7.809   1.198 124.572  0.00  0.00    +0.000 NA
ATOM     33  C   UNL     1      -8.834   0.250 124.944  0.00  0.00    +0.000 C 
ATOM     34  C   UNL     1      -9.163  -0.945 124.130  0.00  0.00    +0.000 C 
BRANCH  32  35
ATOM     35  C   UNL     1      -7.694   2.212 125.655  0.00  0.00    +0.000 C 
BRANCH  35  36
ATOM     36  C   UNL     1      -6.264   2.661 125.968  0.00  0.00    +0.000 A 
ATOM     37  C   UNL     1      -5.502   3.538 125.141  0.00  0.00    +0.000 A 
ATOM     38  C   UNL     1      -5.952   4.213 123.871  0.00  0.00    +0.000 C 
ATOM     39  C   UNL     1      -4.183   3.803 125.461  0.00  0.00    +0.000 A 
ATOM     40  C   UNL     1      -3.643   3.349 126.655  0.00  0.00    +0.000 A 
ATOM     41  C   UNL     1      -2.263   3.745 127.038  0.00  0.00    +0.000 C 
ATOM     42  N   UNL     1      -4.386   2.565 127.538  0.00  0.00    +0.000 N 
ATOM     43  O   UNL     1      -3.876   2.202 128.648  0.00  0.00    +0.000 OA
ATOM     44  C   UNL     1      -5.687   2.202 127.186  0.00  0.00    +0.000 A 
ATOM     45  C   UNL     1      -6.457   1.352 128.155  0.00  0.00    +0.000 C 
ENDBRANCH  35  36
ENDBRANCH  32  35
ENDBRANCH  28  29
ENDBRANCH   3  28
TORSDOF 7
ENDMDL
MODEL 3
REMARK VINA RESULT:     -10.3      1.374      1.935
REMARK  Name = CHEMBL306010
REMARK  11 active torsions:
REMARK  status: ('A' for Active; 'I' for Inactive)
REMARK    1  A    between atoms: C_1  and  O_2
REMARK    2  A    between atoms: O_2  and  C_3
REMARK    3  A    between atoms: C_5  and  O_6
REMARK    4  A    between atoms: O_6  and  C_7
REMARK    5  A    between atoms: N_10  and  C_11
REMARK    6  A    between atoms: C_11  and  C_12
REMARK    7  A    between atoms: C_13  and  C_14
REMARK    8  A    between atoms: C_16  and  C_17
REMARK    9  A    between atoms: C_20  and  C_21
REMARK   10  A    between atoms: C_26  and  C_27
REMARK   11  A    between atoms: C_32  and  N_33
REMARK                            x       y       z     vdW  Elec       q    Type
REMARK                         _______ _______ _______ _____ _____    ______ ____
ROOT
ATOM      1  C   UNL     1      -6.528  -1.967 128.852  0.00  0.00    +0.000 A 
ATOM      2  C   UNL     1      -6.693  -2.521 127.563  0.00  0.00    +0.000 A 
ATOM      3  C   UNL     1      -6.210  -1.884 126.445  0.00  0.00    +0.000 A 
ATOM      4  C   UNL     1      -5.689  -0.632 126.639  0.00  0.00    +0.000 A 
ATOM      5  C   UNL     1      -5.368  -0.114 127.905  0.00  0.00    +0.000 A 
ATOM      6  C   UNL     1      -5.818  -0.755 129.083  0.00  0.00    +0.000 A 
ENDROOT
BRANCH   6   7
ATOM      7  C   UNL     1      -5.613   0.017 130.426  0.00  0.00    +0.000 C 
ATOM      8  O   UNL     1      -4.564  -0.222 131.039  0.00  0.00    +0.000 OA
ATOM      9  N   UNL     1      -6.599   0.976 130.949  0.00  0.00    +0.000 N 
ATOM     10  C   UNL     1      -6.360   2.490 130.907  0.00  0.00    +0.000 C 
ATOM     11  C   UNL     1      -7.289   3.281 131.866  0.00  0.00    +0.000 C 
ATOM     12  C   UNL     1      -9.158   3.141 131.691  0.00  0.00    +0.000 C 
ATOM     13  C   UNL     1      -8.949   1.379 131.866  0.00  0.00    +0.000 C 
ATOM     14  C   UNL     1      -8.022   0.597 130.904  0.00  0.00    +0.000 C 
BRANCH  12  15
ATOM     15  N   UNL     1     -10.102   4.331 130.603  0.00  0.00    +0.000 N 
ATOM     16  C   UNL     1      -9.744   5.255 131.570  0.00  0.00    +0.000 C 
ATOM     17  O   UNL     1      -9.796   5.149 132.851  0.00  0.00    +0.000 OA
ATOM     18  O   UNL     1      -9.270   6.327 131.047  0.00  0.00    +0.000 OA
ATOM     19  C   UNL     1     -10.421   7.069 131.154  0.00  0.00    +0.000 C 
ATOM     20  C   UNL     1     -10.891   6.652 129.815  0.00  0.00    +0.000 A 
ATOM     21  C   UNL     1     -10.742   7.937 128.889  0.00  0.00    +0.000 A 
ATOM     22  C   UNL     1     -11.623   8.465 128.008  0.00  0.00    +0.000 A 
ATOM     23  C   UNL     1     -12.672   7.613 128.042  0.00  0.00    +0.000 A 
ATOM     24  C   UNL     1     -12.587   6.145 128.929  0.00  0.00    +0.000 A 
ATOM     25  C   UNL     1     -11.581   5.390 130.001  0.00  0.00    +0.000 A 
ENDBRANCH  12  15
ENDBRANCH   6   7
BRANCH   1  27
ATOM     26  C   UNL     1      -8.344  -3.351 129.233  0.00  0.00    +0.000 C 
ATOM     27  O   UNL     1      -7.150  -2.821 129.733  0.00  0.00    +0.000 OA
ENDBRANCH   1  27
BRANCH   3  28
ATOM     28  O   UNL     1      -6.363  -2.399 125.195  0.00  0.00    +0.000 OA
BRANCH  28  29
ATOM     29  C   UNL     1      -7.645  -2.280 124.516  0.00  0.00    +0.000 C 
ATOM     30  C   UNL     1      -7.710  -1.392 123.233  0.00  0.00    +0.000 C 
ATOM     31  C   UNL     1      -8.165   0.092 123.414  0.00  0.00    +0.000 C 
ATOM     32  N   UNL     1      -9.435   0.153 124.122  0.00  0.00    +0.000 NA
ATOM     33  C   UNL     1      -9.308  -0.648 125.318  0.00  0.00    +0.000 C 
ATOM     34  C   UNL     1      -8.928  -2.081 125.293  0.00  0.00    +0.000 C 
BRANCH  32  35
ATOM     35  C   UNL     1      -9.741   1.552 124.526  0.00  0.00    +0.000 C 
BRANCH  35  36
ATOM     36  C   UNL     1      -8.540   2.355 125.034  0.00  0.00    +0.000 A 
ATOM     37  C   UNL     1      -8.066   2.321 126.379  0.00  0.00    +0.000 A 
ATOM     38  C   UNL     1      -8.598   1.480 127.511  0.00  0.00    +0.000 C 
ATOM     39  C   UNL     1      -7.035   3.159 126.760  0.00  0.00    +0.000 A 
ATOM     40  C   UNL     1      -6.360   3.919 125.816  0.00  0.00    +0.000 A 
ATOM     41  C   UNL     1      -5.177   4.721 126.225  0.00  0.00    +0.000 C 
ATOM     42  N   UNL     1      -6.732   3.910 124.473  0.00  0.00    +0.000 N 
ATOM     43  O   UNL     1      -6.063   4.584 123.623  0.00  0.00    +0.000 OA
ATOM     44  C   UNL     1      -7.835   3.146 124.084  0.00  0.00    +0.000 A 
ATOM     45  C   UNL     1      -8.214   3.164 122.631  0.00  0.00    +0.000 C 
ENDBRANCH  35  36
ENDBRANCH  32  35
ENDBRANCH  28  29
ENDBRANCH   3  28
TORSDOF 7
ENDMDL
MODEL 4
REMARK VINA RESULT:     -10.2      3.103      6.167
REMARK  Name = CHEMBL306010
REMARK  11 active torsions:
REMARK  status: ('A' for Active; 'I' for Inactive)
REMARK    1  A    between atoms: C_1  and  O_2
REMARK    2  A    between atoms: O_2  and  C_3
REMARK    3  A    between atoms: C_5  and  O_6
REMARK    4  A    between atoms: O_6  and  C_7
REMARK    5  A    between atoms: N_10  and  C_11
REMARK    6  A    between atoms: C_11  and  C_12
REMARK    7  A    between atoms: C_13  and  C_14
REMARK    8  A    between atoms: C_16  and  C_17
REMARK    9  A    between atoms: C_20  and  C_21
REMARK   10  A    between atoms: C_26  and  C_27
REMARK   11  A    between atoms: C_32  and  N_33
REMARK                            x       y       z     vdW  Elec       q    Type
REMARK                         _______ _______ _______ _____ _____    ______ ____
ROOT
ATOM      1  C   UNL     1      -6.840   4.047 126.480  0.00  0.00    +0.000 A 
ATOM      2  C   UNL     1      -8.052   3.811 125.793  0.00  0.00    +0.000 A 
ATOM      3  C   UNL     1      -8.089   3.045 124.653  0.00  0.00    +0.000 A 
ATOM      4  C   UNL     1      -6.877   2.643 124.154  0.00  0.00    +0.000 A 
ATOM      5  C   UNL     1      -5.676   2.721 124.879  0.00  0.00    +0.000 A 
ATOM      6  C   UNL     1      -5.602   3.474 126.075  0.00  0.00    +0.000 A 
ENDROOT
BRANCH   6   7
ATOM      7  C   UNL     1      -4.178   3.694 126.680  0.00  0.00    +0.000 C 
ATOM      8  O   UNL     1      -3.263   3.888 125.870  0.00  0.00    +0.000 OA
ATOM      9  N   UNL     1      -3.920   3.671 128.129  0.00  0.00    +0.000 N 
ATOM     10  C   UNL     1      -3.640   4.953 128.923  0.00  0.00    +0.000 C 
ATOM     11  C   UNL     1      -2.986   4.683 130.305  0.00  0.00    +0.000 C 
ATOM     12  C   UNL     1      -3.863   3.589 131.561  0.00  0.00    +0.000 C 
ATOM     13  C   UNL     1      -3.893   2.328 130.301  0.00  0.00    +0.000 C 
ATOM     14  C   UNL     1      -4.548   2.603 128.927  0.00  0.00    +0.000 C 
BRANCH  12  15
ATOM     15  N   UNL     1      -5.029   4.332 132.818  0.00  0.00    +0.000 N 
ATOM     16  C   UNL     1      -4.064   3.924 133.723  0.00  0.00    +0.000 C 
ATOM     17  O   UNL     1      -3.443   2.801 133.794  0.00  0.00    +0.000 OA
ATOM     18  O   UNL     1      -3.772   4.858 134.555  0.00  0.00    +0.000 OA
ATOM     19  C   UNL     1      -4.548   4.389 135.586  0.00  0.00    +0.000 C 
ATOM     20  C   UNL     1      -5.720   5.176 135.150  0.00  0.00    +0.000 A 
ATOM     21  C   UNL     1      -5.878   6.341 136.222  0.00  0.00    +0.000 A 
ATOM     22  C   UNL     1      -6.992   6.778 136.856  0.00  0.00    +0.000 A 
ATOM     23  C   UNL     1      -7.984   6.028 136.329  0.00  0.00    +0.000 A 
ATOM     24  C   UNL     1      -7.684   4.965 135.013  0.00  0.00    +0.000 A 
ATOM     25  C   UNL     1      -6.403   4.374 134.154  0.00  0.00    +0.000 A 
ENDBRANCH  12  15
ENDBRANCH   6   7
BRANCH   1  27
ATOM     26  C   UNL     1      -7.930   4.247 128.513  0.00  0.00    +0.000 C 
ATOM     27  O   UNL     1      -7.140   4.870 127.541  0.00  0.00    +0.000 OA
ENDBRANCH   1  27
BRANCH   3  28
ATOM     28  O   UNL     1      -9.244   2.810 123.974  0.00  0.00    +0.000 OA
BRANCH  28  29
ATOM     29  C   UNL     1      -9.900   1.515 124.090  0.00  0.00    +0.000 C 
ATOM     30  C   UNL     1     -10.068   0.909 125.519  0.00  0.00    +0.000 C 
ATOM     31  C   UNL     1      -8.972  -0.095 126.002  0.00  0.00    +0.000 C 
ATOM     32  N   UNL     1      -8.795  -1.163 125.030  0.00  0.00    +0.000 NA
ATOM     33  C   UNL     1      -8.604  -0.550 123.736  0.00  0.00    +0.000 C 
ATOM     34  C   UNL     1      -9.582   0.387 123.133  0.00  0.00    +0.000 C 
BRANCH  32  35
ATOM     35  C   UNL     1      -7.586  -1.968 125.351  0.00  0.00    +0.000 C 
BRANCH  35  36
ATOM     36  C   UNL     1      -7.298  -2.131 126.846  0.00  0.00    +0.000 A 
ATOM     37  C   UNL     1      -8.049  -2.975 127.717  0.00  0.00    +0.000 A 
ATOM     38  C   UNL     1      -9.195  -3.880 127.344  0.00  0.00    +0.000 C 
ATOM     39  C   UNL     1      -7.771  -2.977 129.072  0.00  0.00    +0.000 A 
ATOM     40  C   UNL     1      -6.677  -2.283 129.567  0.00  0.00    +0.000 A 
ATOM     41  C   UNL     1      -6.324  -2.394 131.007  0.00  0.00    +0.000 C 
ATOM     42  N   UNL     1      -5.861  -1.519 128.733  0.00  0.00    +0.000 N 
ATOM     43  O   UNL     1      -4.836  -0.931 129.211  0.00  0.00    +0.000 OA
ATOM     44  C   UNL     1      -6.183  -1.424 127.378  0.00  0.00    +0.000 A 
ATOM     45  C   UNL     1      -5.288  -0.588 126.509  0.00  0.00    +0.000 C 
ENDBRANCH  35  36
ENDBRANCH  32  35
ENDBRANCH  28  29
ENDBRANCH   3  28
TORSDOF 7
ENDMDL
MODEL 5
REMARK VINA RESULT:     -10.0      2.747      7.984
REMARK  Name = CHEMBL306010
REMARK  11 active torsions:
REMARK  status: ('A' for Active; 'I' for Inactive)
REMARK    1  A    between atoms: C_1  and  O_2
REMARK    2  A    between atoms: O_2  and  C_3
REMARK    3  A    between atoms: C_5  and  O_6
REMARK    4  A    between atoms: O_6  and  C_7
REMARK    5  A    between atoms: N_10  and  C_11
REMARK    6  A    between atoms: C_11  and  C_12
REMARK    7  A    between atoms: C_13  and  C_14
REMARK    8  A    between atoms: C_16  and  C_17
REMARK    9  A    between atoms: C_20  and  C_21
REMARK   10  A    between atoms: C_26  and  C_27
REMARK   11  A    between atoms: C_32  and  N_33
REMARK                            x       y       z     vdW  Elec       q    Type
REMARK                         _______ _______ _______ _____ _____    ______ ____
ROOT
ATOM      1  C   UNL     1      -5.769   4.978 134.053  0.00  0.00    +0.000 A 
ATOM      2  C   UNL     1      -4.818   5.902 133.565  0.00  0.00    +0.000 A 
ATOM      3  C   UNL     1      -5.054   6.637 132.429  0.00  0.00    +0.000 A 
ATOM      4  C   UNL     1      -6.191   6.324 131.731  0.00  0.00    +0.000 A 
ATOM      5  C   UNL     1      -7.228   5.533 132.254  0.00  0.00    +0.000 A 
ATOM      6  C   UNL     1      -7.038   4.784 133.439  0.00  0.00    +0.000 A 
ENDROOT
BRANCH   6   7
ATOM      7  C   UNL     1      -8.158   3.760 133.811  0.00  0.00    +0.000 C 
ATOM      8  O   UNL     1      -8.986   4.137 134.651  0.00  0.00    +0.000 OA
ATOM      9  N   UNL     1      -8.239   2.419 133.211  0.00  0.00    +0.000 N 
ATOM     10  C   UNL     1      -9.299   2.063 132.161  0.00  0.00    +0.000 C 
ATOM     11  C   UNL     1      -9.485   0.532 131.978  0.00  0.00    +0.000 C 
ATOM     12  C   UNL     1      -8.020  -0.540 131.483  0.00  0.00    +0.000 C 
ATOM     13  C   UNL     1      -7.177   0.115 132.912  0.00  0.00    +0.000 C 
ATOM     14  C   UNL     1      -6.993   1.641 133.086  0.00  0.00    +0.000 C 
BRANCH  12  15
ATOM     15  N   UNL     1      -7.654  -0.876 129.682  0.00  0.00    +0.000 N 
ATOM     16  C   UNL     1      -7.781  -2.200 130.064  0.00  0.00    +0.000 C 
ATOM     17  O   UNL     1      -7.291  -2.798 131.092  0.00  0.00    +0.000 OA
ATOM     18  O   UNL     1      -8.535  -2.855 129.257  0.00  0.00    +0.000 OA
ATOM     19  C   UNL     1      -7.520  -3.443 128.545  0.00  0.00    +0.000 C 
ATOM     20  C   UNL     1      -7.475  -2.334 127.567  0.00  0.00    +0.000 A 
ATOM     21  C   UNL     1      -8.088  -2.923 126.222  0.00  0.00    +0.000 A 
ATOM     22  C   UNL     1      -7.627  -2.821 124.953  0.00  0.00    +0.000 A 
ATOM     23  C   UNL     1      -6.529  -2.042 125.065  0.00  0.00    +0.000 A 
ATOM     24  C   UNL     1      -6.124  -1.296 126.559  0.00  0.00    +0.000 A 
ATOM     25  C   UNL     1      -6.609  -1.322 128.139  0.00  0.00    +0.000 A 
ENDBRANCH  12  15
ENDBRANCH   6   7
BRANCH   1  27
ATOM     26  C   UNL     1      -4.177   3.504 134.862  0.00  0.00    +0.000 C 
ATOM     27  O   UNL     1      -5.215   4.391 135.167  0.00  0.00    +0.000 OA
ENDBRANCH   1  27
BRANCH   3  28
ATOM     28  O   UNL     1      -4.150   7.528 131.940  0.00  0.00    +0.000 OA
BRANCH  28  29
ATOM     29  C   UNL     1      -3.173   7.097 130.950  0.00  0.00    +0.000 C 
ATOM     30  C   UNL     1      -3.667   6.884 129.485  0.00  0.00    +0.000 C 
ATOM     31  C   UNL     1      -4.073   5.432 129.072  0.00  0.00    +0.000 C 
ATOM     32  N   UNL     1      -2.998   4.497 129.372  0.00  0.00    +0.000 NA
ATOM     33  C   UNL     1      -2.608   4.708 130.748  0.00  0.00    +0.000 C 
ATOM     34  C   UNL     1      -2.158   6.021 131.268  0.00  0.00    +0.000 C 
BRANCH  32  35
ATOM     35  C   UNL     1      -3.471   3.094 129.229  0.00  0.00    +0.000 C 
BRANCH  35  36
ATOM     36  C   UNL     1      -4.379   2.839 128.023  0.00  0.00    +0.000 A 
ATOM     37  C   UNL     1      -3.933   2.859 126.668  0.00  0.00    +0.000 A 
ATOM     38  C   UNL     1      -2.524   3.072 126.176  0.00  0.00    +0.000 C 
ATOM     39  C   UNL     1      -4.852   2.715 125.645  0.00  0.00    +0.000 A 
ATOM     40  C   UNL     1      -6.174   2.402 125.925  0.00  0.00    +0.000 A 
ATOM     41  C   UNL     1      -7.120   2.133 124.810  0.00  0.00    +0.000 C 
ATOM     42  N   UNL     1      -6.631   2.282 127.237  0.00  0.00    +0.000 N 
ATOM     43  O   UNL     1      -7.841   1.948 127.460  0.00  0.00    +0.000 OA
ATOM     44  C   UNL     1      -5.741   2.522 128.286  0.00  0.00    +0.000 A 
ATOM     45  C   UNL     1      -6.267   2.391 129.686  0.00  0.00    +0.000 C 
ENDBRANCH  35  36
ENDBRANCH  32  35
ENDBRANCH  28  29
ENDBRANCH   3  28
TORSDOF 7
ENDMDL
MODEL 6
REMARK VINA RESULT:     -10.0      3.524      6.148
REMARK  Name = CHEMBL306010
REMARK  11 active torsions:
REMARK  status: ('A' for Active; 'I' for Inactive)
REMARK    1  A    between atoms: C_1  and  O_2
REMARK    2  A    between atoms: O_2  and  C_3
REMARK    3  A    between atoms: C_5  and  O_6
REMARK    4  A    between atoms: O_6  and  C_7
REMARK    5  A    between atoms: N_10  and  C_11
REMARK    6  A    between atoms: C_11  and  C_12
REMARK    7  A    between atoms: C_13  and  C_14
REMARK    8  A    between atoms: C_16  and  C_17
REMARK    9  A    between atoms: C_20  and  C_21
REMARK   10  A    between atoms: C_26  and  C_27
REMARK   11  A    between atoms: C_32  and  N_33
REMARK                            x       y       z     vdW  Elec       q    Type
REMARK                         _______ _______ _______ _____ _____    ______ ____
ROOT
ATOM      1  C   UNL     1      -6.001   2.357 127.656  0.00  0.00    +0.000 A 
ATOM      2  C   UNL     1      -7.219   2.438 126.944  0.00  0.00    +0.000 A 
ATOM      3  C   UNL     1      -7.461   3.462 126.060  0.00  0.00    +0.000 A 
ATOM      4  C   UNL     1      -6.522   4.459 126.015  0.00  0.00    +0.000 A 
ATOM      5  C   UNL     1      -5.242   4.343 126.582  0.00  0.00    +0.000 A 
ATOM      6  C   UNL     1      -4.939   3.286 127.473  0.00  0.00    +0.000 A 
ENDROOT
BRANCH   6   7
ATOM      7  C   UNL     1      -3.574   3.373 128.229  0.00  0.00    +0.000 C 
ATOM      8  O   UNL     1      -2.557   3.366 127.523  0.00  0.00    +0.000 OA
ATOM      9  N   UNL     1      -3.483   3.456 129.695  0.00  0.00    +0.000 N 
ATOM     10  C   UNL     1      -3.111   4.759 130.412  0.00  0.00    +0.000 C 
ATOM     11  C   UNL     1      -2.659   4.539 131.881  0.00  0.00    +0.000 C 
ATOM     12  C   UNL     1      -3.815   3.696 133.104  0.00  0.00    +0.000 C 
ATOM     13  C   UNL     1      -3.886   2.334 131.954  0.00  0.00    +0.000 C 
ATOM     14  C   UNL     1      -4.340   2.561 130.493  0.00  0.00    +0.000 C 
BRANCH  12  15
ATOM     15  N   UNL     1      -4.995   4.703 134.145  0.00  0.00    +0.000 N 
ATOM     16  C   UNL     1      -4.167   4.311 135.183  0.00  0.00    +0.000 C 
ATOM     17  O   UNL     1      -3.687   3.147 135.442  0.00  0.00    +0.000 OA
ATOM     18  O   UNL     1      -3.845   5.304 135.931  0.00  0.00    +0.000 OA
ATOM     19  C   UNL     1      -4.756   5.048 136.924  0.00  0.00    +0.000 C 
ATOM     20  C   UNL     1      -5.788   5.893 136.286  0.00  0.00    +0.000 A 
ATOM     21  C   UNL     1      -5.905   7.190 137.201  0.00  0.00    +0.000 A 
ATOM     22  C   UNL     1      -7.013   7.814 137.666  0.00  0.00    +0.000 A 
ATOM     23  C   UNL     1      -8.035   7.112 137.128  0.00  0.00    +0.000 A 
ATOM     24  C   UNL     1      -7.743   5.871 135.977  0.00  0.00    +0.000 A 
ATOM     25  C   UNL     1      -6.467   5.050 135.323  0.00  0.00    +0.000 A 
ENDBRANCH  12  15
ENDBRANCH   6   7
BRANCH   1  27
ATOM     26  C   UNL     1      -7.408   0.949 128.839  0.00  0.00    +0.000 C 
ATOM     27  O   UNL     1      -6.093   1.252 128.472  0.00  0.00    +0.000 OA
ENDBRANCH   1  27
BRANCH   3  28
ATOM     28  O   UNL     1      -8.629   3.561 125.369  0.00  0.00    +0.000 OA
BRANCH  28  29
ATOM     29  C   UNL     1      -8.752   2.927 124.064  0.00  0.00    +0.000 C 
ATOM     30  C   UNL     1      -9.688   1.684 123.944  0.00  0.00    +0.000 C 
ATOM     31  C   UNL     1      -9.026   0.275 124.077  0.00  0.00    +0.000 C 
ATOM     32  N   UNL     1      -7.912   0.145 123.151  0.00  0.00    +0.000 NA
ATOM     33  C   UNL     1      -7.057   1.296 123.331  0.00  0.00    +0.000 C 
ATOM     34  C   UNL     1      -7.539   2.691 123.190  0.00  0.00    +0.000 C 
BRANCH  32  35
ATOM     35  C   UNL     1      -7.120  -1.078 123.452  0.00  0.00    +0.000 C 
BRANCH  35  36
ATOM     36  C   UNL     1      -7.609  -1.880 124.663  0.00  0.00    +0.000 A 
ATOM     37  C   UNL     1      -8.714  -2.780 124.631  0.00  0.00    +0.000 A 
ATOM     38  C   UNL     1      -9.555  -3.150 123.437  0.00  0.00    +0.000 C 
ATOM     39  C   UNL     1      -9.137  -3.381 125.803  0.00  0.00    +0.000 A 
ATOM     40  C   UNL     1      -8.408  -3.234 126.973  0.00  0.00    +0.000 A 
ATOM     41  C   UNL     1      -8.811  -3.983 128.192  0.00  0.00    +0.000 C 
ATOM     42  N   UNL     1      -7.266  -2.435 127.023  0.00  0.00    +0.000 N 
ATOM     43  O   UNL     1      -6.591  -2.358 128.102  0.00  0.00    +0.000 OA
ATOM     44  C   UNL     1      -6.879  -1.740 125.876  0.00  0.00    +0.000 A 
ATOM     45  C   UNL     1      -5.648  -0.883 125.966  0.00  0.00    +0.000 C 
ENDBRANCH  35  36
ENDBRANCH  32  35
ENDBRANCH  28  29
ENDBRANCH   3  28
TORSDOF 7
ENDMDL
MODEL 7
REMARK VINA RESULT:      -9.9      3.059      9.213
REMARK  Name = CHEMBL306010
REMARK  11 active torsions:
REMARK  status: ('A' for Active; 'I' for Inactive)
REMARK    1  A    between atoms: C_1  and  O_2
REMARK    2  A    between atoms: O_2  and  C_3
REMARK    3  A    between atoms: C_5  and  O_6
REMARK    4  A    between atoms: O_6  and  C_7
REMARK    5  A    between atoms: N_10  and  C_11
REMARK    6  A    between atoms: C_11  and  C_12
REMARK    7  A    between atoms: C_13  and  C_14
REMARK    8  A    between atoms: C_16  and  C_17
REMARK    9  A    between atoms: C_20  and  C_21
REMARK   10  A    between atoms: C_26  and  C_27
REMARK   11  A    between atoms: C_32  and  N_33
REMARK                            x       y       z     vdW  Elec       q    Type
REMARK                         _______ _______ _______ _____ _____    ______ ____
ROOT
ATOM      1  C   UNL     1      -3.464   6.373 131.233  0.00  0.00    +0.000 A 
ATOM      2  C   UNL     1      -3.983   6.108 132.520  0.00  0.00    +0.000 A 
ATOM      3  C   UNL     1      -4.496   4.876 132.844  0.00  0.00    +0.000 A 
ATOM      4  C   UNL     1      -4.600   3.975 131.817  0.00  0.00    +0.000 A 
ATOM      5  C   UNL     1      -3.963   4.138 130.575  0.00  0.00    +0.000 A 
ATOM      6  C   UNL     1      -3.393   5.382 130.214  0.00  0.00    +0.000 A 
ENDROOT
BRANCH   6   7
ATOM      7  C   UNL     1      -2.919   5.535 128.733  0.00  0.00    +0.000 C 
ATOM      8  O   UNL     1      -1.918   6.240 128.549  0.00  0.00    +0.000 OA
ATOM      9  N   UNL     1      -3.611   4.886 127.608  0.00  0.00    +0.000 N 
ATOM     10  C   UNL     1      -3.022   3.668 126.887  0.00  0.00    +0.000 C 
ATOM     11  C   UNL     1      -3.669   3.408 125.499  0.00  0.00    +0.000 C 
ATOM     12  C   UNL     1      -5.525   3.124 125.367  0.00  0.00    +0.000 C 
ATOM     13  C   UNL     1      -5.729   4.690 126.194  0.00  0.00    +0.000 C 
ATOM     14  C   UNL     1      -5.083   4.941 127.577  0.00  0.00    +0.000 C 
BRANCH  12  15
ATOM     15  N   UNL     1      -6.230   1.396 125.461  0.00  0.00    +0.000 N 
ATOM     16  C   UNL     1      -6.867   1.761 124.287  0.00  0.00    +0.000 C 
ATOM     17  O   UNL     1      -7.489   2.851 124.007  0.00  0.00    +0.000 OA
ATOM     18  O   UNL     1      -6.751   0.855 123.384  0.00  0.00    +0.000 OA
ATOM     19  C   UNL     1      -7.993   0.301 123.565  0.00  0.00    +0.000 C 
ATOM     20  C   UNL     1      -7.488  -0.664 124.566  0.00  0.00    +0.000 A 
ATOM     21  C   UNL     1      -7.510  -2.082 123.844  0.00  0.00    +0.000 A 
ATOM     22  C   UNL     1      -7.968  -3.271 124.302  0.00  0.00    +0.000 A 
ATOM     23  C   UNL     1      -8.369  -3.003 125.564  0.00  0.00    +0.000 A 
ATOM     24  C   UNL     1      -8.071  -1.469 126.278  0.00  0.00    +0.000 A 
ATOM     25  C   UNL     1      -7.511   0.023 125.842  0.00  0.00    +0.000 A 
ENDBRANCH  12  15
ENDBRANCH   6   7
BRANCH   1  27
ATOM     26  C   UNL     1      -2.570   8.120 132.461  0.00  0.00    +0.000 C 
ATOM     27  O   UNL     1      -3.071   7.691 131.228  0.00  0.00    +0.000 OA
ENDBRANCH   1  27
BRANCH   3  28
ATOM     28  O   UNL     1      -5.004   4.602 134.076  0.00  0.00    +0.000 OA
BRANCH  28  29
ATOM     29  C   UNL     1      -6.355   5.027 134.411  0.00  0.00    +0.000 C 
ATOM     30  C   UNL     1      -7.383   3.928 134.827  0.00  0.00    +0.000 C 
ATOM     31  C   UNL     1      -8.311   3.358 133.706  0.00  0.00    +0.000 C 
ATOM     32  N   UNL     1      -8.997   4.439 133.014  0.00  0.00    +0.000 NA
ATOM     33  C   UNL     1      -8.000   5.406 132.616  0.00  0.00    +0.000 C 
ATOM     34  C   UNL     1      -7.081   6.061 133.578  0.00  0.00    +0.000 C 
BRANCH  32  35
ATOM     35  C   UNL     1      -9.672   3.931 131.789  0.00  0.00    +0.000 C 
BRANCH  35  36
ATOM     36  C   UNL     1      -9.966   4.995 130.727  0.00  0.00    +0.000 A 
ATOM     37  C   UNL     1     -10.804   6.129 130.942  0.00  0.00    +0.000 A 
ATOM     38  C   UNL     1     -11.496   6.521 132.223  0.00  0.00    +0.000 C 
ATOM     39  C   UNL     1     -11.086   6.978 129.888  0.00  0.00    +0.000 A 
ATOM     40  C   UNL     1     -10.445   6.823 128.668  0.00  0.00    +0.000 A 
ATOM     41  C   UNL     1     -10.671   7.816 127.585  0.00  0.00    +0.000 C 
ATOM     42  N   UNL     1      -9.548   5.780 128.445  0.00  0.00    +0.000 N 
ATOM     43  O   UNL     1      -8.940   5.692 127.328  0.00  0.00    +0.000 OA
ATOM     44  C   UNL     1      -9.324   4.853 129.465  0.00  0.00    +0.000 A 
ATOM     45  C   UNL     1      -8.356   3.738 129.190  0.00  0.00    +0.000 C 
ENDBRANCH  35  36
ENDBRANCH  32  35
ENDBRANCH  28  29
ENDBRANCH   3  28
TORSDOF 7
ENDMDL
MODEL 8
REMARK VINA RESULT:      -9.9      5.291      8.030
REMARK  Name = CHEMBL306010
REMARK  11 active torsions:
REMARK  status: ('A' for Active; 'I' for Inactive)
REMARK    1  A    between atoms: C_1  and  O_2
REMARK    2  A    between atoms: O_2  and  C_3
REMARK    3  A    between atoms: C_5  and  O_6
REMARK    4  A    between atoms: O_6  and  C_7
REMARK    5  A    between atoms: N_10  and  C_11
REMARK    6  A    between atoms: C_11  and  C_12
REMARK    7  A    between atoms: C_13  and  C_14
REMARK    8  A    between atoms: C_16  and  C_17
REMARK    9  A    between atoms: C_20  and  C_21
REMARK   10  A    between atoms: C_26  and  C_27
REMARK   11  A    between atoms: C_32  and  N_33
REMARK                            x       y       z     vdW  Elec       q    Type
REMARK                         _______ _______ _______ _____ _____    ______ ____
ROOT
ATOM      1  C   UNL     1      -4.118   6.584 130.808  0.00  0.00    +0.000 A 
ATOM      2  C   UNL     1      -4.784   6.204 129.621  0.00  0.00    +0.000 A 
ATOM      3  C   UNL     1      -4.103   5.642 128.569  0.00  0.00    +0.000 A 
ATOM      4  C   UNL     1      -2.738   5.599 128.684  0.00  0.00    +0.000 A 
ATOM      5  C   UNL     1      -2.056   5.819 129.893  0.00  0.00    +0.000 A 
ATOM      6  C   UNL     1      -2.727   6.367 131.012  0.00  0.00    +0.000 A 
ENDROOT
BRANCH   6   7
ATOM      7  C   UNL     1      -1.839   6.791 132.226  0.00  0.00    +0.000 C 
ATOM      8  O   UNL     1      -0.651   7.032 131.977  0.00  0.00    +0.000 OA
ATOM      9  N   UNL     1      -2.367   6.900 133.595  0.00  0.00    +0.000 N 
ATOM     10  C   UNL     1      -2.618   8.258 134.262  0.00  0.00    +0.000 C 
ATOM     11  C   UNL     1      -2.760   8.163 135.805  0.00  0.00    +0.000 C 
ATOM     12  C   UNL     1      -4.090   7.067 136.560  0.00  0.00    +0.000 C 
ATOM     13  C   UNL     1      -3.385   5.725 135.621  0.00  0.00    +0.000 C 
ATOM     14  C   UNL     1      -3.250   5.826 134.084  0.00  0.00    +0.000 C 
BRANCH  12  15
ATOM     15  N   UNL     1      -5.782   7.758 136.950  0.00  0.00    +0.000 N 
ATOM     16  C   UNL     1      -5.432   7.457 138.256  0.00  0.00    +0.000 C 
ATOM     17  O   UNL     1      -4.891   6.390 138.724  0.00  0.00    +0.000 OA
ATOM     18  O   UNL     1      -5.676   8.438 139.048  0.00  0.00    +0.000 OA
ATOM     19  C   UNL     1      -6.858   7.945 139.540  0.00  0.00    +0.000 C 
ATOM     20  C   UNL     1      -7.652   8.623 138.493  0.00  0.00    +0.000 A 
ATOM     21  C   UNL     1      -8.415   9.807 139.233  0.00  0.00    +0.000 A 
ATOM     22  C   UNL     1      -9.715  10.176 139.146  0.00  0.00    +0.000 A 
ATOM     23  C   UNL     1     -10.234   9.333 138.227  0.00  0.00    +0.000 A 
ATOM     24  C   UNL     1      -9.226   8.254 137.350  0.00  0.00    +0.000 A 
ATOM     25  C   UNL     1      -7.657   7.736 137.346  0.00  0.00    +0.000 A 
ENDBRANCH  12  15
ENDBRANCH   6   7
BRANCH   1  27
ATOM     26  C   UNL     1      -6.378   6.837 131.247  0.00  0.00    +0.000 C 
ATOM     27  O   UNL     1      -5.068   7.141 131.634  0.00  0.00    +0.000 OA
ENDBRANCH   1  27
BRANCH   3  28
ATOM     28  O   UNL     1      -4.725   5.274 127.416  0.00  0.00    +0.000 OA
BRANCH  28  29
ATOM     29  C   UNL     1      -5.844   4.344 127.463  0.00  0.00    +0.000 C 
ATOM     30  C   UNL     1      -5.523   2.826 127.636  0.00  0.00    +0.000 C 
ATOM     31  C   UNL     1      -5.431   1.963 126.336  0.00  0.00    +0.000 C 
ATOM     32  N   UNL     1      -6.631   2.126 125.530  0.00  0.00    +0.000 NA
ATOM     33  C   UNL     1      -6.859   3.543 125.366  0.00  0.00    +0.000 C 
ATOM     34  C   UNL     1      -7.012   4.475 126.510  0.00  0.00    +0.000 C 
BRANCH  32  35
ATOM     35  C   UNL     1      -6.442   1.523 124.183  0.00  0.00    +0.000 C 
BRANCH  35  36
ATOM     36  C   UNL     1      -7.225   0.229 123.940  0.00  0.00    +0.000 A 
ATOM     37  C   UNL     1      -6.764  -1.067 124.316  0.00  0.00    +0.000 A 
ATOM     38  C   UNL     1      -5.490  -1.404 125.048  0.00  0.00    +0.000 C 
ATOM     39  C   UNL     1      -7.501  -2.182 123.962  0.00  0.00    +0.000 A 
ATOM     40  C   UNL     1      -8.752  -2.044 123.381  0.00  0.00    +0.000 A 
ATOM     41  C   UNL     1      -9.580  -3.250 123.117  0.00  0.00    +0.000 C 
ATOM     42  N   UNL     1      -9.280  -0.789 123.080  0.00  0.00    +0.000 N 
ATOM     43  O   UNL     1     -10.452  -0.694 122.588  0.00  0.00    +0.000 OA
ATOM     44  C   UNL     1      -8.509   0.346 123.338  0.00  0.00    +0.000 A 
ATOM     45  C   UNL     1      -9.105   1.682 122.997  0.00  0.00    +0.000 C 
ENDBRANCH  35  36
ENDBRANCH  32  35
ENDBRANCH  28  29
ENDBRANCH   3  28
TORSDOF 7
ENDMDL
MODEL 9
REMARK VINA RESULT:      -9.8      2.506      8.035
REMARK  Name = CHEMBL306010
REMARK  11 active torsions:
REMARK  status: ('A' for Active; 'I' for Inactive)
REMARK    1  A    between atoms: C_1  and  O_2
REMARK    2  A    between atoms: O_2  and  C_3
REMARK    3  A    between atoms: C_5  and  O_6
REMARK    4  A    between atoms: O_6  and  C_7
REMARK    5  A    between atoms: N_10  and  C_11
REMARK    6  A    between atoms: C_11  and  C_12
REMARK    7  A    between atoms: C_13  and  C_14
REMARK    8  A    between atoms: C_16  and  C_17
REMARK    9  A    between atoms: C_20  and  C_21
REMARK   10  A    between atoms: C_26  and  C_27
REMARK   11  A    between atoms: C_32  and  N_33
REMARK                            x       y       z     vdW  Elec       q    Type
REMARK                         _______ _______ _______ _____ _____    ______ ____
ROOT
ATOM      1  C   UNL     1      -7.322   5.670 131.609  0.00  0.00    +0.000 A 
ATOM      2  C   UNL     1      -6.354   6.611 131.195  0.00  0.00    +0.000 A 
ATOM      3  C   UNL     1      -5.132   6.700 131.817  0.00  0.00    +0.000 A 
ATOM      4  C   UNL     1      -4.964   5.926 132.935  0.00  0.00    +0.000 A 
ATOM      5  C   UNL     1      -5.829   4.876 133.287  0.00  0.00    +0.000 A 
ATOM      6  C   UNL     1      -7.084   4.729 132.650  0.00  0.00    +0.000 A 
ENDROOT
BRANCH   6   7
ATOM      7  C   UNL     1      -8.067   3.683 133.267  0.00  0.00    +0.000 C 
ATOM      8  O   UNL     1      -8.794   4.089 134.183  0.00  0.00    +0.000 OA
ATOM      9  N   UNL     1      -8.138   2.289 132.799  0.00  0.00    +0.000 N 
ATOM     10  C   UNL     1      -9.307   1.777 131.950  0.00  0.00    +0.000 C 
ATOM     11  C   UNL     1      -9.411   0.228 131.925  0.00  0.00    +0.000 C 
ATOM     12  C   UNL     1      -7.959  -0.801 131.314  0.00  0.00    +0.000 C 
ATOM     13  C   UNL     1      -6.972   0.031 132.544  0.00  0.00    +0.000 C 
ATOM     14  C   UNL     1      -6.871   1.575 132.560  0.00  0.00    +0.000 C 
BRANCH  12  15
ATOM     15  N   UNL     1      -7.827  -1.282 129.514  0.00  0.00    +0.000 N 
ATOM     16  C   UNL     1      -7.950  -2.569 130.010  0.00  0.00    +0.000 C 
ATOM     17  O   UNL     1      -7.358  -3.111 131.014  0.00  0.00    +0.000 OA
ATOM     18  O   UNL     1      -8.818  -3.248 129.351  0.00  0.00    +0.000 OA
ATOM     19  C   UNL     1      -7.917  -3.929 128.571  0.00  0.00    +0.000 C 
ATOM     20  C   UNL     1      -7.955  -2.897 127.512  0.00  0.00    +0.000 A 
ATOM     21  C   UNL     1      -8.746  -3.556 126.299  0.00  0.00    +0.000 A 
ATOM     22  C   UNL     1      -8.440  -3.566 124.980  0.00  0.00    +0.000 A 
ATOM     23  C   UNL     1      -7.311  -2.828 124.900  0.00  0.00    +0.000 A 
ATOM     24  C   UNL     1      -6.703  -1.993 126.273  0.00  0.00    +0.000 A 
ATOM     25  C   UNL     1      -6.992  -1.883 127.896  0.00  0.00    +0.000 A 
ENDBRANCH  12  15
ENDBRANCH   6   7
BRANCH   1  27
ATOM     26  C   UNL     1      -9.491   6.473 131.497  0.00  0.00    +0.000 C 
ATOM     27  O   UNL     1      -8.430   5.866 130.817  0.00  0.00    +0.000 OA
ENDBRANCH   1  27
BRANCH   3  28
ATOM     28  O   UNL     1      -4.188   7.603 131.436  0.00  0.00    +0.000 OA
BRANCH  28  29
ATOM     29  C   UNL     1      -3.191   7.230 130.443  0.00  0.00    +0.000 C 
ATOM     30  C   UNL     1      -3.640   7.167 128.949  0.00  0.00    +0.000 C 
ATOM     31  C   UNL     1      -4.076   5.773 128.392  0.00  0.00    +0.000 C 
ATOM     32  N   UNL     1      -3.043   4.779 128.640  0.00  0.00    +0.000 NA
ATOM     33  C   UNL     1      -2.694   4.851 130.040  0.00  0.00    +0.000 C 
ATOM     34  C   UNL     1      -2.222   6.096 130.693  0.00  0.00    +0.000 C 
BRANCH  32  35
ATOM     35  C   UNL     1      -3.553   3.411 128.354  0.00  0.00    +0.000 C 
BRANCH  35  36
ATOM     36  C   UNL     1      -4.798   3.361 127.463  0.00  0.00    +0.000 A 
ATOM     37  C   UNL     1      -6.128   3.211 127.956  0.00  0.00    +0.000 A 
ATOM     38  C   UNL     1      -6.562   3.131 129.397  0.00  0.00    +0.000 C 
ATOM     39  C   UNL     1      -7.175   3.077 127.063  0.00  0.00    +0.000 A 
ATOM     40  C   UNL     1      -6.965   3.237 125.702  0.00  0.00    +0.000 A 
ATOM     41  C   UNL     1      -8.122   3.208 124.769  0.00  0.00    +0.000 C 
ATOM     42  N   UNL     1      -5.692   3.477 125.186  0.00  0.00    +0.000 N 
ATOM     43  O   UNL     1      -5.539   3.665 123.934  0.00  0.00    +0.000 OA
ATOM     44  C   UNL     1      -4.606   3.517 126.062  0.00  0.00    +0.000 A 
ATOM     45  C   UNL     1      -3.248   3.771 125.473  0.00  0.00    +0.000 C 
ENDBRANCH  35  36
ENDBRANCH  32  35
ENDBRANCH  28  29
ENDBRANCH   3  28
TORSDOF 7
ENDMDL
