MODEL 1
REMARK VINA RESULT:      -8.6      0.000      0.000
REMARK  Name = CHEMBL2369837
REMARK  22 active torsions:
REMARK  status: ('A' for Active; 'I' for Inactive)
REMARK    1  A    between atoms: N_1  and  C_2
REMARK    2  A    between atoms: C_2  and  C_3
REMARK    3  A    between atoms: C_3  and  C_4
REMARK    4  A    between atoms: C_4  and  C_5
REMARK    5  A    between atoms: C_5  and  C_6
REMARK    6  A    between atoms: C_10  and  C_11
REMARK    7  A    between atoms: C_11  and  C_12
REMARK    8  A    between atoms: C_21  and  C_22
REMARK    9  A    between atoms: C_22  and  C_23
REMARK   10  A    between atoms: C_26  and  O_27
REMARK   11  A    between atoms: C_38  and  C_39
REMARK   12  A    between atoms: C_45  and  C_46
REMARK   13  A    between atoms: N_48  and  C_49
REMARK   14  A    between atoms: C_49  and  C_50
REMARK   15  A    between atoms: C_49  and  C_57
REMARK   16  A    between atoms: C_50  and  C_51
REMARK   17  A    between atoms: C_51  and  C_52
REMARK   18  A    between atoms: C_52  and  N_53
REMARK   19  A    between atoms: N_59  and  C_60
REMARK   20  A    between atoms: C_60  and  C_61
REMARK   21  A    between atoms: C_67  and  C_68
REMARK   22  A    between atoms: C_68  and  C_69
REMARK                            x       y       z     vdW  Elec       q    Type
REMARK                         _______ _______ _______ _____ _____    ______ ____
ROOT
ATOM      1  C   UNL     1      -6.937   3.711 125.513  0.00  0.00    +0.000 C 
ATOM      2  N   UNL     1      -8.054   2.524 125.959  0.00  0.00    +0.000 N 
ATOM      3  C   UNL     1      -8.347   1.387 126.790  0.00  0.00    +0.000 C 
ATOM      4  O   UNL     1      -9.425   1.371 127.425  0.00  0.00    +0.000 OA
ATOM      5  C   UNL     1      -7.423   0.115 126.850  0.00  0.00    +0.000 C 
ATOM      6  N   UNL     1      -6.341  -0.109 127.807  0.00  0.00    +0.000 N 
ATOM      7  C   UNL     1      -6.244  -0.548 129.098  0.00  0.00    +0.000 C 
ATOM      8  O   UNL     1      -5.090  -0.903 129.387  0.00  0.00    +0.000 OA
ATOM      9  C   UNL     1      -7.523  -0.557 130.209  0.00  0.00    +0.000 C 
ATOM     10  N   UNL     1      -7.366  -1.808 130.859  0.00  0.00    +0.000 N 
ATOM     11  C   UNL     1      -6.351  -2.103 131.704  0.00  0.00    +0.000 C 
ATOM     12  O   UNL     1      -6.314  -3.271 132.105  0.00  0.00    +0.000 OA
ATOM     13  C   UNL     1      -5.279  -1.071 132.187  0.00  0.00    +0.000 C 
ATOM     14  C   UNL     1      -5.174   0.409 131.802  0.00  0.00    +0.000 C 
ATOM     15  S   UNL     1      -3.768   1.449 132.302  0.00  0.00    +0.000 S 
ATOM     16  S   UNL     1      -4.703   3.310 132.081  0.00  0.00    +0.000 S 
ATOM     17  C   UNL     1      -3.416   4.471 131.499  0.00  0.00    +0.000 C 
ATOM     18  C   UNL     1      -3.704   5.835 130.854  0.00  0.00    +0.000 C 
ATOM     19  N   UNL     1      -3.538   5.770 129.395  0.00  0.00    +0.000 N 
ATOM     20  C   UNL     1      -4.186   5.005 128.507  0.00  0.00    +0.000 C 
ATOM     21  O   UNL     1      -3.863   4.980 127.321  0.00  0.00    +0.000 OA
ATOM     22  C   UNL     1      -5.356   4.214 128.953  0.00  0.00    +0.000 C 
ATOM     23  N   UNL     1      -6.484   4.880 127.826  0.00  0.00    +0.000 N 
ATOM     24  C   UNL     1      -7.298   4.676 126.591  0.00  0.00    +0.000 C 
ATOM     25  O   UNL     1      -8.451   5.105 126.421  0.00  0.00    +0.000 OA
ATOM     26  H   UNL     1      -8.925   3.060 126.101  0.00  0.00    +0.000 HD
ATOM     27  H   UNL     1      -5.411  -0.147 127.372  0.00  0.00    +0.000 HD
ATOM     28  H   UNL     1      -7.945  -2.577 130.533  0.00  0.00    +0.000 HD
ATOM     29  H   UNL     1      -2.846   6.376 128.957  0.00  0.00    +0.000 HD
ATOM     30  H   UNL     1      -6.981   5.557 128.400  0.00  0.00    +0.000 HD
ENDROOT
BRANCH  18  31
ATOM     31  C   UNL     1      -2.754   6.986 131.358  0.00  0.00    +0.000 C 
ATOM     32  O   UNL     1      -2.255   7.753 130.528  0.00  0.00    +0.000 OA
ATOM     33  N   UNL     1      -2.697   7.242 132.722  0.00  0.00    +0.000 N 
ATOM     34  C   UNL     1      -2.502   6.300 133.808  0.00  0.00    +0.000 C 
ATOM     35  C   UNL     1      -3.208   6.980 134.939  0.00  0.00    +0.000 C 
ATOM     36  C   UNL     1      -2.713   8.401 134.801  0.00  0.00    +0.000 C 
ATOM     37  C   UNL     1      -2.465   8.598 133.287  0.00  0.00    +0.000 C 
BRANCH  37  38
ATOM     38  C   UNL     1      -1.000   9.062 133.208  0.00  0.00    +0.000 C 
ATOM     39  O   UNL     1      -0.086   8.241 133.281  0.00  0.00    +0.000 OA
ATOM     40  N   UNL     1      -0.768  10.434 133.167  0.00  0.00    +0.000 N 
ATOM     41  H   UNL     1      -1.490  11.096 133.439  0.00  0.00    +0.000 HD
BRANCH  40  42
ATOM     42  C   UNL     1       0.571  11.007 132.899  0.00  0.00    +0.000 C 
BRANCH  42  43
ATOM     43  C   UNL     1       1.321  11.329 134.238  0.00  0.00    +0.000 C 
ATOM     44  O   UNL     1       2.321  12.046 134.265  0.00  0.00    +0.000 OA
ATOM     45  N   UNL     1       0.790  10.764 135.386  0.00  0.00    +0.000 N 
ATOM     46  H   UNL     1      -0.040  10.203 135.311  0.00  0.00    +0.000 HD
BRANCH  45  47
ATOM     47  C   UNL     1       1.394  10.952 136.708  0.00  0.00    +0.000 C 
BRANCH  47  48
ATOM     48  C   UNL     1       1.311  12.370 137.304  0.00  0.00    +0.000 C 
ATOM     49  N   UNL     1       2.424  13.161 137.249  0.00  0.00    +0.000 N 
ATOM     50  O   UNL     1       0.287  12.814 137.819  0.00  0.00    +0.000 OA
ATOM     51  H   UNL     1       3.314  12.905 136.860  0.00  0.00    +0.000 HD
ATOM     52  H   UNL     1       2.351  14.088 137.652  0.00  0.00    +0.000 HD
ENDBRANCH  47  48
ENDBRANCH  45  47
ENDBRANCH  42  43
BRANCH  42  53
ATOM     53  C   UNL     1       0.449  12.298 132.061  0.00  0.00    +0.000 C 
BRANCH  53  54
ATOM     54  C   UNL     1      -1.000  12.652 131.748  0.00  0.00    +0.000 C 
BRANCH  54  55
ATOM     55  C   UNL     1      -1.584  13.742 132.597  0.00  0.00    +0.000 C 
BRANCH  55  56
ATOM     56  N   UNL     1      -2.184  13.116 133.775  0.00  0.00    +0.000 NA
ATOM     57  C   UNL     1      -1.671  13.428 134.907  0.00  0.00    +0.000 C 
ATOM     58  N   UNL     1      -0.657  14.286 135.102  0.00  0.00    +0.000 N 
ATOM     59  N   UNL     1      -2.153  12.894 136.040  0.00  0.00    +0.000 N 
ATOM     60  H   UNL     1      -0.226  14.721 134.300  0.00  0.00    +0.000 HD
ATOM     61  H   UNL     1      -0.290  14.514 136.007  0.00  0.00    +0.000 HD
ATOM     62  H   UNL     1      -2.898  12.214 135.949  0.00  0.00    +0.000 HD
ATOM     63  H   UNL     1      -1.795  13.092 136.957  0.00  0.00    +0.000 HD
ENDBRANCH  55  56
ENDBRANCH  54  55
ENDBRANCH  53  54
ENDBRANCH  42  53
ENDBRANCH  40  42
ENDBRANCH  37  38
ENDBRANCH  18  31
BRANCH   5  64
ATOM     64  C   UNL     1      -8.188  -1.186 126.855  0.00  0.00    +0.000 C 
BRANCH  64  65
ATOM     65  C   UNL     1      -8.338  -1.811 125.518  0.00  0.00    +0.000 A 
ATOM     66  C   UNL     1      -8.346  -1.096 124.306  0.00  0.00    +0.000 A 
ATOM     67  C   UNL     1      -8.986  -1.586 123.199  0.00  0.00    +0.000 A 
ATOM     68  C   UNL     1      -9.205  -2.941 123.172  0.00  0.00    +0.000 A 
ATOM     69  C   UNL     1      -9.018  -3.722 124.319  0.00  0.00    +0.000 A 
ATOM     70  C   UNL     1      -8.663  -3.148 125.520  0.00  0.00    +0.000 A 
ENDBRANCH  64  65
ENDBRANCH   5  64
BRANCH   9  71
ATOM     71  C   UNL     1      -8.032   0.565 131.288  0.00  0.00    +0.000 C 
BRANCH  71  72
ATOM     72  C   UNL     1      -8.675   1.762 130.699  0.00  0.00    +0.000 A 
ATOM     73  C   UNL     1      -9.967   1.807 130.969  0.00  0.00    +0.000 A 
ATOM     74  C   UNL     1     -10.738   2.893 130.723  0.00  0.00    +0.000 A 
ATOM     75  C   UNL     1     -10.291   4.099 130.324  0.00  0.00    +0.000 A 
ATOM     76  C   UNL     1      -9.118   3.934 129.689  0.00  0.00    +0.000 A 
ATOM     77  C   UNL     1      -8.291   2.805 129.888  0.00  0.00    +0.000 A 
BRANCH  75  78
ATOM     78  O   UNL     1     -10.947   5.230 129.931  0.00  0.00    +0.000 OA
ATOM     79  H   UNL     1     -11.319   5.802 130.645  0.00  0.00    +0.000 HD
ENDBRANCH  75  78
ENDBRANCH  71  72
ENDBRANCH   9  71
BRANCH   1  80
ATOM     80  C   UNL     1      -5.703   3.476 124.663  0.00  0.00    +0.000 C 
BRANCH  80  81
ATOM     81  C   UNL     1      -5.951   4.028 123.328  0.00  0.00    +0.000 C 
BRANCH  81  82
ATOM     82  C   UNL     1      -6.667   2.934 122.633  0.00  0.00    +0.000 C 
BRANCH  82  83
ATOM     83  C   UNL     1      -7.157   3.569 121.378  0.00  0.00    +0.000 C 
BRANCH  83  84
ATOM     84  N   UNL     1      -8.571   3.746 121.552  0.00  0.00    +0.000 NA
ATOM     85  H   UNL     1      -8.716   4.526 122.181  0.00  0.00    +0.000 HD
ATOM     86  H   UNL     1      -8.947   2.910 121.997  0.00  0.00    +0.000 HD
ENDBRANCH  83  84
ENDBRANCH  82  83
ENDBRANCH  81  82
ENDBRANCH  80  81
ENDBRANCH   1  80
BRANCH  22  87
ATOM     87  C   UNL     1      -4.788   2.678 129.095  0.00  0.00    +0.000 C 
BRANCH  87  88
ATOM     88  C   UNL     1      -4.106   2.129 127.884  0.00  0.00    +0.000 C 
ATOM     89  N   UNL     1      -2.847   2.312 128.220  0.00  0.00    +0.000 N 
ATOM     90  O   UNL     1      -4.354   1.878 126.773  0.00  0.00    +0.000 OA
ATOM     91  H   UNL     1      -2.660   2.130 129.183  0.00  0.00    +0.000 HD
ATOM     92  H   UNL     1      -2.185   2.597 127.549  0.00  0.00    +0.000 HD
ENDBRANCH  87  88
ENDBRANCH  22  87
TORSDOF 22
ENDMDL
MODEL 2
REMARK VINA RESULT:      -8.5      5.923     11.840
REMARK  Name = CHEMBL2369837
REMARK  22 active torsions:
REMARK  status: ('A' for Active; 'I' for Inactive)
REMARK    1  A    between atoms: N_1  and  C_2
REMARK    2  A    between atoms: C_2  and  C_3
REMARK    3  A    between atoms: C_3  and  C_4
REMARK    4  A    between atoms: C_4  and  C_5
REMARK    5  A    between atoms: C_5  and  C_6
REMARK    6  A    between atoms: C_10  and  C_11
REMARK    7  A    between atoms: C_11  and  C_12
REMARK    8  A    between atoms: C_21  and  C_22
REMARK    9  A    between atoms: C_22  and  C_23
REMARK   10  A    between atoms: C_26  and  O_27
REMARK   11  A    between atoms: C_38  and  C_39
REMARK   12  A    between atoms: C_45  and  C_46
REMARK   13  A    between atoms: N_48  and  C_49
REMARK   14  A    between atoms: C_49  and  C_50
REMARK   15  A    between atoms: C_49  and  C_57
REMARK   16  A    between atoms: C_50  and  C_51
REMARK   17  A    between atoms: C_51  and  C_52
REMARK   18  A    between atoms: C_52  and  N_53
REMARK   19  A    between atoms: N_59  and  C_60
REMARK   20  A    between atoms: C_60  and  C_61
REMARK   21  A    between atoms: C_67  and  C_68
REMARK   22  A    between atoms: C_68  and  C_69
REMARK                            x       y       z     vdW  Elec       q    Type
REMARK                         _______ _______ _______ _____ _____    ______ ____
ROOT
ATOM      1  C   UNL     1      -6.067   2.798 134.145  0.00  0.00    +0.000 C 
ATOM      2  N   UNL     1      -5.233   1.957 135.349  0.00  0.00    +0.000 N 
ATOM      3  C   UNL     1      -4.860   0.681 135.898  0.00  0.00    +0.000 C 
ATOM      4  O   UNL     1      -3.657   0.476 136.174  0.00  0.00    +0.000 OA
ATOM      5  C   UNL     1      -5.913  -0.428 136.271  0.00  0.00    +0.000 C 
ATOM      6  N   UNL     1      -6.358  -1.509 135.396  0.00  0.00    +0.000 N 
ATOM      7  C   UNL     1      -5.883  -2.738 135.030  0.00  0.00    +0.000 C 
ATOM      8  O   UNL     1      -6.767  -3.452 134.529  0.00  0.00    +0.000 OA
ATOM      9  C   UNL     1      -4.268  -3.228 135.176  0.00  0.00    +0.000 C 
ATOM     10  N   UNL     1      -4.384  -4.557 135.655  0.00  0.00    +0.000 N 
ATOM     11  C   UNL     1      -4.852  -5.592 134.918  0.00  0.00    +0.000 C 
ATOM     12  O   UNL     1      -4.977  -6.662 135.522  0.00  0.00    +0.000 OA
ATOM     13  C   UNL     1      -5.207  -5.500 133.398  0.00  0.00    +0.000 C 
ATOM     14  C   UNL     1      -5.109  -4.267 132.493  0.00  0.00    +0.000 C 
ATOM     15  S   UNL     1      -5.726  -4.261 130.782  0.00  0.00    +0.000 S 
ATOM     16  S   UNL     1      -4.596  -2.644 130.081  0.00  0.00    +0.000 S 
ATOM     17  C   UNL     1      -5.645  -1.763 128.870  0.00  0.00    +0.000 C 
ATOM     18  C   UNL     1      -5.390  -0.330 128.379  0.00  0.00    +0.000 C 
ATOM     19  N   UNL     1      -6.297   0.619 129.040  0.00  0.00    +0.000 N 
ATOM     20  C   UNL     1      -6.426   0.891 130.344  0.00  0.00    +0.000 C 
ATOM     21  O   UNL     1      -7.310   1.637 130.763  0.00  0.00    +0.000 OA
ATOM     22  C   UNL     1      -5.447   0.326 131.300  0.00  0.00    +0.000 C 
ATOM     23  N   UNL     1      -4.936   1.834 131.973  0.00  0.00    +0.000 N 
ATOM     24  C   UNL     1      -4.965   2.764 133.141  0.00  0.00    +0.000 C 
ATOM     25  O   UNL     1      -4.001   3.443 133.532  0.00  0.00    +0.000 OA
ATOM     26  H   UNL     1      -4.311   2.419 135.366  0.00  0.00    +0.000 HD
ATOM     27  H   UNL     1      -7.351  -1.447 135.142  0.00  0.00    +0.000 HD
ATOM     28  H   UNL     1      -4.281  -4.702 136.655  0.00  0.00    +0.000 HD
ATOM     29  H   UNL     1      -6.930   1.169 128.461  0.00  0.00    +0.000 HD
ATOM     30  H   UNL     1      -4.059   1.997 131.486  0.00  0.00    +0.000 HD
ENDROOT
BRANCH  18  31
ATOM     31  C   UNL     1      -5.605  -0.145 126.829  0.00  0.00    +0.000 C 
ATOM     32  O   UNL     1      -4.829   0.585 126.204  0.00  0.00    +0.000 OA
ATOM     33  N   UNL     1      -6.504  -0.985 126.185  0.00  0.00    +0.000 N 
ATOM     34  C   UNL     1      -7.869  -1.303 126.563  0.00  0.00    +0.000 C 
ATOM     35  C   UNL     1      -8.040  -2.672 125.983  0.00  0.00    +0.000 C 
ATOM     36  C   UNL     1      -7.440  -2.500 124.606  0.00  0.00    +0.000 C 
ATOM     37  C   UNL     1      -6.338  -1.428 124.775  0.00  0.00    +0.000 C 
BRANCH  37  38
ATOM     38  C   UNL     1      -6.703  -0.353 123.737  0.00  0.00    +0.000 C 
ATOM     39  O   UNL     1      -6.744  -0.638 122.540  0.00  0.00    +0.000 OA
ATOM     40  N   UNL     1      -6.867   0.949 124.200  0.00  0.00    +0.000 N 
ATOM     41  H   UNL     1      -6.511   1.230 125.110  0.00  0.00    +0.000 HD
BRANCH  40  42
ATOM     42  C   UNL     1      -7.402   2.036 123.347  0.00  0.00    +0.000 C 
BRANCH  42  43
ATOM     43  C   UNL     1      -6.261   3.019 122.911  0.00  0.00    +0.000 C 
ATOM     44  O   UNL     1      -5.558   3.602 123.736  0.00  0.00    +0.000 OA
ATOM     45  N   UNL     1      -6.088   3.187 121.547  0.00  0.00    +0.000 N 
ATOM     46  H   UNL     1      -6.676   2.671 120.917  0.00  0.00    +0.000 HD
BRANCH  45  47
ATOM     47  C   UNL     1      -5.081   4.092 120.987  0.00  0.00    +0.000 C 
BRANCH  47  48
ATOM     48  C   UNL     1      -5.574   5.091 119.922  0.00  0.00    +0.000 C 
ATOM     49  N   UNL     1      -6.628   4.726 119.132  0.00  0.00    +0.000 N 
ATOM     50  O   UNL     1      -5.061   6.196 119.761  0.00  0.00    +0.000 OA
ATOM     51  H   UNL     1      -7.120   3.851 119.168  0.00  0.00    +0.000 HD
ATOM     52  H   UNL     1      -6.933   5.394 118.434  0.00  0.00    +0.000 HD
ENDBRANCH  47  48
ENDBRANCH  45  47
ENDBRANCH  42  43
BRANCH  42  53
ATOM     53  C   UNL     1      -8.495   2.825 124.100  0.00  0.00    +0.000 C 
BRANCH  53  54
ATOM     54  C   UNL     1      -8.412   2.636 125.609  0.00  0.00    +0.000 C 
BRANCH  54  55
ATOM     55  C   UNL     1      -7.791   3.777 126.358  0.00  0.00    +0.000 C 
BRANCH  55  56
ATOM     56  N   UNL     1      -6.760   3.225 127.237  0.00  0.00    +0.000 NA
ATOM     57  C   UNL     1      -5.606   3.779 127.177  0.00  0.00    +0.000 C 
ATOM     58  N   UNL     1      -5.274   4.824 126.401  0.00  0.00    +0.000 N 
ATOM     59  N   UNL     1      -4.598   3.332 127.941  0.00  0.00    +0.000 N 
ATOM     60  H   UNL     1      -5.971   5.213 125.782  0.00  0.00    +0.000 HD
ATOM     61  H   UNL     1      -4.361   5.238 126.389  0.00  0.00    +0.000 HD
ATOM     62  H   UNL     1      -4.783   2.524 128.521  0.00  0.00    +0.000 HD
ATOM     63  H   UNL     1      -3.671   3.718 127.938  0.00  0.00    +0.000 HD
ENDBRANCH  55  56
ENDBRANCH  54  55
ENDBRANCH  53  54
ENDBRANCH  42  53
ENDBRANCH  40  42
ENDBRANCH  37  38
ENDBRANCH  18  31
BRANCH   5  64
ATOM     64  C   UNL     1      -5.623  -1.116 137.583  0.00  0.00    +0.000 C 
BRANCH  64  65
ATOM     65  C   UNL     1      -6.805  -1.266 138.468  0.00  0.00    +0.000 A 
ATOM     66  C   UNL     1      -7.915  -2.080 138.176  0.00  0.00    +0.000 A 
ATOM     67  C   UNL     1      -9.150  -1.809 138.699  0.00  0.00    +0.000 A 
ATOM     68  C   UNL     1      -9.175  -1.035 139.833  0.00  0.00    +0.000 A 
ATOM     69  C   UNL     1      -8.028  -0.358 140.266  0.00  0.00    +0.000 A 
ATOM     70  C   UNL     1      -6.858  -0.404 139.538  0.00  0.00    +0.000 A 
ENDBRANCH  64  65
ENDBRANCH   5  64
BRANCH   9  71
ATOM     71  C   UNL     1      -3.003  -3.123 134.140  0.00  0.00    +0.000 C 
BRANCH  71  72
ATOM     72  C   UNL     1      -1.666  -3.279 134.757  0.00  0.00    +0.000 A 
ATOM     73  C   UNL     1      -1.356  -2.248 135.523  0.00  0.00    +0.000 A 
ATOM     74  C   UNL     1      -0.287  -2.237 136.355  0.00  0.00    +0.000 A 
ATOM     75  C   UNL     1       0.502  -3.293 136.632  0.00  0.00    +0.000 A 
ATOM     76  C   UNL     1       0.444  -4.154 135.602  0.00  0.00    +0.000 A 
ATOM     77  C   UNL     1      -0.634  -4.186 134.688  0.00  0.00    +0.000 A 
BRANCH  75  78
ATOM     78  O   UNL     1       1.662  -3.402 137.343  0.00  0.00    +0.000 OA
ATOM     79  H   UNL     1       1.666  -4.041 138.096  0.00  0.00    +0.000 HD
ENDBRANCH  75  78
ENDBRANCH  71  72
ENDBRANCH   9  71
BRANCH   1  80
ATOM     80  C   UNL     1      -7.574   2.951 134.066  0.00  0.00    +0.000 C 
BRANCH  80  81
ATOM     81  C   UNL     1      -7.938   4.240 134.660  0.00  0.00    +0.000 C 
BRANCH  81  82
ATOM     82  C   UNL     1      -7.899   5.171 133.509  0.00  0.00    +0.000 C 
BRANCH  82  83
ATOM     83  C   UNL     1      -9.209   4.960 132.834  0.00  0.00    +0.000 C 
BRANCH  83  84
ATOM     84  N   UNL     1      -9.978   6.147 133.085  0.00  0.00    +0.000 NA
ATOM     85  H   UNL     1      -9.339   6.882 133.364  0.00  0.00    +0.000 HD
ATOM     86  H   UNL     1     -10.605   5.963 133.867  0.00  0.00    +0.000 HD
ENDBRANCH  83  84
ENDBRANCH  82  83
ENDBRANCH  81  82
ENDBRANCH  80  81
ENDBRANCH   1  80
BRANCH  22  87
ATOM     87  C   UNL     1      -6.235  -0.932 132.006  0.00  0.00    +0.000 C 
BRANCH  87  88
ATOM     88  C   UNL     1      -7.650  -1.131 131.569  0.00  0.00    +0.000 C 
ATOM     89  N   UNL     1      -8.239  -1.278 132.737  0.00  0.00    +0.000 N 
ATOM     90  O   UNL     1      -8.241  -1.426 130.609  0.00  0.00    +0.000 OA
ATOM     91  H   UNL     1      -7.878  -0.673 133.444  0.00  0.00    +0.000 HD
ATOM     92  H   UNL     1      -8.965  -1.932 132.854  0.00  0.00    +0.000 HD
ENDBRANCH  87  88
ENDBRANCH  22  87
TORSDOF 22
ENDMDL
MODEL 3
REMARK VINA RESULT:      -8.4      4.826      8.430
REMARK  Name = CHEMBL2369837
REMARK  22 active torsions:
REMARK  status: ('A' for Active; 'I' for Inactive)
REMARK    1  A    between atoms: N_1  and  C_2
REMARK    2  A    between atoms: C_2  and  C_3
REMARK    3  A    between atoms: C_3  and  C_4
REMARK    4  A    between atoms: C_4  and  C_5
REMARK    5  A    between atoms: C_5  and  C_6
REMARK    6  A    between atoms: C_10  and  C_11
REMARK    7  A    between atoms: C_11  and  C_12
REMARK    8  A    between atoms: C_21  and  C_22
REMARK    9  A    between atoms: C_22  and  C_23
REMARK   10  A    between atoms: C_26  and  O_27
REMARK   11  A    between atoms: C_38  and  C_39
REMARK   12  A    between atoms: C_45  and  C_46
REMARK   13  A    between atoms: N_48  and  C_49
REMARK   14  A    between atoms: C_49  and  C_50
REMARK   15  A    between atoms: C_49  and  C_57
REMARK   16  A    between atoms: C_50  and  C_51
REMARK   17  A    between atoms: C_51  and  C_52
REMARK   18  A    between atoms: C_52  and  N_53
REMARK   19  A    between atoms: N_59  and  C_60
REMARK   20  A    between atoms: C_60  and  C_61
REMARK   21  A    between atoms: C_67  and  C_68
REMARK   22  A    between atoms: C_68  and  C_69
REMARK                            x       y       z     vdW  Elec       q    Type
REMARK                         _______ _______ _______ _____ _____    ______ ____
ROOT
ATOM      1  C   UNL     1      -5.657  -1.672 130.969  0.00  0.00    +0.000 C 
ATOM      2  N   UNL     1      -5.662  -1.170 129.356  0.00  0.00    +0.000 N 
ATOM      3  C   UNL     1      -6.105  -0.199 128.391  0.00  0.00    +0.000 C 
ATOM      4  O   UNL     1      -5.263   0.293 127.607  0.00  0.00    +0.000 OA
ATOM      5  C   UNL     1      -7.619   0.189 128.205  0.00  0.00    +0.000 C 
ATOM      6  N   UNL     1      -8.303   1.294 128.871  0.00  0.00    +0.000 N 
ATOM      7  C   UNL     1      -8.413   2.644 128.679  0.00  0.00    +0.000 C 
ATOM      8  O   UNL     1      -9.379   3.128 129.291  0.00  0.00    +0.000 OA
ATOM      9  C   UNL     1      -7.333   3.576 127.766  0.00  0.00    +0.000 C 
ATOM     10  N   UNL     1      -8.195   4.443 127.048  0.00  0.00    +0.000 N 
ATOM     11  C   UNL     1      -8.909   5.444 127.615  0.00  0.00    +0.000 C 
ATOM     12  O   UNL     1      -9.684   6.040 126.858  0.00  0.00    +0.000 OA
ATOM     13  C   UNL     1      -8.790   5.871 129.114  0.00  0.00    +0.000 C 
ATOM     14  C   UNL     1      -7.885   5.255 130.187  0.00  0.00    +0.000 C 
ATOM     15  S   UNL     1      -7.980   5.738 131.938  0.00  0.00    +0.000 S 
ATOM     16  S   UNL     1      -6.073   5.091 132.512  0.00  0.00    +0.000 S 
ATOM     17  C   UNL     1      -6.227   4.480 134.229  0.00  0.00    +0.000 C 
ATOM     18  C   UNL     1      -5.195   3.582 134.927  0.00  0.00    +0.000 C 
ATOM     19  N   UNL     1      -5.656   2.187 134.965  0.00  0.00    +0.000 N 
ATOM     20  C   UNL     1      -5.953   1.370 133.946  0.00  0.00    +0.000 C 
ATOM     21  O   UNL     1      -6.434   0.254 134.134  0.00  0.00    +0.000 OA
ATOM     22  C   UNL     1      -5.641   1.798 132.563  0.00  0.00    +0.000 C 
ATOM     23  N   UNL     1      -4.645   0.446 132.159  0.00  0.00    +0.000 N 
ATOM     24  C   UNL     1      -4.502  -0.827 131.390  0.00  0.00    +0.000 C 
ATOM     25  O   UNL     1      -3.460  -1.207 130.832  0.00  0.00    +0.000 OA
ATOM     26  H   UNL     1      -4.668  -1.229 129.086  0.00  0.00    +0.000 HD
ATOM     27  H   UNL     1      -9.044   0.989 129.515  0.00  0.00    +0.000 HD
ATOM     28  H   UNL     1      -8.424   4.186 126.092  0.00  0.00    +0.000 HD
ATOM     29  H   UNL     1      -5.778   1.740 135.873  0.00  0.00    +0.000 HD
ATOM     30  H   UNL     1      -3.710   0.830 132.270  0.00  0.00    +0.000 HD
ENDROOT
BRANCH  18  31
ATOM     31  C   UNL     1      -4.905   3.995 136.420  0.00  0.00    +0.000 C 
ATOM     32  O   UNL     1      -5.284   3.248 137.328  0.00  0.00    +0.000 OA
ATOM     33  N   UNL     1      -4.037   5.054 136.652  0.00  0.00    +0.000 N 
ATOM     34  C   UNL     1      -4.047   6.375 136.054  0.00  0.00    +0.000 C 
ATOM     35  C   UNL     1      -2.602   6.758 136.124  0.00  0.00    +0.000 C 
ATOM     36  C   UNL     1      -2.243   6.345 137.533  0.00  0.00    +0.000 C 
ATOM     37  C   UNL     1      -3.149   5.132 137.844  0.00  0.00    +0.000 C 
BRANCH  37  38
ATOM     38  C   UNL     1      -3.877   5.533 139.138  0.00  0.00    +0.000 C 
ATOM     39  O   UNL     1      -3.301   6.212 139.987  0.00  0.00    +0.000 OA
ATOM     40  N   UNL     1      -5.149   5.006 139.343  0.00  0.00    +0.000 N 
ATOM     41  H   UNL     1      -5.474   4.201 138.813  0.00  0.00    +0.000 HD
BRANCH  40  42
ATOM     42  C   UNL     1      -6.030   5.458 140.444  0.00  0.00    +0.000 C 
BRANCH  42  43
ATOM     43  C   UNL     1      -6.462   4.251 141.348  0.00  0.00    +0.000 C 
ATOM     44  O   UNL     1      -5.635   3.504 141.868  0.00  0.00    +0.000 OA
ATOM     45  N   UNL     1      -7.825   4.081 141.528  0.00  0.00    +0.000 N 
ATOM     46  H   UNL     1      -8.456   4.733 141.096  0.00  0.00    +0.000 HD
BRANCH  45  47
ATOM     47  C   UNL     1      -8.383   2.984 142.323  0.00  0.00    +0.000 C 
BRANCH  47  48
ATOM     48  C   UNL     1      -8.390   1.593 141.662  0.00  0.00    +0.000 C 
ATOM     49  N   UNL     1      -7.274   0.814 141.783  0.00  0.00    +0.000 N 
ATOM     50  O   UNL     1      -9.356   1.161 141.038  0.00  0.00    +0.000 OA
ATOM     51  H   UNL     1      -6.427   1.063 142.261  0.00  0.00    +0.000 HD
ATOM     52  H   UNL     1      -7.296  -0.095 141.336  0.00  0.00    +0.000 HD
ENDBRANCH  47  48
ENDBRANCH  45  47
ENDBRANCH  42  43
BRANCH  42  53
ATOM     53  C   UNL     1      -7.291   6.148 139.878  0.00  0.00    +0.000 C 
BRANCH  53  54
ATOM     54  C   UNL     1      -7.241   6.296 138.363  0.00  0.00    +0.000 C 
BRANCH  54  55
ATOM     55  C   UNL     1      -8.435   6.966 137.751  0.00  0.00    +0.000 C 
BRANCH  55  56
ATOM     56  N   UNL     1      -8.718   8.170 138.533  0.00  0.00    +0.000 NA
ATOM     57  C   UNL     1      -9.645   8.933 138.085  0.00  0.00    +0.000 C 
ATOM     58  N   UNL     1     -10.383   8.712 136.984  0.00  0.00    +0.000 N 
ATOM     59  N   UNL     1      -9.966  10.063 138.733  0.00  0.00    +0.000 N 
ATOM     60  H   UNL     1     -10.195   7.890 136.429  0.00  0.00    +0.000 HD
ATOM     61  H   UNL     1     -11.109   9.328 136.671  0.00  0.00    +0.000 HD
ATOM     62  H   UNL     1      -9.419  10.296 139.551  0.00  0.00    +0.000 HD
ATOM     63  H   UNL     1     -10.677  10.706 138.433  0.00  0.00    +0.000 HD
ENDBRANCH  55  56
ENDBRANCH  54  55
ENDBRANCH  53  54
ENDBRANCH  42  53
ENDBRANCH  40  42
ENDBRANCH  37  38
ENDBRANCH  18  31
BRANCH   5  64
ATOM     64  C   UNL     1      -8.033   0.322 126.760  0.00  0.00    +0.000 C 
BRANCH  64  65
ATOM     65  C   UNL     1      -8.310  -0.969 126.082  0.00  0.00    +0.000 A 
ATOM     66  C   UNL     1      -8.699  -2.145 126.749  0.00  0.00    +0.000 A 
ATOM     67  C   UNL     1      -8.440  -3.380 126.217  0.00  0.00    +0.000 A 
ATOM     68  C   UNL     1      -8.223  -3.426 124.862  0.00  0.00    +0.000 A 
ATOM     69  C   UNL     1      -8.023  -2.251 124.126  0.00  0.00    +0.000 A 
ATOM     70  C   UNL     1      -7.984  -1.021 124.747  0.00  0.00    +0.000 A 
ENDBRANCH  64  65
ENDBRANCH   5  64
BRANCH   9  71
ATOM     71  C   UNL     1      -5.967   4.377 128.185  0.00  0.00    +0.000 C 
BRANCH  71  72
ATOM     72  C   UNL     1      -4.734   3.924 127.502  0.00  0.00    +0.000 A 
ATOM     73  C   UNL     1      -3.647   4.385 128.097  0.00  0.00    +0.000 A 
ATOM     74  C   UNL     1      -2.399   3.955 127.796  0.00  0.00    +0.000 A 
ATOM     75  C   UNL     1      -2.099   2.922 126.985  0.00  0.00    +0.000 A 
ATOM     76  C   UNL     1      -3.111   2.749 126.118  0.00  0.00    +0.000 A 
ATOM     77  C   UNL     1      -4.425   3.205 126.372  0.00  0.00    +0.000 A 
BRANCH  75  78
ATOM     78  O   UNL     1      -0.909   2.457 126.504  0.00  0.00    +0.000 OA
ATOM     79  H   UNL     1      -0.948   1.706 125.864  0.00  0.00    +0.000 HD
ENDBRANCH  75  78
ENDBRANCH  71  72
ENDBRANCH   9  71
BRANCH   1  80
ATOM     80  C   UNL     1      -6.827  -2.313 131.691  0.00  0.00    +0.000 C 
BRANCH  80  81
ATOM     81  C   UNL     1      -6.466  -3.696 132.016  0.00  0.00    +0.000 C 
BRANCH  81  82
ATOM     82  C   UNL     1      -6.549  -3.732 133.494  0.00  0.00    +0.000 C 
BRANCH  82  83
ATOM     83  C   UNL     1      -7.839  -3.054 133.797  0.00  0.00    +0.000 C 
BRANCH  83  84
ATOM     84  N   UNL     1      -7.669  -2.439 135.084  0.00  0.00    +0.000 NA
ATOM     85  H   UNL     1      -7.236  -3.116 135.701  0.00  0.00    +0.000 HD
ATOM     86  H   UNL     1      -8.591  -2.219 135.458  0.00  0.00    +0.000 HD
ENDBRANCH  83  84
ENDBRANCH  82  83
ENDBRANCH  81  82
ENDBRANCH  80  81
ENDBRANCH   1  80
BRANCH  22  87
ATOM     87  C   UNL     1      -7.087   2.268 131.939  0.00  0.00    +0.000 C 
BRANCH  87  88
ATOM     88  C   UNL     1      -8.285   1.935 132.769  0.00  0.00    +0.000 C 
ATOM     89  N   UNL     1      -8.673   0.822 132.185  0.00  0.00    +0.000 N 
ATOM     90  O   UNL     1      -9.020   2.462 133.504  0.00  0.00    +0.000 OA
ATOM     91  H   UNL     1      -7.918   0.232 131.906  0.00  0.00    +0.000 HD
ATOM     92  H   UNL     1      -9.630   0.628 132.060  0.00  0.00    +0.000 HD
ENDBRANCH  87  88
ENDBRANCH  22  87
TORSDOF 22
ENDMDL
MODEL 4
REMARK VINA RESULT:      -8.2      1.917      2.574
REMARK  Name = CHEMBL2369837
REMARK  22 active torsions:
REMARK  status: ('A' for Active; 'I' for Inactive)
REMARK    1  A    between atoms: N_1  and  C_2
REMARK    2  A    between atoms: C_2  and  C_3
REMARK    3  A    between atoms: C_3  and  C_4
REMARK    4  A    between atoms: C_4  and  C_5
REMARK    5  A    between atoms: C_5  and  C_6
REMARK    6  A    between atoms: C_10  and  C_11
REMARK    7  A    between atoms: C_11  and  C_12
REMARK    8  A    between atoms: C_21  and  C_22
REMARK    9  A    between atoms: C_22  and  C_23
REMARK   10  A    between atoms: C_26  and  O_27
REMARK   11  A    between atoms: C_38  and  C_39
REMARK   12  A    between atoms: C_45  and  C_46
REMARK   13  A    between atoms: N_48  and  C_49
REMARK   14  A    between atoms: C_49  and  C_50
REMARK   15  A    between atoms: C_49  and  C_57
REMARK   16  A    between atoms: C_50  and  C_51
REMARK   17  A    between atoms: C_51  and  C_52
REMARK   18  A    between atoms: C_52  and  N_53
REMARK   19  A    between atoms: N_59  and  C_60
REMARK   20  A    between atoms: C_60  and  C_61
REMARK   21  A    between atoms: C_67  and  C_68
REMARK   22  A    between atoms: C_68  and  C_69
REMARK                            x       y       z     vdW  Elec       q    Type
REMARK                         _______ _______ _______ _____ _____    ______ ____
ROOT
ATOM      1  C   UNL     1      -6.993   3.828 126.129  0.00  0.00    +0.000 C 
ATOM      2  N   UNL     1      -8.091   2.593 126.482  0.00  0.00    +0.000 N 
ATOM      3  C   UNL     1      -8.340   1.354 127.168  0.00  0.00    +0.000 C 
ATOM      4  O   UNL     1      -9.376   1.252 127.863  0.00  0.00    +0.000 OA
ATOM      5  C   UNL     1      -7.427   0.084 126.994  0.00  0.00    +0.000 C 
ATOM      6  N   UNL     1      -6.289  -0.269 127.839  0.00  0.00    +0.000 N 
ATOM      7  C   UNL     1      -6.113  -0.880 129.050  0.00  0.00    +0.000 C 
ATOM      8  O   UNL     1      -4.947  -1.273 129.212  0.00  0.00    +0.000 OA
ATOM      9  C   UNL     1      -7.318  -1.039 130.230  0.00  0.00    +0.000 C 
ATOM     10  N   UNL     1      -7.132  -2.367 130.692  0.00  0.00    +0.000 N 
ATOM     11  C   UNL     1      -6.067  -2.776 131.422  0.00  0.00    +0.000 C 
ATOM     12  O   UNL     1      -6.017  -3.988 131.657  0.00  0.00    +0.000 OA
ATOM     13  C   UNL     1      -4.957  -1.820 131.970  0.00  0.00    +0.000 C 
ATOM     14  C   UNL     1      -4.862  -0.302 131.783  0.00  0.00    +0.000 C 
ATOM     15  S   UNL     1      -3.417   0.659 132.328  0.00  0.00    +0.000 S 
ATOM     16  S   UNL     1      -4.345   2.534 132.422  0.00  0.00    +0.000 S 
ATOM     17  C   UNL     1      -3.086   3.762 131.921  0.00  0.00    +0.000 C 
ATOM     18  C   UNL     1      -3.402   5.201 131.487  0.00  0.00    +0.000 C 
ATOM     19  N   UNL     1      -3.330   5.335 130.025  0.00  0.00    +0.000 N 
ATOM     20  C   UNL     1      -4.042   4.699 129.086  0.00  0.00    +0.000 C 
ATOM     21  O   UNL     1      -3.796   4.835 127.889  0.00  0.00    +0.000 OA
ATOM     22  C   UNL     1      -5.189   3.856 129.495  0.00  0.00    +0.000 C 
ATOM     23  N   UNL     1      -6.380   4.671 128.546  0.00  0.00    +0.000 N 
ATOM     24  C   UNL     1      -7.274   4.638 127.349  0.00  0.00    +0.000 C 
ATOM     25  O   UNL     1      -8.431   5.087 127.314  0.00  0.00    +0.000 OA
ATOM     26  H   UNL     1      -8.945   3.106 126.752  0.00  0.00    +0.000 HD
ATOM     27  H   UNL     1      -5.389  -0.249 127.343  0.00  0.00    +0.000 HD
ATOM     28  H   UNL     1      -7.738  -3.084 130.303  0.00  0.00    +0.000 HD
ATOM     29  H   UNL     1      -2.662   5.995 129.630  0.00  0.00    +0.000 HD
ATOM     30  H   UNL     1      -6.832   5.264 129.237  0.00  0.00    +0.000 HD
ENDROOT
BRANCH  18  31
ATOM     31  C   UNL     1      -2.410   6.272 132.081  0.00  0.00    +0.000 C 
ATOM     32  O   UNL     1      -1.550   6.761 131.340  0.00  0.00    +0.000 OA
ATOM     33  N   UNL     1      -2.683   6.796 133.337  0.00  0.00    +0.000 N 
ATOM     34  C   UNL     1      -3.000   6.085 134.561  0.00  0.00    +0.000 C 
ATOM     35  C   UNL     1      -3.834   7.087 135.295  0.00  0.00    +0.000 C 
ATOM     36  C   UNL     1      -3.033   8.354 135.102  0.00  0.00    +0.000 C 
ATOM     37  C   UNL     1      -2.337   8.189 133.731  0.00  0.00    +0.000 C 
BRANCH  37  38
ATOM     38  C   UNL     1      -0.845   8.394 134.044  0.00  0.00    +0.000 C 
ATOM     39  O   UNL     1      -0.015   8.382 133.135  0.00  0.00    +0.000 OA
ATOM     40  N   UNL     1      -0.481   8.477 135.384  0.00  0.00    +0.000 N 
ATOM     41  H   UNL     1      -1.108   8.158 136.118  0.00  0.00    +0.000 HD
BRANCH  40  42
ATOM     42  C   UNL     1       0.882   8.862 135.817  0.00  0.00    +0.000 C 
BRANCH  42  43
ATOM     43  C   UNL     1       1.414   7.890 136.927  0.00  0.00    +0.000 C 
ATOM     44  O   UNL     1       0.732   7.589 137.906  0.00  0.00    +0.000 OA
ATOM     45  N   UNL     1       2.691   7.387 136.737  0.00  0.00    +0.000 N 
ATOM     46  H   UNL     1       3.196   7.649 135.908  0.00  0.00    +0.000 HD
BRANCH  45  47
ATOM     47  C   UNL     1       3.334   6.488 137.698  0.00  0.00    +0.000 C 
BRANCH  47  48
ATOM     48  C   UNL     1       2.983   4.992 137.579  0.00  0.00    +0.000 C 
ATOM     49  N   UNL     1       1.778   4.570 138.066  0.00  0.00    +0.000 N 
ATOM     50  O   UNL     1       3.740   4.173 137.063  0.00  0.00    +0.000 OA
ATOM     51  H   UNL     1       1.086   5.144 138.512  0.00  0.00    +0.000 HD
ATOM     52  H   UNL     1       1.569   3.582 137.983  0.00  0.00    +0.000 HD
ENDBRANCH  47  48
ENDBRANCH  45  47
ENDBRANCH  42  43
BRANCH  42  53
ATOM     53  C   UNL     1       0.888  10.308 136.361  0.00  0.00    +0.000 C 
BRANCH  53  54
ATOM     54  C   UNL     1      -0.474  10.979 136.240  0.00  0.00    +0.000 C 
BRANCH  54  55
ATOM     55  C   UNL     1      -0.507  12.192 135.358  0.00  0.00    +0.000 C 
BRANCH  55  56
ATOM     56  N   UNL     1      -1.598  12.016 134.400  0.00  0.00    +0.000 NA
ATOM     57  C   UNL     1      -1.258  11.749 133.194  0.00  0.00    +0.000 C 
ATOM     58  N   UNL     1      -0.000  11.599 132.746  0.00  0.00    +0.000 N 
ATOM     59  N   UNL     1      -2.193  11.581 132.247  0.00  0.00    +0.000 N 
ATOM     60  H   UNL     1       0.765  11.724 133.392  0.00  0.00    +0.000 HD
ATOM     61  H   UNL     1       0.226  11.378 131.795  0.00  0.00    +0.000 HD
ATOM     62  H   UNL     1      -3.157  11.715 132.522  0.00  0.00    +0.000 HD
ATOM     63  H   UNL     1      -1.993  11.375 131.284  0.00  0.00    +0.000 HD
ENDBRANCH  55  56
ENDBRANCH  54  55
ENDBRANCH  53  54
ENDBRANCH  42  53
ENDBRANCH  40  42
ENDBRANCH  37  38
ENDBRANCH  18  31
BRANCH   5  64
ATOM     64  C   UNL     1      -8.204  -1.204 126.872  0.00  0.00    +0.000 C 
BRANCH  64  65
ATOM     65  C   UNL     1      -8.537  -1.586 125.478  0.00  0.00    +0.000 A 
ATOM     66  C   UNL     1      -9.316  -2.705 125.128  0.00  0.00    +0.000 A 
ATOM     67  C   UNL     1      -9.172  -3.316 123.912  0.00  0.00    +0.000 A 
ATOM     68  C   UNL     1      -8.612  -2.559 122.912  0.00  0.00    +0.000 A 
ATOM     69  C   UNL     1      -7.993  -1.335 123.199  0.00  0.00    +0.000 A 
ATOM     70  C   UNL     1      -7.881  -0.883 124.495  0.00  0.00    +0.000 A 
ENDBRANCH  64  65
ENDBRANCH   5  64
BRANCH   9  71
ATOM     71  C   UNL     1      -7.745  -0.074 131.482  0.00  0.00    +0.000 C 
BRANCH  71  72
ATOM     72  C   UNL     1      -8.463   1.166 131.108  0.00  0.00    +0.000 A 
ATOM     73  C   UNL     1      -9.721   1.146 131.515  0.00  0.00    +0.000 A 
ATOM     74  C   UNL     1     -10.528   2.232 131.480  0.00  0.00    +0.000 A 
ATOM     75  C   UNL     1     -10.143   3.488 131.180  0.00  0.00    +0.000 A 
ATOM     76  C   UNL     1      -9.042   3.427 130.411  0.00  0.00    +0.000 A 
ATOM     77  C   UNL     1      -8.183   2.305 130.390  0.00  0.00    +0.000 A 
BRANCH  75  78
ATOM     78  O   UNL     1     -10.852   4.639 130.993  0.00  0.00    +0.000 OA
ATOM     79  H   UNL     1     -10.777   5.071 130.109  0.00  0.00    +0.000 HD
ENDBRANCH  75  78
ENDBRANCH  71  72
ENDBRANCH   9  71
BRANCH   1  80
ATOM     80  C   UNL     1      -5.818   3.710 125.176  0.00  0.00    +0.000 C 
BRANCH  80  81
ATOM     81  C   UNL     1      -6.283   4.043 123.828  0.00  0.00    +0.000 C 
BRANCH  81  82
ATOM     82  C   UNL     1      -6.672   2.730 123.266  0.00  0.00    +0.000 C 
BRANCH  82  83
ATOM     83  C   UNL     1      -7.970   3.001 122.588  0.00  0.00    +0.000 C 
BRANCH  83  84
ATOM     84  N   UNL     1      -8.983   2.436 123.434  0.00  0.00    +0.000 NA
ATOM     85  H   UNL     1      -8.643   1.548 123.783  0.00  0.00    +0.000 HD
ATOM     86  H   UNL     1      -9.810   2.254 122.867  0.00  0.00    +0.000 HD
ENDBRANCH  83  84
ENDBRANCH  82  83
ENDBRANCH  81  82
ENDBRANCH  80  81
ENDBRANCH   1  80
BRANCH  22  87
ATOM     87  C   UNL     1      -4.628   2.314 129.390  0.00  0.00    +0.000 C 
BRANCH  87  88
ATOM     88  C   UNL     1      -4.057   1.926 128.065  0.00  0.00    +0.000 C 
ATOM     89  N   UNL     1      -2.786   2.202 128.266  0.00  0.00    +0.000 N 
ATOM     90  O   UNL     1      -4.418   1.737 126.973  0.00  0.00    +0.000 OA
ATOM     91  H   UNL     1      -2.467   1.966 129.182  0.00  0.00    +0.000 HD
ATOM     92  H   UNL     1      -2.239   2.598 127.550  0.00  0.00    +0.000 HD
ENDBRANCH  87  88
ENDBRANCH  22  87
TORSDOF 22
ENDMDL
MODEL 5
REMARK VINA RESULT:      -8.1      5.445     12.157
REMARK  Name = CHEMBL2369837
REMARK  22 active torsions:
REMARK  status: ('A' for Active; 'I' for Inactive)
REMARK    1  A    between atoms: N_1  and  C_2
REMARK    2  A    between atoms: C_2  and  C_3
REMARK    3  A    between atoms: C_3  and  C_4
REMARK    4  A    between atoms: C_4  and  C_5
REMARK    5  A    between atoms: C_5  and  C_6
REMARK    6  A    between atoms: C_10  and  C_11
REMARK    7  A    between atoms: C_11  and  C_12
REMARK    8  A    between atoms: C_21  and  C_22
REMARK    9  A    between atoms: C_22  and  C_23
REMARK   10  A    between atoms: C_26  and  O_27
REMARK   11  A    between atoms: C_38  and  C_39
REMARK   12  A    between atoms: C_45  and  C_46
REMARK   13  A    between atoms: N_48  and  C_49
REMARK   14  A    between atoms: C_49  and  C_50
REMARK   15  A    between atoms: C_49  and  C_57
REMARK   16  A    between atoms: C_50  and  C_51
REMARK   17  A    between atoms: C_51  and  C_52
REMARK   18  A    between atoms: C_52  and  N_53
REMARK   19  A    between atoms: N_59  and  C_60
REMARK   20  A    between atoms: C_60  and  C_61
REMARK   21  A    between atoms: C_67  and  C_68
REMARK   22  A    between atoms: C_68  and  C_69
REMARK                            x       y       z     vdW  Elec       q    Type
REMARK                         _______ _______ _______ _____ _____    ______ ____
ROOT
ATOM      1  C   UNL     1      -5.073   3.554 135.078  0.00  0.00    +0.000 C 
ATOM      2  N   UNL     1      -4.391   2.320 136.009  0.00  0.00    +0.000 N 
ATOM      3  C   UNL     1      -4.320   0.910 136.287  0.00  0.00    +0.000 C 
ATOM      4  O   UNL     1      -3.194   0.371 136.367  0.00  0.00    +0.000 OA
ATOM      5  C   UNL     1      -5.592   0.039 136.605  0.00  0.00    +0.000 C 
ATOM      6  N   UNL     1      -6.376  -0.713 135.628  0.00  0.00    +0.000 N 
ATOM      7  C   UNL     1      -6.271  -1.926 135.005  0.00  0.00    +0.000 C 
ATOM      8  O   UNL     1      -7.349  -2.295 134.513  0.00  0.00    +0.000 OA
ATOM      9  C   UNL     1      -4.834  -2.811 134.859  0.00  0.00    +0.000 C 
ATOM     10  N   UNL     1      -5.254  -4.139 135.122  0.00  0.00    +0.000 N 
ATOM     11  C   UNL     1      -6.035  -4.868 134.291  0.00  0.00    +0.000 C 
ATOM     12  O   UNL     1      -6.385  -5.972 134.722  0.00  0.00    +0.000 OA
ATOM     13  C   UNL     1      -6.480  -4.402 132.866  0.00  0.00    +0.000 C 
ATOM     14  C   UNL     1      -6.137  -3.079 132.172  0.00  0.00    +0.000 C 
ATOM     15  S   UNL     1      -6.871  -2.594 130.580  0.00  0.00    +0.000 S 
ATOM     16  S   UNL     1      -5.419  -1.194 130.016  0.00  0.00    +0.000 S 
ATOM     17  C   UNL     1      -6.299   0.130 129.113  0.00  0.00    +0.000 C 
ATOM     18  C   UNL     1      -5.719   1.526 128.836  0.00  0.00    +0.000 C 
ATOM     19  N   UNL     1      -6.288   2.521 129.757  0.00  0.00    +0.000 N 
ATOM     20  C   UNL     1      -6.233   2.560 131.094  0.00  0.00    +0.000 C 
ATOM     21  O   UNL     1      -6.853   3.402 131.740  0.00  0.00    +0.000 OA
ATOM     22  C   UNL     1      -5.360   1.601 131.809  0.00  0.00    +0.000 C 
ATOM     23  N   UNL     1      -4.418   2.781 132.649  0.00  0.00    +0.000 N 
ATOM     24  C   UNL     1      -4.105   3.448 133.949  0.00  0.00    +0.000 C 
ATOM     25  O   UNL     1      -2.969   3.785 134.318  0.00  0.00    +0.000 OA
ATOM     26  H   UNL     1      -3.382   2.533 135.982  0.00  0.00    +0.000 HD
ATOM     27  H   UNL     1      -7.336  -0.365 135.518  0.00  0.00    +0.000 HD
ATOM     28  H   UNL     1      -5.109  -4.495 136.063  0.00  0.00    +0.000 HD
ATOM     29  H   UNL     1      -6.802   3.308 129.363  0.00  0.00    +0.000 HD
ATOM     30  H   UNL     1      -3.573   2.818 132.086  0.00  0.00    +0.000 HD
ENDROOT
BRANCH  18  31
ATOM     31  C   UNL     1      -6.007   2.052 127.379  0.00  0.00    +0.000 C 
ATOM     32  O   UNL     1      -6.923   1.537 126.730  0.00  0.00    +0.000 OA
ATOM     33  N   UNL     1      -5.382   3.222 126.968  0.00  0.00    +0.000 N 
ATOM     34  C   UNL     1      -3.977   3.573 127.058  0.00  0.00    +0.000 C 
ATOM     35  C   UNL     1      -4.035   5.066 127.142  0.00  0.00    +0.000 C 
ATOM     36  C   UNL     1      -5.038   5.396 126.061  0.00  0.00    +0.000 C 
ATOM     37  C   UNL     1      -6.002   4.186 126.020  0.00  0.00    +0.000 C 
BRANCH  37  38
ATOM     38  C   UNL     1      -5.961   3.729 124.552  0.00  0.00    +0.000 C 
ATOM     39  O   UNL     1      -5.154   4.231 123.769  0.00  0.00    +0.000 OA
ATOM     40  N   UNL     1      -6.935   2.825 124.140  0.00  0.00    +0.000 N 
ATOM     41  H   UNL     1      -7.778   2.676 124.688  0.00  0.00    +0.000 HD
BRANCH  40  42
ATOM     42  C   UNL     1      -6.896   2.161 122.815  0.00  0.00    +0.000 C 
BRANCH  42  43
ATOM     43  C   UNL     1      -7.402   3.127 121.689  0.00  0.00    +0.000 C 
ATOM     44  O   UNL     1      -8.588   3.442 121.591  0.00  0.00    +0.000 OA
ATOM     45  N   UNL     1      -6.439   3.607 120.818  0.00  0.00    +0.000 N 
ATOM     46  H   UNL     1      -5.481   3.334 120.956  0.00  0.00    +0.000 HD
BRANCH  45  47
ATOM     47  C   UNL     1      -6.762   4.497 119.699  0.00  0.00    +0.000 C 
BRANCH  47  48
ATOM     48  C   UNL     1      -5.691   5.539 119.322  0.00  0.00    +0.000 C 
ATOM     49  N   UNL     1      -5.670   6.009 118.039  0.00  0.00    +0.000 N 
ATOM     50  O   UNL     1      -4.864   5.962 120.127  0.00  0.00    +0.000 OA
ATOM     51  H   UNL     1      -6.288   5.733 117.297  0.00  0.00    +0.000 HD
ATOM     52  H   UNL     1      -4.955   6.689 117.809  0.00  0.00    +0.000 HD
ENDBRANCH  47  48
ENDBRANCH  45  47
ENDBRANCH  42  43
BRANCH  42  53
ATOM     53  C   UNL     1      -7.768   0.886 122.824  0.00  0.00    +0.000 C 
BRANCH  53  54
ATOM     54  C   UNL     1      -6.971  -0.361 123.184  0.00  0.00    +0.000 C 
BRANCH  54  55
ATOM     55  C   UNL     1      -7.796  -1.557 123.554  0.00  0.00    +0.000 C 
BRANCH  55  56
ATOM     56  N   UNL     1      -7.114  -2.248 124.648  0.00  0.00    +0.000 NA
ATOM     57  C   UNL     1      -7.520  -1.976 125.832  0.00  0.00    +0.000 C 
ATOM     58  N   UNL     1      -8.520  -1.138 126.149  0.00  0.00    +0.000 N 
ATOM     59  N   UNL     1      -6.945  -2.557 126.896  0.00  0.00    +0.000 N 
ATOM     60  H   UNL     1      -8.997  -0.646 125.407  0.00  0.00    +0.000 HD
ATOM     61  H   UNL     1      -8.817  -0.959 127.089  0.00  0.00    +0.000 HD
ATOM     62  H   UNL     1      -6.163  -3.174 126.718  0.00  0.00    +0.000 HD
ATOM     63  H   UNL     1      -7.212  -2.385 127.849  0.00  0.00    +0.000 HD
ENDBRANCH  55  56
ENDBRANCH  54  55
ENDBRANCH  53  54
ENDBRANCH  42  53
ENDBRANCH  40  42
ENDBRANCH  37  38
ENDBRANCH  18  31
BRANCH   5  64
ATOM     64  C   UNL     1      -5.385  -0.938 137.736  0.00  0.00    +0.000 C 
BRANCH  64  65
ATOM     65  C   UNL     1      -6.355  -0.797 138.850  0.00  0.00    +0.000 A 
ATOM     66  C   UNL     1      -7.571  -1.500 138.934  0.00  0.00    +0.000 A 
ATOM     67  C   UNL     1      -8.634  -0.996 139.635  0.00  0.00    +0.000 A 
ATOM     68  C   UNL     1      -8.340  -0.059 140.595  0.00  0.00    +0.000 A 
ATOM     69  C   UNL     1      -7.069   0.526 140.664  0.00  0.00    +0.000 A 
ATOM     70  C   UNL     1      -6.095   0.219 139.739  0.00  0.00    +0.000 A 
ENDBRANCH  64  65
ENDBRANCH   5  64
BRANCH   9  71
ATOM     71  C   UNL     1      -3.676  -2.817 133.700  0.00  0.00    +0.000 C 
BRANCH  71  72
ATOM     72  C   UNL     1      -2.285  -2.713 134.195  0.00  0.00    +0.000 A 
ATOM     73  C   UNL     1      -1.915  -3.799 134.850  0.00  0.00    +0.000 A 
ATOM     74  C   UNL     1      -0.636  -4.040 135.224  0.00  0.00    +0.000 A 
ATOM     75  C   UNL     1       0.438  -3.310 134.864  0.00  0.00    +0.000 A 
ATOM     76  C   UNL     1       0.031  -2.062 134.576  0.00  0.00    +0.000 A 
ATOM     77  C   UNL     1      -1.299  -1.754 134.209  0.00  0.00    +0.000 A 
BRANCH  75  78
ATOM     78  O   UNL     1       1.746  -3.361 135.251  0.00  0.00    +0.000 OA
ATOM     79  H   UNL     1       1.970  -2.953 136.122  0.00  0.00    +0.000 HD
ENDBRANCH  75  78
ENDBRANCH  71  72
ENDBRANCH   9  71
BRANCH   1  80
ATOM     80  C   UNL     1      -6.489   4.079 135.222  0.00  0.00    +0.000 C 
BRANCH  80  81
ATOM     81  C   UNL     1      -6.430   5.390 135.874  0.00  0.00    +0.000 C 
BRANCH  81  82
ATOM     82  C   UNL     1      -7.745   5.991 135.554  0.00  0.00    +0.000 C 
BRANCH  82  83
ATOM     83  C   UNL     1      -7.903   5.749 134.093  0.00  0.00    +0.000 C 
BRANCH  83  84
ATOM     84  N   UNL     1      -9.244   6.148 133.770  0.00  0.00    +0.000 NA
ATOM     85  H   UNL     1      -9.290   7.160 133.810  0.00  0.00    +0.000 HD
ATOM     86  H   UNL     1      -9.870   5.778 134.484  0.00  0.00    +0.000 HD
ENDBRANCH  83  84
ENDBRANCH  82  83
ENDBRANCH  81  82
ENDBRANCH  80  81
ENDBRANCH   1  80
BRANCH  22  87
ATOM     87  C   UNL     1      -6.388   0.459 132.393  0.00  0.00    +0.000 C 
BRANCH  87  88
ATOM     88  C   UNL     1      -7.843   0.771 132.252  0.00  0.00    +0.000 C 
ATOM     89  N   UNL     1      -8.045   1.455 133.357  0.00  0.00    +0.000 N 
ATOM     90  O   UNL     1      -8.770   0.392 131.656  0.00  0.00    +0.000 OA
ATOM     91  H   UNL     1      -7.291   2.065 133.593  0.00  0.00    +0.000 HD
ATOM     92  H   UNL     1      -8.879   1.346 133.869  0.00  0.00    +0.000 HD
ENDBRANCH  87  88
ENDBRANCH  22  87
TORSDOF 22
ENDMDL
MODEL 6
REMARK VINA RESULT:      -7.8      3.957      7.522
REMARK  Name = CHEMBL2369837
REMARK  22 active torsions:
REMARK  status: ('A' for Active; 'I' for Inactive)
REMARK    1  A    between atoms: N_1  and  C_2
REMARK    2  A    between atoms: C_2  and  C_3
REMARK    3  A    between atoms: C_3  and  C_4
REMARK    4  A    between atoms: C_4  and  C_5
REMARK    5  A    between atoms: C_5  and  C_6
REMARK    6  A    between atoms: C_10  and  C_11
REMARK    7  A    between atoms: C_11  and  C_12
REMARK    8  A    between atoms: C_21  and  C_22
REMARK    9  A    between atoms: C_22  and  C_23
REMARK   10  A    between atoms: C_26  and  O_27
REMARK   11  A    between atoms: C_38  and  C_39
REMARK   12  A    between atoms: C_45  and  C_46
REMARK   13  A    between atoms: N_48  and  C_49
REMARK   14  A    between atoms: C_49  and  C_50
REMARK   15  A    between atoms: C_49  and  C_57
REMARK   16  A    between atoms: C_50  and  C_51
REMARK   17  A    between atoms: C_51  and  C_52
REMARK   18  A    between atoms: C_52  and  N_53
REMARK   19  A    between atoms: N_59  and  C_60
REMARK   20  A    between atoms: C_60  and  C_61
REMARK   21  A    between atoms: C_67  and  C_68
REMARK   22  A    between atoms: C_68  and  C_69
REMARK                            x       y       z     vdW  Elec       q    Type
REMARK                         _______ _______ _______ _____ _____    ______ ____
ROOT
ATOM      1  C   UNL     1      -5.633  -1.402 131.325  0.00  0.00    +0.000 C 
ATOM      2  N   UNL     1      -5.472  -1.032 129.684  0.00  0.00    +0.000 N 
ATOM      3  C   UNL     1      -5.846  -0.171 128.594  0.00  0.00    +0.000 C 
ATOM      4  O   UNL     1      -4.943   0.307 127.872  0.00  0.00    +0.000 OA
ATOM      5  C   UNL     1      -7.344   0.106 128.203  0.00  0.00    +0.000 C 
ATOM      6  N   UNL     1      -8.161   1.216 128.687  0.00  0.00    +0.000 N 
ATOM      7  C   UNL     1      -8.317   2.537 128.367  0.00  0.00    +0.000 C 
ATOM      8  O   UNL     1      -9.374   3.007 128.820  0.00  0.00    +0.000 OA
ATOM      9  C   UNL     1      -7.186   3.457 127.506  0.00  0.00    +0.000 C 
ATOM     10  N   UNL     1      -8.000   4.210 126.621  0.00  0.00    +0.000 N 
ATOM     11  C   UNL     1      -8.829   5.206 127.013  0.00  0.00    +0.000 C 
ATOM     12  O   UNL     1      -9.537   5.690 126.123  0.00  0.00    +0.000 OA
ATOM     13  C   UNL     1      -8.912   5.759 128.473  0.00  0.00    +0.000 C 
ATOM     14  C   UNL     1      -8.111   5.288 129.693  0.00  0.00    +0.000 C 
ATOM     15  S   UNL     1      -8.440   5.904 131.372  0.00  0.00    +0.000 S 
ATOM     16  S   UNL     1      -6.584   5.424 132.216  0.00  0.00    +0.000 S 
ATOM     17  C   UNL     1      -6.910   4.945 133.950  0.00  0.00    +0.000 C 
ATOM     18  C   UNL     1      -5.924   4.172 134.838  0.00  0.00    +0.000 C 
ATOM     19  N   UNL     1      -6.312   2.758 134.944  0.00  0.00    +0.000 N 
ATOM     20  C   UNL     1      -6.442   1.845 133.973  0.00  0.00    +0.000 C 
ATOM     21  O   UNL     1      -6.882   0.720 134.200  0.00  0.00    +0.000 OA
ATOM     22  C   UNL     1      -5.990   2.179 132.603  0.00  0.00    +0.000 C 
ATOM     23  N   UNL     1      -4.882   0.863 132.434  0.00  0.00    +0.000 N 
ATOM     24  C   UNL     1      -4.583  -0.456 131.800  0.00  0.00    +0.000 C 
ATOM     25  O   UNL     1      -3.463  -0.814 131.401  0.00  0.00    +0.000 OA
ATOM     26  H   UNL     1      -4.450  -1.050 129.536  0.00  0.00    +0.000 HD
ATOM     27  H   UNL     1      -8.956   0.918 129.266  0.00  0.00    +0.000 HD
ATOM     28  H   UNL     1      -8.099   3.862 125.672  0.00  0.00    +0.000 HD
ATOM     29  H   UNL     1      -6.518   2.379 135.867  0.00  0.00    +0.000 HD
ATOM     30  H   UNL     1      -3.989   1.313 132.619  0.00  0.00    +0.000 HD
ENDROOT
BRANCH  18  31
ATOM     31  C   UNL     1      -5.837   4.720 136.312  0.00  0.00    +0.000 C 
ATOM     32  O   UNL     1      -6.683   5.535 136.695  0.00  0.00    +0.000 OA
ATOM     33  N   UNL     1      -4.962   4.098 137.194  0.00  0.00    +0.000 N 
ATOM     34  C   UNL     1      -3.563   3.771 136.996  0.00  0.00    +0.000 C 
ATOM     35  C   UNL     1      -3.392   2.583 137.889  0.00  0.00    +0.000 C 
ATOM     36  C   UNL     1      -4.103   3.038 139.144  0.00  0.00    +0.000 C 
ATOM     37  C   UNL     1      -5.224   3.984 138.654  0.00  0.00    +0.000 C 
BRANCH  37  38
ATOM     38  C   UNL     1      -4.977   5.287 139.434  0.00  0.00    +0.000 C 
ATOM     39  O   UNL     1      -4.827   5.258 140.656  0.00  0.00    +0.000 OA
ATOM     40  N   UNL     1      -5.044   6.479 138.720  0.00  0.00    +0.000 N 
ATOM     41  H   UNL     1      -5.488   6.518 137.806  0.00  0.00    +0.000 HD
BRANCH  40  42
ATOM     42  C   UNL     1      -4.642   7.781 139.303  0.00  0.00    +0.000 C 
BRANCH  42  43
ATOM     43  C   UNL     1      -5.659   8.908 138.912  0.00  0.00    +0.000 C 
ATOM     44  O   UNL     1      -5.562  10.050 139.360  0.00  0.00    +0.000 OA
ATOM     45  N   UNL     1      -6.665   8.545 138.032  0.00  0.00    +0.000 N 
ATOM     46  H   UNL     1      -6.685   7.603 137.682  0.00  0.00    +0.000 HD
BRANCH  45  47
ATOM     47  C   UNL     1      -7.704   9.480 137.595  0.00  0.00    +0.000 C 
BRANCH  47  48
ATOM     48  C   UNL     1      -9.153   9.126 137.984  0.00  0.00    +0.000 C 
ATOM     49  N   UNL     1      -9.893   8.383 137.109  0.00  0.00    +0.000 N 
ATOM     50  O   UNL     1      -9.660   9.482 139.045  0.00  0.00    +0.000 OA
ATOM     51  H   UNL     1      -9.589   8.043 136.214  0.00  0.00    +0.000 HD
ATOM     52  H   UNL     1     -10.845   8.165 137.380  0.00  0.00    +0.000 HD
ENDBRANCH  47  48
ENDBRANCH  45  47
ENDBRANCH  42  43
BRANCH  42  53
ATOM     53  C   UNL     1      -3.230   8.176 138.817  0.00  0.00    +0.000 C 
BRANCH  53  54
ATOM     54  C   UNL     1      -3.216   8.596 137.352  0.00  0.00    +0.000 C 
BRANCH  54  55
ATOM     55  C   UNL     1      -2.684   7.565 136.403  0.00  0.00    +0.000 C 
BRANCH  55  56
ATOM     56  N   UNL     1      -1.304   7.927 136.081  0.00  0.00    +0.000 NA
ATOM     57  C   UNL     1      -0.729   7.225 135.175  0.00  0.00    +0.000 C 
ATOM     58  N   UNL     1      -1.287   6.212 134.492  0.00  0.00    +0.000 N 
ATOM     59  N   UNL     1       0.540   7.481 134.823  0.00  0.00    +0.000 N 
ATOM     60  H   UNL     1      -2.236   5.944 134.708  0.00  0.00    +0.000 HD
ATOM     61  H   UNL     1      -0.808   5.692 133.782  0.00  0.00    +0.000 HD
ATOM     62  H   UNL     1       1.020   8.213 135.329  0.00  0.00    +0.000 HD
ATOM     63  H   UNL     1       1.049   6.967 134.126  0.00  0.00    +0.000 HD
ENDBRANCH  55  56
ENDBRANCH  54  55
ENDBRANCH  53  54
ENDBRANCH  42  53
ENDBRANCH  40  42
ENDBRANCH  37  38
ENDBRANCH  18  31
BRANCH   5  64
ATOM     64  C   UNL     1      -7.589   0.097 126.714  0.00  0.00    +0.000 C 
BRANCH  64  65
ATOM     65  C   UNL     1      -7.638  -1.259 126.111  0.00  0.00    +0.000 A 
ATOM     66  C   UNL     1      -6.660  -1.773 125.239  0.00  0.00    +0.000 A 
ATOM     67  C   UNL     1      -6.966  -2.744 124.325  0.00  0.00    +0.000 A 
ATOM     68  C   UNL     1      -8.083  -3.498 124.588  0.00  0.00    +0.000 A 
ATOM     69  C   UNL     1      -8.987  -3.119 125.589  0.00  0.00    +0.000 A 
ATOM     70  C   UNL     1      -8.811  -1.951 126.300  0.00  0.00    +0.000 A 
ENDBRANCH  64  65
ENDBRANCH   5  64
BRANCH   9  71
ATOM     71  C   UNL     1      -5.924   4.373 128.008  0.00  0.00    +0.000 C 
BRANCH  71  72
ATOM     72  C   UNL     1      -4.618   4.041 127.394  0.00  0.00    +0.000 A 
ATOM     73  C   UNL     1      -3.613   4.297 128.213  0.00  0.00    +0.000 A 
ATOM     74  C   UNL     1      -2.342   3.895 127.974  0.00  0.00    +0.000 A 
ATOM     75  C   UNL     1      -1.952   3.073 126.981  0.00  0.00    +0.000 A 
ATOM     76  C   UNL     1      -2.844   3.157 125.979  0.00  0.00    +0.000 A 
ATOM     77  C   UNL     1      -4.173   3.598 126.171  0.00  0.00    +0.000 A 
BRANCH  75  78
ATOM     78  O   UNL     1      -0.716   2.682 126.553  0.00  0.00    +0.000 OA
ATOM     79  H   UNL     1      -0.668   2.234 125.675  0.00  0.00    +0.000 HD
ENDBRANCH  75  78
ENDBRANCH  71  72
ENDBRANCH   9  71
BRANCH   1  80
ATOM     80  C   UNL     1      -6.846  -2.054 131.961  0.00  0.00    +0.000 C 
BRANCH  80  81
ATOM     81  C   UNL     1      -6.550  -3.475 132.167  0.00  0.00    +0.000 C 
BRANCH  81  82
ATOM     82  C   UNL     1      -7.018  -3.725 133.549  0.00  0.00    +0.000 C 
BRANCH  82  83
ATOM     83  C   UNL     1      -8.107  -2.728 133.744  0.00  0.00    +0.000 C 
BRANCH  83  84
ATOM     84  N   UNL     1      -8.766  -3.098 134.966  0.00  0.00    +0.000 NA
ATOM     85  H   UNL     1      -9.514  -2.435 135.133  0.00  0.00    +0.000 HD
ATOM     86  H   UNL     1      -8.096  -3.015 135.729  0.00  0.00    +0.000 HD
ENDBRANCH  83  84
ENDBRANCH  82  83
ENDBRANCH  81  82
ENDBRANCH  80  81
ENDBRANCH   1  80
BRANCH  22  87
ATOM     87  C   UNL     1      -7.374   2.507 131.778  0.00  0.00    +0.000 C 
BRANCH  87  88
ATOM     88  C   UNL     1      -8.474   1.509 131.945  0.00  0.00    +0.000 C 
ATOM     89  N   UNL     1      -9.266   2.167 132.764  0.00  0.00    +0.000 N 
ATOM     90  O   UNL     1      -8.657   0.369 131.790  0.00  0.00    +0.000 OA
ATOM     91  H   UNL     1      -9.327   3.143 132.564  0.00  0.00    +0.000 HD
ATOM     92  H   UNL     1      -9.737   1.698 133.490  0.00  0.00    +0.000 HD
ENDBRANCH  87  88
ENDBRANCH  22  87
TORSDOF 22
ENDMDL
MODEL 7
REMARK VINA RESULT:      -7.6      4.280      7.441
REMARK  Name = CHEMBL2369837
REMARK  22 active torsions:
REMARK  status: ('A' for Active; 'I' for Inactive)
REMARK    1  A    between atoms: N_1  and  C_2
REMARK    2  A    between atoms: C_2  and  C_3
REMARK    3  A    between atoms: C_3  and  C_4
REMARK    4  A    between atoms: C_4  and  C_5
REMARK    5  A    between atoms: C_5  and  C_6
REMARK    6  A    between atoms: C_10  and  C_11
REMARK    7  A    between atoms: C_11  and  C_12
REMARK    8  A    between atoms: C_21  and  C_22
REMARK    9  A    between atoms: C_22  and  C_23
REMARK   10  A    between atoms: C_26  and  O_27
REMARK   11  A    between atoms: C_38  and  C_39
REMARK   12  A    between atoms: C_45  and  C_46
REMARK   13  A    between atoms: N_48  and  C_49
REMARK   14  A    between atoms: C_49  and  C_50
REMARK   15  A    between atoms: C_49  and  C_57
REMARK   16  A    between atoms: C_50  and  C_51
REMARK   17  A    between atoms: C_51  and  C_52
REMARK   18  A    between atoms: C_52  and  N_53
REMARK   19  A    between atoms: N_59  and  C_60
REMARK   20  A    between atoms: C_60  and  C_61
REMARK   21  A    between atoms: C_67  and  C_68
REMARK   22  A    between atoms: C_68  and  C_69
REMARK                            x       y       z     vdW  Elec       q    Type
REMARK                         _______ _______ _______ _____ _____    ______ ____
ROOT
ATOM      1  C   UNL     1      -5.613  -1.240 131.469  0.00  0.00    +0.000 C 
ATOM      2  N   UNL     1      -5.622  -0.875 129.820  0.00  0.00    +0.000 N 
ATOM      3  C   UNL     1      -6.075   0.005 128.777  0.00  0.00    +0.000 C 
ATOM      4  O   UNL     1      -5.238   0.441 127.955  0.00  0.00    +0.000 OA
ATOM      5  C   UNL     1      -7.593   0.356 128.557  0.00  0.00    +0.000 C 
ATOM      6  N   UNL     1      -8.294   1.504 129.127  0.00  0.00    +0.000 N 
ATOM      7  C   UNL     1      -8.421   2.831 128.823  0.00  0.00    +0.000 C 
ATOM      8  O   UNL     1      -9.395   3.351 129.391  0.00  0.00    +0.000 OA
ATOM      9  C   UNL     1      -7.352   3.698 127.836  0.00  0.00    +0.000 C 
ATOM     10  N   UNL     1      -8.223   4.491 127.047  0.00  0.00    +0.000 N 
ATOM     11  C   UNL     1      -8.952   5.525 127.527  0.00  0.00    +0.000 C 
ATOM     12  O   UNL     1      -9.732   6.045 126.722  0.00  0.00    +0.000 OA
ATOM     13  C   UNL     1      -8.842   6.078 128.986  0.00  0.00    +0.000 C 
ATOM     14  C   UNL     1      -7.931   5.566 130.107  0.00  0.00    +0.000 C 
ATOM     15  S   UNL     1      -8.037   6.193 131.812  0.00  0.00    +0.000 S 
ATOM     16  S   UNL     1      -6.123   5.622 132.440  0.00  0.00    +0.000 S 
ATOM     17  C   UNL     1      -6.273   5.155 134.202  0.00  0.00    +0.000 C 
ATOM     18  C   UNL     1      -5.231   4.333 134.975  0.00  0.00    +0.000 C 
ATOM     19  N   UNL     1      -5.674   2.939 135.129  0.00  0.00    +0.000 N 
ATOM     20  C   UNL     1      -5.957   2.036 134.182  0.00  0.00    +0.000 C 
ATOM     21  O   UNL     1      -6.423   0.933 134.461  0.00  0.00    +0.000 OA
ATOM     22  C   UNL     1      -5.648   2.351 132.768  0.00  0.00    +0.000 C 
ATOM     23  N   UNL     1      -4.632   0.983 132.479  0.00  0.00    +0.000 N 
ATOM     24  C   UNL     1      -4.471  -0.348 131.820  0.00  0.00    +0.000 C 
ATOM     25  O   UNL     1      -3.423  -0.759 131.297  0.00  0.00    +0.000 OA
ATOM     26  H   UNL     1      -4.626  -0.943 129.557  0.00  0.00    +0.000 HD
ATOM     27  H   UNL     1      -9.032   1.243 129.793  0.00  0.00    +0.000 HD
ATOM     28  H   UNL     1      -8.446   4.150 126.116  0.00  0.00    +0.000 HD
ATOM     29  H   UNL     1      -5.792   2.568 136.071  0.00  0.00    +0.000 HD
ATOM     30  H   UNL     1      -3.703   1.388 132.560  0.00  0.00    +0.000 HD
ENDROOT
BRANCH  18  31
ATOM     31  C   UNL     1      -4.951   4.873 136.428  0.00  0.00    +0.000 C 
ATOM     32  O   UNL     1      -5.513   4.328 137.384  0.00  0.00    +0.000 OA
ATOM     33  N   UNL     1      -3.912   5.778 136.603  0.00  0.00    +0.000 N 
ATOM     34  C   UNL     1      -3.640   6.993 135.858  0.00  0.00    +0.000 C 
ATOM     35  C   UNL     1      -2.155   7.114 135.995  0.00  0.00    +0.000 C 
ATOM     36  C   UNL     1      -1.957   6.826 137.465  0.00  0.00    +0.000 C 
ATOM     37  C   UNL     1      -3.092   5.846 137.843  0.00  0.00    +0.000 C 
BRANCH  37  38
ATOM     38  C   UNL     1      -3.801   6.533 139.022  0.00  0.00    +0.000 C 
ATOM     39  O   UNL     1      -3.857   5.978 140.119  0.00  0.00    +0.000 OA
ATOM     40  N   UNL     1      -4.456   7.732 138.759  0.00  0.00    +0.000 N 
ATOM     41  H   UNL     1      -4.685   8.007 137.807  0.00  0.00    +0.000 HD
BRANCH  40  42
ATOM     42  C   UNL     1      -5.011   8.589 139.833  0.00  0.00    +0.000 C 
BRANCH  42  43
ATOM     43  C   UNL     1      -6.578   8.539 139.837  0.00  0.00    +0.000 C 
ATOM     44  O   UNL     1      -7.237   8.935 140.797  0.00  0.00    +0.000 OA
ATOM     45  N   UNL     1      -7.175   8.028 138.696  0.00  0.00    +0.000 N 
ATOM     46  H   UNL     1      -6.590   7.736 137.932  0.00  0.00    +0.000 HD
BRANCH  45  47
ATOM     47  C   UNL     1      -8.628   7.893 138.560  0.00  0.00    +0.000 C 
BRANCH  47  48
ATOM     48  C   UNL     1      -9.363   9.057 137.869  0.00  0.00    +0.000 C 
ATOM     49  N   UNL     1      -9.950  10.008 138.654  0.00  0.00    +0.000 N 
ATOM     50  O   UNL     1      -9.435   9.162 136.646  0.00  0.00    +0.000 OA
ATOM     51  H   UNL     1      -9.962  10.023 139.658  0.00  0.00    +0.000 HD
ATOM     52  H   UNL     1     -10.433  10.763 138.180  0.00  0.00    +0.000 HD
ENDBRANCH  47  48
ENDBRANCH  45  47
ENDBRANCH  42  43
BRANCH  42  53
ATOM     53  C   UNL     1      -4.548  10.051 139.651  0.00  0.00    +0.000 C 
BRANCH  53  54
ATOM     54  C   UNL     1      -5.396  10.806 138.635  0.00  0.00    +0.000 C 
BRANCH  54  55
ATOM     55  C   UNL     1      -5.897  12.142 139.096  0.00  0.00    +0.000 C 
BRANCH  55  56
ATOM     56  N   UNL     1      -7.309  11.990 139.448  0.00  0.00    +0.000 NA
ATOM     57  C   UNL     1      -7.883  13.020 139.948  0.00  0.00    +0.000 C 
ATOM     58  N   UNL     1      -7.312  14.218 140.154  0.00  0.00    +0.000 N 
ATOM     59  N   UNL     1      -9.175  12.968 140.309  0.00  0.00    +0.000 N 
ATOM     60  H   UNL     1      -6.336  14.338 139.924  0.00  0.00    +0.000 HD
ATOM     61  H   UNL     1      -7.798  15.005 140.539  0.00  0.00    +0.000 HD
ATOM     62  H   UNL     1      -9.647  12.079 140.206  0.00  0.00    +0.000 HD
ATOM     63  H   UNL     1      -9.682  13.737 140.710  0.00  0.00    +0.000 HD
ENDBRANCH  55  56
ENDBRANCH  54  55
ENDBRANCH  53  54
ENDBRANCH  42  53
ENDBRANCH  40  42
ENDBRANCH  37  38
ENDBRANCH  18  31
BRANCH   5  64
ATOM     64  C   UNL     1      -8.006   0.362 127.105  0.00  0.00    +0.000 C 
BRANCH  64  65
ATOM     65  C   UNL     1      -8.453  -0.956 126.592  0.00  0.00    +0.000 A 
ATOM     66  C   UNL     1      -8.374  -2.158 127.321  0.00  0.00    +0.000 A 
ATOM     67  C   UNL     1      -8.288  -3.367 126.686  0.00  0.00    +0.000 A 
ATOM     68  C   UNL     1      -8.733  -3.406 125.387  0.00  0.00    +0.000 A 
ATOM     69  C   UNL     1      -9.009  -2.226 124.686  0.00  0.00    +0.000 A 
ATOM     70  C   UNL     1      -8.791  -0.991 125.259  0.00  0.00    +0.000 A 
ENDBRANCH  64  65
ENDBRANCH   5  64
BRANCH   9  71
ATOM     71  C   UNL     1      -5.998   4.550 128.188  0.00  0.00    +0.000 C 
BRANCH  71  72
ATOM     72  C   UNL     1      -4.754   4.051 127.557  0.00  0.00    +0.000 A 
ATOM     73  C   UNL     1      -3.676   4.505 128.171  0.00  0.00    +0.000 A 
ATOM     74  C   UNL     1      -2.430   4.040 127.921  0.00  0.00    +0.000 A 
ATOM     75  C   UNL     1      -2.128   2.978 127.149  0.00  0.00    +0.000 A 
ATOM     76  C   UNL     1      -3.117   2.802 126.256  0.00  0.00    +0.000 A 
ATOM     77  C   UNL     1      -4.428   3.293 126.457  0.00  0.00    +0.000 A 
BRANCH  75  78
ATOM     78  O   UNL     1      -0.935   2.474 126.718  0.00  0.00    +0.000 OA
ATOM     79  H   UNL     1      -0.119   2.955 126.996  0.00  0.00    +0.000 HD
ENDBRANCH  75  78
ENDBRANCH  71  72
ENDBRANCH   9  71
BRANCH   1  80
ATOM     80  C   UNL     1      -6.776  -1.834 132.242  0.00  0.00    +0.000 C 
BRANCH  80  81
ATOM     81  C   UNL     1      -7.117  -3.126 131.640  0.00  0.00    +0.000 C 
BRANCH  81  82
ATOM     82  C   UNL     1      -5.994  -4.001 132.048  0.00  0.00    +0.000 C 
BRANCH  82  83
ATOM     83  C   UNL     1      -5.659  -4.753 130.807  0.00  0.00    +0.000 C 
BRANCH  83  84
ATOM     84  N   UNL     1      -6.413  -4.134 129.754  0.00  0.00    +0.000 NA
ATOM     85  H   UNL     1      -5.961  -3.259 129.515  0.00  0.00    +0.000 HD
ATOM     86  H   UNL     1      -7.344  -3.919 130.110  0.00  0.00    +0.000 HD
ENDBRANCH  83  84
ENDBRANCH  82  83
ENDBRANCH  81  82
ENDBRANCH  80  81
ENDBRANCH   1  80
BRANCH  22  87
ATOM     87  C   UNL     1      -7.099   2.748 132.105  0.00  0.00    +0.000 C 
BRANCH  87  88
ATOM     88  C   UNL     1      -8.241   1.859 132.477  0.00  0.00    +0.000 C 
ATOM     89  N   UNL     1      -8.878   2.638 133.325  0.00  0.00    +0.000 N 
ATOM     90  O   UNL     1      -8.525   0.730 132.439  0.00  0.00    +0.000 OA
ATOM     91  H   UNL     1      -8.891   3.598 133.053  0.00  0.00    +0.000 HD
ATOM     92  H   UNL     1      -9.292   2.264 134.136  0.00  0.00    +0.000 HD
ENDBRANCH  87  88
ENDBRANCH  22  87
TORSDOF 22
ENDMDL
MODEL 8
REMARK VINA RESULT:      -7.5      4.386      7.381
REMARK  Name = CHEMBL2369837
REMARK  22 active torsions:
REMARK  status: ('A' for Active; 'I' for Inactive)
REMARK    1  A    between atoms: N_1  and  C_2
REMARK    2  A    between atoms: C_2  and  C_3
REMARK    3  A    between atoms: C_3  and  C_4
REMARK    4  A    between atoms: C_4  and  C_5
REMARK    5  A    between atoms: C_5  and  C_6
REMARK    6  A    between atoms: C_10  and  C_11
REMARK    7  A    between atoms: C_11  and  C_12
REMARK    8  A    between atoms: C_21  and  C_22
REMARK    9  A    between atoms: C_22  and  C_23
REMARK   10  A    between atoms: C_26  and  O_27
REMARK   11  A    between atoms: C_38  and  C_39
REMARK   12  A    between atoms: C_45  and  C_46
REMARK   13  A    between atoms: N_48  and  C_49
REMARK   14  A    between atoms: C_49  and  C_50
REMARK   15  A    between atoms: C_49  and  C_57
REMARK   16  A    between atoms: C_50  and  C_51
REMARK   17  A    between atoms: C_51  and  C_52
REMARK   18  A    between atoms: C_52  and  N_53
REMARK   19  A    between atoms: N_59  and  C_60
REMARK   20  A    between atoms: C_60  and  C_61
REMARK   21  A    between atoms: C_67  and  C_68
REMARK   22  A    between atoms: C_68  and  C_69
REMARK                            x       y       z     vdW  Elec       q    Type
REMARK                         _______ _______ _______ _____ _____    ______ ____
ROOT
ATOM      1  C   UNL     1     -10.272   2.332 130.912  0.00  0.00    +0.000 C 
ATOM      2  N   UNL     1      -9.222   1.650 129.778  0.00  0.00    +0.000 N 
ATOM      3  C   UNL     1      -7.992   1.769 129.040  0.00  0.00    +0.000 C 
ATOM      4  O   UNL     1      -7.207   0.795 129.024  0.00  0.00    +0.000 OA
ATOM      5  C   UNL     1      -7.643   3.028 128.163  0.00  0.00    +0.000 C 
ATOM      6  N   UNL     1      -6.890   4.197 128.611  0.00  0.00    +0.000 N 
ATOM      7  C   UNL     1      -5.570   4.517 128.770  0.00  0.00    +0.000 C 
ATOM      8  O   UNL     1      -5.391   5.743 128.849  0.00  0.00    +0.000 OA
ATOM      9  C   UNL     1      -4.316   3.386 128.904  0.00  0.00    +0.000 C 
ATOM     10  N   UNL     1      -3.294   3.953 128.101  0.00  0.00    +0.000 N 
ATOM     11  C   UNL     1      -2.604   5.071 128.426  0.00  0.00    +0.000 C 
ATOM     12  O   UNL     1      -1.817   5.479 127.566  0.00  0.00    +0.000 OA
ATOM     13  C   UNL     1      -2.742   5.826 129.789  0.00  0.00    +0.000 C 
ATOM     14  C   UNL     1      -3.656   5.462 130.964  0.00  0.00    +0.000 C 
ATOM     15  S   UNL     1      -3.844   6.534 132.422  0.00  0.00    +0.000 S 
ATOM     16  S   UNL     1      -4.555   5.080 133.750  0.00  0.00    +0.000 S 
ATOM     17  C   UNL     1      -5.751   5.921 134.848  0.00  0.00    +0.000 C 
ATOM     18  C   UNL     1      -6.786   5.197 135.722  0.00  0.00    +0.000 C 
ATOM     19  N   UNL     1      -8.123   5.263 135.114  0.00  0.00    +0.000 N 
ATOM     20  C   UNL     1      -8.531   4.802 133.925  0.00  0.00    +0.000 C 
ATOM     21  O   UNL     1      -9.662   5.027 133.500  0.00  0.00    +0.000 OA
ATOM     22  C   UNL     1      -7.616   3.954 133.127  0.00  0.00    +0.000 C 
ATOM     23  N   UNL     1      -8.677   2.597 132.989  0.00  0.00    +0.000 N 
ATOM     24  C   UNL     1      -9.577   1.787 132.114  0.00  0.00    +0.000 C 
ATOM     25  O   UNL     1      -9.675   0.550 132.147  0.00  0.00    +0.000 OA
ATOM     26  H   UNL     1      -9.127   0.674 130.100  0.00  0.00    +0.000 HD
ATOM     27  H   UNL     1      -7.446   5.061 128.624  0.00  0.00    +0.000 HD
ATOM     28  H   UNL     1      -3.201   3.602 127.152  0.00  0.00    +0.000 HD
ATOM     29  H   UNL     1      -8.873   5.711 135.638  0.00  0.00    +0.000 HD
ATOM     30  H   UNL     1      -8.311   1.968 133.699  0.00  0.00    +0.000 HD
ENDROOT
BRANCH  18  31
ATOM     31  C   UNL     1      -6.926   5.803 137.170  0.00  0.00    +0.000 C 
ATOM     32  O   UNL     1      -8.014   6.276 137.514  0.00  0.00    +0.000 OA
ATOM     33  N   UNL     1      -5.902   5.574 138.080  0.00  0.00    +0.000 N 
ATOM     34  C   UNL     1      -4.475   5.762 137.897  0.00  0.00    +0.000 C 
ATOM     35  C   UNL     1      -3.906   4.754 138.844  0.00  0.00    +0.000 C 
ATOM     36  C   UNL     1      -4.753   4.977 140.076  0.00  0.00    +0.000 C 
ATOM     37  C   UNL     1      -6.130   5.437 139.543  0.00  0.00    +0.000 C 
BRANCH  37  38
ATOM     38  C   UNL     1      -6.379   6.773 140.263  0.00  0.00    +0.000 C 
ATOM     39  O   UNL     1      -6.727   6.785 141.443  0.00  0.00    +0.000 OA
ATOM     40  N   UNL     1      -6.304   7.932 139.497  0.00  0.00    +0.000 N 
ATOM     41  H   UNL     1      -6.347   7.893 138.482  0.00  0.00    +0.000 HD
BRANCH  40  42
ATOM     42  C   UNL     1      -6.333   9.287 140.097  0.00  0.00    +0.000 C 
BRANCH  42  43
ATOM     43  C   UNL     1      -7.722   9.975 139.860  0.00  0.00    +0.000 C 
ATOM     44  O   UNL     1      -7.983  11.083 140.326  0.00  0.00    +0.000 OA
ATOM     45  N   UNL     1      -8.633   9.265 139.095  0.00  0.00    +0.000 N 
ATOM     46  H   UNL     1      -8.360   8.372 138.722  0.00  0.00    +0.000 HD
BRANCH  45  47
ATOM     47  C   UNL     1      -9.980   9.764 138.810  0.00  0.00    +0.000 C 
BRANCH  47  48
ATOM     48  C   UNL     1     -10.767   9.025 137.710  0.00  0.00    +0.000 C 
ATOM     49  N   UNL     1     -10.069   8.497 136.660  0.00  0.00    +0.000 N 
ATOM     50  O   UNL     1     -11.988   8.890 137.745  0.00  0.00    +0.000 OA
ATOM     51  H   UNL     1      -9.076   8.551 136.522  0.00  0.00    +0.000 HD
ATOM     52  H   UNL     1     -10.606   8.020 135.945  0.00  0.00    +0.000 HD
ENDBRANCH  47  48
ENDBRANCH  45  47
ENDBRANCH  42  43
BRANCH  42  53
ATOM     53  C   UNL     1      -5.218  10.169 139.493  0.00  0.00    +0.000 C 
BRANCH  53  54
ATOM     54  C   UNL     1      -5.295  10.242 137.973  0.00  0.00    +0.000 C 
BRANCH  54  55
ATOM     55  C   UNL     1      -4.004   9.970 137.260  0.00  0.00    +0.000 C 
BRANCH  55  56
ATOM     56  N   UNL     1      -3.307   8.910 137.988  0.00  0.00    +0.000 NA
ATOM     57  C   UNL     1      -2.087   8.701 137.657  0.00  0.00    +0.000 C 
ATOM     58  N   UNL     1      -1.398   9.377 136.723  0.00  0.00    +0.000 N 
ATOM     59  N   UNL     1      -1.374   7.742 138.266  0.00  0.00    +0.000 N 
ATOM     60  H   UNL     1      -1.866  10.106 136.205  0.00  0.00    +0.000 HD
ATOM     61  H   UNL     1      -0.439   9.191 136.499  0.00  0.00    +0.000 HD
ATOM     62  H   UNL     1      -1.854   7.178 138.956  0.00  0.00    +0.000 HD
ATOM     63  H   UNL     1      -0.417   7.524 138.051  0.00  0.00    +0.000 HD
ENDBRANCH  55  56
ENDBRANCH  54  55
ENDBRANCH  53  54
ENDBRANCH  42  53
ENDBRANCH  40  42
ENDBRANCH  37  38
ENDBRANCH  18  31
BRANCH   5  64
ATOM     64  C   UNL     1      -7.018   2.681 126.834  0.00  0.00    +0.000 C 
BRANCH  64  65
ATOM     65  C   UNL     1      -7.993   2.501 125.729  0.00  0.00    +0.000 A 
ATOM     66  C   UNL     1      -8.956   1.477 125.682  0.00  0.00    +0.000 A 
ATOM     67  C   UNL     1      -9.452   1.025 124.489  0.00  0.00    +0.000 A 
ATOM     68  C   UNL     1      -9.339   1.879 123.420  0.00  0.00    +0.000 A 
ATOM     69  C   UNL     1      -8.534   3.023 123.496  0.00  0.00    +0.000 A 
ATOM     70  C   UNL     1      -7.792   3.296 124.625  0.00  0.00    +0.000 A 
ENDBRANCH  64  65
ENDBRANCH   5  64
BRANCH   9  71
ATOM     71  C   UNL     1      -3.650   2.654 130.209  0.00  0.00    +0.000 C 
BRANCH  71  72
ATOM     72  C   UNL     1      -4.464   1.574 130.812  0.00  0.00    +0.000 A 
ATOM     73  C   UNL     1      -4.185   0.396 130.283  0.00  0.00    +0.000 A 
ATOM     74  C   UNL     1      -4.638  -0.773 130.795  0.00  0.00    +0.000 A 
ATOM     75  C   UNL     1      -5.290  -0.917 131.965  0.00  0.00    +0.000 A 
ATOM     76  C   UNL     1      -5.898   0.243 132.263  0.00  0.00    +0.000 A 
ATOM     77  C   UNL     1      -5.483   1.486 131.732  0.00  0.00    +0.000 A 
BRANCH  75  78
ATOM     78  O   UNL     1      -5.898  -1.994 132.543  0.00  0.00    +0.000 OA
ATOM     79  H   UNL     1      -6.428  -1.823 133.359  0.00  0.00    +0.000 HD
ENDBRANCH  75  78
ENDBRANCH  71  72
ENDBRANCH   9  71
BRANCH   1  80
ATOM     80  C   UNL     1     -11.191   3.512 130.657  0.00  0.00    +0.000 C 
BRANCH  80  81
ATOM     81  C   UNL     1     -10.386   4.618 130.130  0.00  0.00    +0.000 C 
BRANCH  81  82
ATOM     82  C   UNL     1     -11.336   5.753 130.110  0.00  0.00    +0.000 C 
BRANCH  82  83
ATOM     83  C   UNL     1     -10.669   6.761 129.240  0.00  0.00    +0.000 C 
BRANCH  83  84
ATOM     84  N   UNL     1     -11.298   8.018 129.538  0.00  0.00    +0.000 NA
ATOM     85  H   UNL     1     -11.326   8.565 128.686  0.00  0.00    +0.000 HD
ATOM     86  H   UNL     1     -10.716   8.515 130.211  0.00  0.00    +0.000 HD
ENDBRANCH  83  84
ENDBRANCH  82  83
ENDBRANCH  81  82
ENDBRANCH  80  81
ENDBRANCH   1  80
BRANCH  22  87
ATOM     87  C   UNL     1      -7.028   4.957 131.965  0.00  0.00    +0.000 C 
BRANCH  87  88
ATOM     88  C   UNL     1      -7.792   6.226 131.763  0.00  0.00    +0.000 C 
ATOM     89  N   UNL     1      -6.920   6.917 131.061  0.00  0.00    +0.000 N 
ATOM     90  O   UNL     1      -8.702   6.787 132.227  0.00  0.00    +0.000 OA
ATOM     91  H   UNL     1      -6.423   6.369 130.391  0.00  0.00    +0.000 HD
ATOM     92  H   UNL     1      -6.806   7.882 131.213  0.00  0.00    +0.000 HD
ENDBRANCH  87  88
ENDBRANCH  22  87
TORSDOF 22
ENDMDL
MODEL 9
REMARK VINA RESULT:      -7.5      4.037     12.490
REMARK  Name = CHEMBL2369837
REMARK  22 active torsions:
REMARK  status: ('A' for Active; 'I' for Inactive)
REMARK    1  A    between atoms: N_1  and  C_2
REMARK    2  A    between atoms: C_2  and  C_3
REMARK    3  A    between atoms: C_3  and  C_4
REMARK    4  A    between atoms: C_4  and  C_5
REMARK    5  A    between atoms: C_5  and  C_6
REMARK    6  A    between atoms: C_10  and  C_11
REMARK    7  A    between atoms: C_11  and  C_12
REMARK    8  A    between atoms: C_21  and  C_22
REMARK    9  A    between atoms: C_22  and  C_23
REMARK   10  A    between atoms: C_26  and  O_27
REMARK   11  A    between atoms: C_38  and  C_39
REMARK   12  A    between atoms: C_45  and  C_46
REMARK   13  A    between atoms: N_48  and  C_49
REMARK   14  A    between atoms: C_49  and  C_50
REMARK   15  A    between atoms: C_49  and  C_57
REMARK   16  A    between atoms: C_50  and  C_51
REMARK   17  A    between atoms: C_51  and  C_52
REMARK   18  A    between atoms: C_52  and  N_53
REMARK   19  A    between atoms: N_59  and  C_60
REMARK   20  A    between atoms: C_60  and  C_61
REMARK   21  A    between atoms: C_67  and  C_68
REMARK   22  A    between atoms: C_68  and  C_69
REMARK                            x       y       z     vdW  Elec       q    Type
REMARK                         _______ _______ _______ _____ _____    ______ ____
ROOT
ATOM      1  C   UNL     1      -4.646   6.790 130.471  0.00  0.00    +0.000 C 
ATOM      2  N   UNL     1      -3.635   6.257 131.715  0.00  0.00    +0.000 N 
ATOM      3  C   UNL     1      -3.427   5.328 132.792  0.00  0.00    +0.000 C 
ATOM      4  O   UNL     1      -2.335   4.719 132.856  0.00  0.00    +0.000 OA
ATOM      5  C   UNL     1      -4.466   5.125 133.956  0.00  0.00    +0.000 C 
ATOM      6  N   UNL     1      -5.533   4.126 133.981  0.00  0.00    +0.000 N 
ATOM      7  C   UNL     1      -5.630   2.797 134.286  0.00  0.00    +0.000 C 
ATOM      8  O   UNL     1      -6.803   2.449 134.497  0.00  0.00    +0.000 OA
ATOM      9  C   UNL     1      -4.323   1.720 134.318  0.00  0.00    +0.000 C 
ATOM     10  N   UNL     1      -4.579   0.949 135.480  0.00  0.00    +0.000 N 
ATOM     11  C   UNL     1      -5.590   0.056 135.593  0.00  0.00    +0.000 C 
ATOM     12  O   UNL     1      -5.725  -0.456 136.709  0.00  0.00    +0.000 OA
ATOM     13  C   UNL     1      -6.541  -0.350 134.420  0.00  0.00    +0.000 C 
ATOM     14  C   UNL     1      -6.516   0.174 132.979  0.00  0.00    +0.000 C 
ATOM     15  S   UNL     1      -7.798  -0.256 131.763  0.00  0.00    +0.000 S 
ATOM     16  S   UNL     1      -6.696   0.165 130.033  0.00  0.00    +0.000 S 
ATOM     17  C   UNL     1      -7.884   0.826 128.809  0.00  0.00    +0.000 C 
ATOM     18  C   UNL     1      -7.487   1.606 127.547  0.00  0.00    +0.000 C 
ATOM     19  N   UNL     1      -7.705   3.048 127.732  0.00  0.00    +0.000 N 
ATOM     20  C   UNL     1      -7.163   3.873 128.636  0.00  0.00    +0.000 C 
ATOM     21  O   UNL     1      -7.525   5.043 128.741  0.00  0.00    +0.000 OA
ATOM     22  C   UNL     1      -6.060   3.379 129.494  0.00  0.00    +0.000 C 
ATOM     23  N   UNL     1      -4.910   4.590 129.051  0.00  0.00    +0.000 N 
ATOM     24  C   UNL     1      -4.160   5.819 129.449  0.00  0.00    +0.000 C 
ATOM     25  O   UNL     1      -2.977   6.056 129.154  0.00  0.00    +0.000 OA
ATOM     26  H   UNL     1      -2.713   6.188 131.257  0.00  0.00    +0.000 HD
ATOM     27  H   UNL     1      -6.476   4.534 133.968  0.00  0.00    +0.000 HD
ATOM     28  H   UNL     1      -4.088   1.212 136.330  0.00  0.00    +0.000 HD
ATOM     29  H   UNL     1      -8.350   3.526 127.103  0.00  0.00    +0.000 HD
ATOM     30  H   UNL     1      -4.332   4.096 128.375  0.00  0.00    +0.000 HD
ENDROOT
BRANCH  18  31
ATOM     31  C   UNL     1      -8.305   1.193 126.266  0.00  0.00    +0.000 C 
ATOM     32  O   UNL     1      -9.303   0.477 126.402  0.00  0.00    +0.000 OA
ATOM     33  N   UNL     1      -8.017   1.833 125.067  0.00  0.00    +0.000 N 
ATOM     34  C   UNL     1      -6.722   2.043 124.446  0.00  0.00    +0.000 C 
ATOM     35  C   UNL     1      -6.955   3.295 123.660  0.00  0.00    +0.000 C 
ATOM     36  C   UNL     1      -8.293   3.010 123.017  0.00  0.00    +0.000 C 
ATOM     37  C   UNL     1      -9.040   2.101 124.021  0.00  0.00    +0.000 C 
BRANCH  37  38
ATOM     38  C   UNL     1      -9.419   0.863 123.190  0.00  0.00    +0.000 C 
ATOM     39  O   UNL     1     -10.113   0.984 122.181  0.00  0.00    +0.000 OA
ATOM     40  N   UNL     1      -9.043  -0.379 123.691  0.00  0.00    +0.000 N 
ATOM     41  H   UNL     1      -8.772  -0.492 124.664  0.00  0.00    +0.000 HD
BRANCH  40  42
ATOM     42  C   UNL     1      -9.175  -1.628 122.905  0.00  0.00    +0.000 C 
BRANCH  42  43
ATOM     43  C   UNL     1      -9.439  -2.856 123.843  0.00  0.00    +0.000 C 
ATOM     44  O   UNL     1      -9.828  -3.937 123.402  0.00  0.00    +0.000 OA
ATOM     45  N   UNL     1      -9.204  -2.654 125.193  0.00  0.00    +0.000 N 
ATOM     46  H   UNL     1      -8.868  -1.757 125.498  0.00  0.00    +0.000 HD
BRANCH  45  47
ATOM     47  C   UNL     1      -9.431  -3.698 126.196  0.00  0.00    +0.000 C 
BRANCH  47  48
ATOM     48  C   UNL     1      -8.861  -3.431 127.603  0.00  0.00    +0.000 C 
ATOM     49  N   UNL     1      -9.261  -4.242 128.627  0.00  0.00    +0.000 N 
ATOM     50  O   UNL     1      -8.063  -2.525 127.834  0.00  0.00    +0.000 OA
ATOM     51  H   UNL     1      -9.910  -5.005 128.560  0.00  0.00    +0.000 HD
ATOM     52  H   UNL     1      -8.879  -4.046 129.546  0.00  0.00    +0.000 HD
ENDBRANCH  47  48
ENDBRANCH  45  47
ENDBRANCH  42  43
BRANCH  42  53
ATOM     53  C   UNL     1      -7.896  -1.884 122.078  0.00  0.00    +0.000 C 
BRANCH  53  54
ATOM     54  C   UNL     1      -6.684  -1.155 122.643  0.00  0.00    +0.000 C 
BRANCH  54  55
ATOM     55  C   UNL     1      -5.834  -1.965 123.576  0.00  0.00    +0.000 C 
BRANCH  55  56
ATOM     56  N   UNL     1      -5.519  -1.126 124.733  0.00  0.00    +0.000 NA
ATOM     57  C   UNL     1      -5.497  -1.715 125.871  0.00  0.00    +0.000 C 
ATOM     58  N   UNL     1      -5.714  -3.023 126.085  0.00  0.00    +0.000 N 
ATOM     59  N   UNL     1      -5.226  -1.022 126.988  0.00  0.00    +0.000 N 
ATOM     60  H   UNL     1      -5.940  -3.614 125.299  0.00  0.00    +0.000 HD
ATOM     61  H   UNL     1      -5.677  -3.450 126.992  0.00  0.00    +0.000 HD
ATOM     62  H   UNL     1      -5.087  -0.025 126.889  0.00  0.00    +0.000 HD
ATOM     63  H   UNL     1      -5.197  -1.421 127.909  0.00  0.00    +0.000 HD
ENDBRANCH  55  56
ENDBRANCH  54  55
ENDBRANCH  53  54
ENDBRANCH  42  53
ENDBRANCH  40  42
ENDBRANCH  37  38
ENDBRANCH  18  31
BRANCH   5  64
ATOM     64  C   UNL     1      -3.830   5.012 135.320  0.00  0.00    +0.000 C 
BRANCH  64  65
ATOM     65  C   UNL     1      -3.922   6.245 136.140  0.00  0.00    +0.000 A 
ATOM     66  C   UNL     1      -4.755   6.386 137.266  0.00  0.00    +0.000 A 
ATOM     67  C   UNL     1      -5.209   7.615 137.662  0.00  0.00    +0.000 A 
ATOM     68  C   UNL     1      -4.485   8.699 137.233  0.00  0.00    +0.000 A 
ATOM     69  C   UNL     1      -3.504   8.562 136.242  0.00  0.00    +0.000 A 
ATOM     70  C   UNL     1      -3.276   7.347 135.632  0.00  0.00    +0.000 A 
ENDBRANCH  64  65
ENDBRANCH   5  64
BRANCH   9  71
ATOM     71  C   UNL     1      -3.674   0.766 133.155  0.00  0.00    +0.000 C 
BRANCH  71  72
ATOM     72  C   UNL     1      -2.945  -0.425 133.648  0.00  0.00    +0.000 A 
ATOM     73  C   UNL     1      -3.547  -1.548 133.298  0.00  0.00    +0.000 A 
ATOM     74  C   UNL     1      -2.982  -2.769 133.447  0.00  0.00    +0.000 A 
ATOM     75  C   UNL     1      -1.708  -3.005 133.817  0.00  0.00    +0.000 A 
ATOM     76  C   UNL     1      -1.267  -1.954 134.529  0.00  0.00    +0.000 A 
ATOM     77  C   UNL     1      -1.841  -0.666 134.432  0.00  0.00    +0.000 A 
BRANCH  75  78
ATOM     78  O   UNL     1      -1.045  -4.160 134.117  0.00  0.00    +0.000 OA
ATOM     79  H   UNL     1      -0.084  -4.194 133.894  0.00  0.00    +0.000 HD
ENDBRANCH  75  78
ENDBRANCH  71  72
ENDBRANCH   9  71
BRANCH   1  80
ATOM     80  C   UNL     1      -5.925   7.585 130.661  0.00  0.00    +0.000 C 
BRANCH  80  81
ATOM     81  C   UNL     1      -6.922   6.713 131.285  0.00  0.00    +0.000 C 
BRANCH  81  82
ATOM     82  C   UNL     1      -8.208   7.245 130.779  0.00  0.00    +0.000 C 
BRANCH  82  83
ATOM     83  C   UNL     1      -9.234   6.517 131.574  0.00  0.00    +0.000 C 
BRANCH  83  84
ATOM     84  N   UNL     1     -10.133   5.933 130.618  0.00  0.00    +0.000 NA
ATOM     85  H   UNL     1      -9.834   6.214 129.692  0.00  0.00    +0.000 HD
ATOM     86  H   UNL     1     -11.064   6.318 130.777  0.00  0.00    +0.000 HD
ENDBRANCH  83  84
ENDBRANCH  82  83
ENDBRANCH  81  82
ENDBRANCH  80  81
ENDBRANCH   1  80
BRANCH  22  87
ATOM     87  C   UNL     1      -6.769   3.077 130.946  0.00  0.00    +0.000 C 
BRANCH  87  88
ATOM     88  C   UNL     1      -8.250   3.274 130.994  0.00  0.00    +0.000 C 
ATOM     89  N   UNL     1      -8.410   3.545 132.271  0.00  0.00    +0.000 N 
ATOM     90  O   UNL     1      -9.192   3.017 130.357  0.00  0.00    +0.000 OA
ATOM     91  H   UNL     1      -7.687   4.118 132.651  0.00  0.00    +0.000 HD
ATOM     92  H   UNL     1      -9.188   3.198 132.763  0.00  0.00    +0.000 HD
ENDBRANCH  87  88
ENDBRANCH  22  87
TORSDOF 22
ENDMDL
