MODEL 1
REMARK VINA RESULT:     -10.7      0.000      0.000
REMARK  Name = CHEMBL25942
REMARK  10 active torsions:
REMARK  status: ('A' for Active; 'I' for Inactive)
REMARK    1  A    between atoms: C_2  and  C_4
REMARK    2  A    between atoms: C_4  and  C_5
REMARK    3  A    between atoms: C_4  and  N_14
REMARK    4  A    between atoms: C_5  and  C_6
REMARK    5  A    between atoms: C_15  and  C_17
REMARK    6  A    between atoms: C_17  and  N_18
REMARK    7  A    between atoms: C_21  and  N_22
REMARK    8  A    between atoms: C_23  and  C_25
REMARK    9  A    between atoms: C_25  and  N_26
REMARK   10  A    between atoms: C_33  and  C_34
REMARK                            x       y       z     vdW  Elec       q    Type
REMARK                         _______ _______ _______ _____ _____    ______ ____
ROOT
ATOM      1  N   UNL     1      -7.001  -0.466 127.837  0.00  0.00    +0.000 N 
ATOM      2  C   UNL     1      -6.922   0.497 128.837  0.00  0.00    +0.000 C 
ATOM      3  O   UNL     1      -6.299   1.558 128.690  0.00  0.00    +0.000 OA
ATOM      4  C   UNL     1      -7.740   0.240 130.106  0.00  0.00    +0.000 C 
ATOM      5  N   UNL     1      -7.131  -0.854 130.831  0.00  0.00    +0.000 NA
ATOM      6  C   UNL     1      -7.297  -2.055 130.411  0.00  0.00    +0.000 C 
ATOM      7  C   UNL     1      -7.944  -2.422 129.120  0.00  0.00    +0.000 A 
ATOM      8  C   UNL     1      -8.676  -3.623 129.094  0.00  0.00    +0.000 A 
ATOM      9  C   UNL     1      -9.224  -4.100 127.907  0.00  0.00    +0.000 A 
ATOM     10  C   UNL     1      -9.039  -3.391 126.731  0.00  0.00    +0.000 A 
ATOM     11  C   UNL     1      -8.309  -2.205 126.746  0.00  0.00    +0.000 A 
ATOM     12  C   UNL     1      -7.759  -1.682 127.933  0.00  0.00    +0.000 A 
ENDROOT
BRANCH   6  13
ATOM     13  C   UNL     1      -6.742  -3.140 131.271  0.00  0.00    +0.000 A 
ATOM     14  C   UNL     1      -7.064  -3.231 132.632  0.00  0.00    +0.000 A 
ATOM     15  C   UNL     1      -6.416  -4.180 133.429  0.00  0.00    +0.000 A 
ATOM     16  C   UNL     1      -5.522  -5.084 132.851  0.00  0.00    +0.000 A 
ATOM     17  C   UNL     1      -5.284  -5.051 131.476  0.00  0.00    +0.000 A 
ATOM     18  C   UNL     1      -5.853  -4.047 130.695  0.00  0.00    +0.000 A 
ENDBRANCH   6  13
BRANCH   4  19
ATOM     19  N   UNL     1      -7.645   1.414 130.933  0.00  0.00    +0.000 N 
ATOM     20  C   UNL     1      -8.664   1.696 131.810  0.00  0.00    +0.000 C 
ATOM     21  O   UNL     1      -9.691   1.023 131.843  0.00  0.00    +0.000 OA
ATOM     22  H   UNL     1      -6.758   1.909 130.931  0.00  0.00    +0.000 HD
BRANCH  20  23
ATOM     23  C   UNL     1      -8.435   2.940 132.659  0.00  0.00    +0.000 C 
BRANCH  23  24
ATOM     24  N   UNL     1      -9.424   4.051 132.470  0.00  0.00    +0.000 NA
ATOM     25  C   UNL     1      -9.557   4.618 131.095  0.00  0.00    +0.000 C 
ATOM     26  C   UNL     1      -8.268   5.289 130.568  0.00  0.00    +0.000 C 
ATOM     27  O   UNL     1      -7.813   6.304 131.484  0.00  0.00    +0.000 OA
ATOM     28  C   UNL     1      -7.634   5.739 132.792  0.00  0.00    +0.000 C 
ATOM     29  C   UNL     1      -8.971   5.172 133.322  0.00  0.00    +0.000 C 
ENDBRANCH  23  24
ENDBRANCH  20  23
ENDBRANCH   4  19
BRANCH   1  30
ATOM     30  C   UNL     1      -6.250  -0.207 126.608  0.00  0.00    +0.000 C 
BRANCH  30  32
ATOM     31  N   UNL     1      -6.269   2.027 125.607  0.00  0.00    +0.000 N 
ATOM     32  C   UNL     1      -6.958   0.844 125.718  0.00  0.00    +0.000 C 
ATOM     33  O   UNL     1      -7.993   0.642 125.099  0.00  0.00    +0.000 OA
ATOM     34  H   UNL     1      -5.585   2.250 126.322  0.00  0.00    +0.000 HD
BRANCH  31  35
ATOM     35  C   UNL     1      -6.488   3.023 124.542  0.00  0.00    +0.000 C 
BRANCH  35  37
ATOM     36  N   UNL     1      -7.090   5.356 125.069  0.00  0.00    +0.000 N 
ATOM     37  C   UNL     1      -7.577   4.087 124.865  0.00  0.00    +0.000 C 
ATOM     38  O   UNL     1      -8.765   3.854 124.963  0.00  0.00    +0.000 OA
ATOM     39  H   UNL     1      -7.760   6.007 125.458  0.00  0.00    +0.000 HD
ATOM     40  H   UNL     1      -6.156   5.422 125.473  0.00  0.00    +0.000 HD
ENDBRANCH  35  37
BRANCH  35  41
ATOM     41  C   UNL     1      -6.906   2.359 123.187  0.00  0.00    +0.000 C 
BRANCH  41  42
ATOM     42  C   UNL     1      -6.672   3.141 121.897  0.00  0.00    +0.000 A 
ATOM     43  C   UNL     1      -5.411   3.624 121.519  0.00  0.00    +0.000 A 
ATOM     44  C   UNL     1      -5.239   4.554 120.506  0.00  0.00    +0.000 A 
ATOM     45  C   UNL     1      -6.295   4.815 119.651  0.00  0.00    +0.000 A 
ATOM     46 CL   UNL     1      -5.957   5.799 118.278  0.00  0.00    +0.000 Cl
ATOM     47  C   UNL     1      -7.538   4.212 119.889  0.00  0.00    +0.000 A 
ATOM     48 CL   UNL     1      -8.857   4.400 118.793  0.00  0.00    +0.000 Cl
ATOM     49  C   UNL     1      -7.737   3.416 121.031  0.00  0.00    +0.000 A 
ENDBRANCH  41  42
ENDBRANCH  35  41
ENDBRANCH  31  35
ENDBRANCH  30  32
ENDBRANCH   1  30
TORSDOF 10
ENDMDL
MODEL 2
REMARK VINA RESULT:     -10.6      3.445      7.433
REMARK  Name = CHEMBL25942
REMARK  10 active torsions:
REMARK  status: ('A' for Active; 'I' for Inactive)
REMARK    1  A    between atoms: C_2  and  C_4
REMARK    2  A    between atoms: C_4  and  C_5
REMARK    3  A    between atoms: C_4  and  N_14
REMARK    4  A    between atoms: C_5  and  C_6
REMARK    5  A    between atoms: C_15  and  C_17
REMARK    6  A    between atoms: C_17  and  N_18
REMARK    7  A    between atoms: C_21  and  N_22
REMARK    8  A    between atoms: C_23  and  C_25
REMARK    9  A    between atoms: C_25  and  N_26
REMARK   10  A    between atoms: C_33  and  C_34
REMARK                            x       y       z     vdW  Elec       q    Type
REMARK                         _______ _______ _______ _____ _____    ______ ____
ROOT
ATOM      1  N   UNL     1      -6.242   2.573 129.818  0.00  0.00    +0.000 N 
ATOM      2  C   UNL     1      -7.534   3.058 129.995  0.00  0.00    +0.000 C 
ATOM      3  O   UNL     1      -8.244   2.720 130.952  0.00  0.00    +0.000 OA
ATOM      4  C   UNL     1      -8.010   4.125 129.006  0.00  0.00    +0.000 C 
ATOM      5  N   UNL     1      -8.204   3.501 127.714  0.00  0.00    +0.000 NA
ATOM      6  C   UNL     1      -7.180   3.211 126.997  0.00  0.00    +0.000 C 
ATOM      7  C   UNL     1      -5.766   3.315 127.454  0.00  0.00    +0.000 A 
ATOM      8  C   UNL     1      -4.807   3.663 126.485  0.00  0.00    +0.000 A 
ATOM      9  C   UNL     1      -3.450   3.678 126.795  0.00  0.00    +0.000 A 
ATOM     10  C   UNL     1      -3.033   3.337 128.071  0.00  0.00    +0.000 A 
ATOM     11  C   UNL     1      -3.974   2.984 129.036  0.00  0.00    +0.000 A 
ATOM     12  C   UNL     1      -5.356   2.979 128.762  0.00  0.00    +0.000 A 
ENDROOT
BRANCH   6  13
ATOM     13  C   UNL     1      -7.457   2.680 125.631  0.00  0.00    +0.000 A 
ATOM     14  C   UNL     1      -7.049   1.395 125.249  0.00  0.00    +0.000 A 
ATOM     15  C   UNL     1      -7.208   0.992 123.919  0.00  0.00    +0.000 A 
ATOM     16  C   UNL     1      -7.848   1.833 123.006  0.00  0.00    +0.000 A 
ATOM     17  C   UNL     1      -8.341   3.071 123.421  0.00  0.00    +0.000 A 
ATOM     18  C   UNL     1      -8.100   3.516 124.718  0.00  0.00    +0.000 A 
ENDBRANCH   6  13
BRANCH   4  19
ATOM     19  N   UNL     1      -9.293   4.597 129.455  0.00  0.00    +0.000 N 
ATOM     20  C   UNL     1      -9.415   5.900 129.873  0.00  0.00    +0.000 C 
ATOM     21  O   UNL     1      -8.442   6.645 129.957  0.00  0.00    +0.000 OA
ATOM     22  H   UNL     1     -10.087   3.982 129.310  0.00  0.00    +0.000 HD
BRANCH  20  23
ATOM     23  C   UNL     1     -10.826   6.297 130.288  0.00  0.00    +0.000 C 
BRANCH  23  24
ATOM     24  N   UNL     1     -11.847   6.323 129.189  0.00  0.00    +0.000 NA
ATOM     25  C   UNL     1     -11.468   7.018 127.923  0.00  0.00    +0.000 C 
ATOM     26  C   UNL     1     -11.196   8.531 128.098  0.00  0.00    +0.000 C 
ATOM     27  O   UNL     1     -12.329   9.183 128.706  0.00  0.00    +0.000 OA
ATOM     28  C   UNL     1     -12.652   8.544 129.950  0.00  0.00    +0.000 C 
ATOM     29  C   UNL     1     -13.017   7.059 129.714  0.00  0.00    +0.000 C 
ENDBRANCH  23  24
ENDBRANCH  20  23
ENDBRANCH   4  19
BRANCH   1  30
ATOM     30  C   UNL     1      -5.771   1.580 130.783  0.00  0.00    +0.000 C 
BRANCH  30  32
ATOM     31  N   UNL     1      -5.678  -0.407 129.356  0.00  0.00    +0.000 N 
ATOM     32  C   UNL     1      -6.293   0.162 130.444  0.00  0.00    +0.000 C 
ATOM     33  O   UNL     1      -7.119  -0.448 131.107  0.00  0.00    +0.000 OA
ATOM     34  H   UNL     1      -5.217   0.207 128.693  0.00  0.00    +0.000 HD
BRANCH  31  35
ATOM     35  C   UNL     1      -5.681  -1.851 129.057  0.00  0.00    +0.000 C 
BRANCH  35  37
ATOM     36  N   UNL     1      -5.492  -3.192 131.119  0.00  0.00    +0.000 N 
ATOM     37  C   UNL     1      -4.815  -2.713 130.023  0.00  0.00    +0.000 C 
ATOM     38  O   UNL     1      -3.633  -2.944 129.872  0.00  0.00    +0.000 OA
ATOM     39  H   UNL     1      -4.902  -3.591 131.838  0.00  0.00    +0.000 HD
ATOM     40  H   UNL     1      -6.251  -2.609 131.472  0.00  0.00    +0.000 HD
ENDBRANCH  35  37
BRANCH  35  41
ATOM     41  C   UNL     1      -5.167  -2.157 127.611  0.00  0.00    +0.000 C 
BRANCH  41  42
ATOM     42  C   UNL     1      -6.199  -2.306 126.494  0.00  0.00    +0.000 A 
ATOM     43  C   UNL     1      -7.560  -2.532 126.743  0.00  0.00    +0.000 A 
ATOM     44  C   UNL     1      -8.444  -2.935 125.754  0.00  0.00    +0.000 A 
ATOM     45  C   UNL     1      -8.051  -2.847 124.430  0.00  0.00    +0.000 A 
ATOM     46 CL   UNL     1      -9.264  -3.138 123.240  0.00  0.00    +0.000 Cl
ATOM     47  C   UNL     1      -6.742  -2.452 124.125  0.00  0.00    +0.000 A 
ATOM     48 CL   UNL     1      -6.228  -2.205 122.496  0.00  0.00    +0.000 Cl
ATOM     49  C   UNL     1      -5.808  -2.227 125.153  0.00  0.00    +0.000 A 
ENDBRANCH  41  42
ENDBRANCH  35  41
ENDBRANCH  31  35
ENDBRANCH  30  32
ENDBRANCH   1  30
TORSDOF 10
ENDMDL
MODEL 3
REMARK VINA RESULT:     -10.4      3.253      8.179
REMARK  Name = CHEMBL25942
REMARK  10 active torsions:
REMARK  status: ('A' for Active; 'I' for Inactive)
REMARK    1  A    between atoms: C_2  and  C_4
REMARK    2  A    between atoms: C_4  and  C_5
REMARK    3  A    between atoms: C_4  and  N_14
REMARK    4  A    between atoms: C_5  and  C_6
REMARK    5  A    between atoms: C_15  and  C_17
REMARK    6  A    between atoms: C_17  and  N_18
REMARK    7  A    between atoms: C_21  and  N_22
REMARK    8  A    between atoms: C_23  and  C_25
REMARK    9  A    between atoms: C_25  and  N_26
REMARK   10  A    between atoms: C_33  and  C_34
REMARK                            x       y       z     vdW  Elec       q    Type
REMARK                         _______ _______ _______ _____ _____    ______ ____
ROOT
ATOM      1  N   UNL     1      -8.312   1.935 131.289  0.00  0.00    +0.000 N 
ATOM      2  C   UNL     1      -7.986   2.021 129.940  0.00  0.00    +0.000 C 
ATOM      3  O   UNL     1      -8.302   1.144 129.123  0.00  0.00    +0.000 OA
ATOM      4  C   UNL     1      -7.307   3.312 129.477  0.00  0.00    +0.000 C 
ATOM      5  N   UNL     1      -5.962   3.343 130.012  0.00  0.00    +0.000 NA
ATOM      6  C   UNL     1      -5.786   3.625 131.252  0.00  0.00    +0.000 C 
ATOM      7  C   UNL     1      -6.879   3.773 132.252  0.00  0.00    +0.000 A 
ATOM      8  C   UNL     1      -6.679   4.712 133.281  0.00  0.00    +0.000 A 
ATOM      9  C   UNL     1      -7.595   4.842 134.320  0.00  0.00    +0.000 A 
ATOM     10  C   UNL     1      -8.718   4.030 134.351  0.00  0.00    +0.000 A 
ATOM     11  C   UNL     1      -8.922   3.093 133.341  0.00  0.00    +0.000 A 
ATOM     12  C   UNL     1      -8.025   2.949 132.264  0.00  0.00    +0.000 A 
ENDROOT
BRANCH   6  13
ATOM     13  C   UNL     1      -4.372   3.755 131.707  0.00  0.00    +0.000 A 
ATOM     14  C   UNL     1      -3.796   2.821 132.579  0.00  0.00    +0.000 A 
ATOM     15  C   UNL     1      -2.514   3.057 133.087  0.00  0.00    +0.000 A 
ATOM     16  C   UNL     1      -1.785   4.167 132.655  0.00  0.00    +0.000 A 
ATOM     17  C   UNL     1      -2.328   5.036 131.708  0.00  0.00    +0.000 A 
ATOM     18  C   UNL     1      -3.640   4.860 131.273  0.00  0.00    +0.000 A 
ENDBRANCH   6  13
BRANCH   4  19
ATOM     19  N   UNL     1      -7.200   3.262 128.042  0.00  0.00    +0.000 N 
ATOM     20  C   UNL     1      -7.863   4.201 127.291  0.00  0.00    +0.000 C 
ATOM     21  O   UNL     1      -8.615   5.026 127.805  0.00  0.00    +0.000 OA
ATOM     22  H   UNL     1      -6.522   2.614 127.653  0.00  0.00    +0.000 HD
BRANCH  20  23
ATOM     23  C   UNL     1      -7.645   4.071 125.789  0.00  0.00    +0.000 C 
BRANCH  23  24
ATOM     24  N   UNL     1      -6.626   3.058 125.361  0.00  0.00    +0.000 NA
ATOM     25  C   UNL     1      -5.348   3.577 124.787  0.00  0.00    +0.000 C 
ATOM     26  C   UNL     1      -5.531   4.371 123.473  0.00  0.00    +0.000 C 
ATOM     27  O   UNL     1      -6.233   3.579 122.494  0.00  0.00    +0.000 OA
ATOM     28  C   UNL     1      -7.485   3.130 123.035  0.00  0.00    +0.000 C 
ATOM     29  C   UNL     1      -7.249   2.255 124.288  0.00  0.00    +0.000 C 
ENDBRANCH  23  24
ENDBRANCH  20  23
ENDBRANCH   4  19
BRANCH   1  30
ATOM     30  C   UNL     1      -8.994   0.717 131.728  0.00  0.00    +0.000 C 
BRANCH  30  32
ATOM     31  N   UNL     1      -7.494  -1.105 131.079  0.00  0.00    +0.000 N 
ATOM     32  C   UNL     1      -7.987  -0.384 132.139  0.00  0.00    +0.000 C 
ATOM     33  O   UNL     1      -7.591  -0.569 133.281  0.00  0.00    +0.000 OA
ATOM     34  H   UNL     1      -8.027  -1.110 130.216  0.00  0.00    +0.000 HD
BRANCH  31  35
ATOM     35  C   UNL     1      -6.262  -1.914 131.121  0.00  0.00    +0.000 C 
BRANCH  35  37
ATOM     36  N   UNL     1      -5.201   0.073 130.117  0.00  0.00    +0.000 N 
ATOM     37  C   UNL     1      -4.973  -1.151 130.698  0.00  0.00    +0.000 C 
ATOM     38  O   UNL     1      -3.843  -1.577 130.830  0.00  0.00    +0.000 OA
ATOM     39  H   UNL     1      -4.390   0.488 129.675  0.00  0.00    +0.000 HD
ATOM     40  H   UNL     1      -6.064   0.166 129.582  0.00  0.00    +0.000 HD
ENDBRANCH  35  37
BRANCH  35  41
ATOM     41  C   UNL     1      -6.350  -3.177 130.201  0.00  0.00    +0.000 C 
BRANCH  41  42
ATOM     42  C   UNL     1      -7.134  -3.066 128.895  0.00  0.00    +0.000 A 
ATOM     43  C   UNL     1      -8.408  -3.625 128.723  0.00  0.00    +0.000 A 
ATOM     44  C   UNL     1      -9.001  -3.765 127.478  0.00  0.00    +0.000 A 
ATOM     45  C   UNL     1      -8.458  -3.090 126.399  0.00  0.00    +0.000 A 
ATOM     46 CL   UNL     1      -9.365  -3.112 124.934  0.00  0.00    +0.000 Cl
ATOM     47  C   UNL     1      -7.270  -2.366 126.567  0.00  0.00    +0.000 A 
ATOM     48 CL   UNL     1      -6.610  -1.405 125.294  0.00  0.00    +0.000 Cl
ATOM     49  C   UNL     1      -6.587  -2.392 127.796  0.00  0.00    +0.000 A 
ENDBRANCH  41  42
ENDBRANCH  35  41
ENDBRANCH  31  35
ENDBRANCH  30  32
ENDBRANCH   1  30
TORSDOF 10
ENDMDL
MODEL 4
REMARK VINA RESULT:     -10.3      3.148      5.652
REMARK  Name = CHEMBL25942
REMARK  10 active torsions:
REMARK  status: ('A' for Active; 'I' for Inactive)
REMARK    1  A    between atoms: C_2  and  C_4
REMARK    2  A    between atoms: C_4  and  C_5
REMARK    3  A    between atoms: C_4  and  N_14
REMARK    4  A    between atoms: C_5  and  C_6
REMARK    5  A    between atoms: C_15  and  C_17
REMARK    6  A    between atoms: C_17  and  N_18
REMARK    7  A    between atoms: C_21  and  N_22
REMARK    8  A    between atoms: C_23  and  C_25
REMARK    9  A    between atoms: C_25  and  N_26
REMARK   10  A    between atoms: C_33  and  C_34
REMARK                            x       y       z     vdW  Elec       q    Type
REMARK                         _______ _______ _______ _____ _____    ______ ____
ROOT
ATOM      1  N   UNL     1      -6.564   2.082 129.062  0.00  0.00    +0.000 N 
ATOM      2  C   UNL     1      -7.599   3.007 128.969  0.00  0.00    +0.000 C 
ATOM      3  O   UNL     1      -8.369   3.047 127.999  0.00  0.00    +0.000 OA
ATOM      4  C   UNL     1      -7.821   3.916 130.181  0.00  0.00    +0.000 C 
ATOM      5  N   UNL     1      -6.720   4.852 130.261  0.00  0.00    +0.000 NA
ATOM      6  C   UNL     1      -5.583   4.448 130.698  0.00  0.00    +0.000 C 
ATOM      7  C   UNL     1      -5.241   3.028 130.989  0.00  0.00    +0.000 A 
ATOM      8  C   UNL     1      -4.346   2.793 132.049  0.00  0.00    +0.000 A 
ATOM      9  C   UNL     1      -3.885   1.509 132.324  0.00  0.00    +0.000 A 
ATOM     10  C   UNL     1      -4.302   0.446 131.539  0.00  0.00    +0.000 A 
ATOM     11  C   UNL     1      -5.182   0.670 130.482  0.00  0.00    +0.000 A 
ATOM     12  C   UNL     1      -5.684   1.953 130.189  0.00  0.00    +0.000 A 
ENDROOT
BRANCH   6  13
ATOM     13  C   UNL     1      -4.530   5.491 130.866  0.00  0.00    +0.000 A 
ATOM     14  C   UNL     1      -3.430   5.565 130.001  0.00  0.00    +0.000 A 
ATOM     15  C   UNL     1      -2.400   6.470 130.277  0.00  0.00    +0.000 A 
ATOM     16  C   UNL     1      -2.513   7.350 131.356  0.00  0.00    +0.000 A 
ATOM     17  C   UNL     1      -3.659   7.337 132.152  0.00  0.00    +0.000 A 
ATOM     18  C   UNL     1      -4.643   6.374 131.940  0.00  0.00    +0.000 A 
ENDBRANCH   6  13
BRANCH   4  19
ATOM     19  N   UNL     1      -9.020   4.676 129.945  0.00  0.00    +0.000 N 
ATOM     20  C   UNL     1      -9.547   5.424 130.969  0.00  0.00    +0.000 C 
ATOM     21  O   UNL     1      -9.075   5.390 132.102  0.00  0.00    +0.000 OA
ATOM     22  H   UNL     1      -9.345   4.737 128.985  0.00  0.00    +0.000 HD
BRANCH  20  23
ATOM     23  C   UNL     1     -10.793   6.216 130.590  0.00  0.00    +0.000 C 
BRANCH  23  24
ATOM     24  N   UNL     1     -11.218   6.119 129.156  0.00  0.00    +0.000 NA
ATOM     25  C   UNL     1     -10.468   6.948 128.165  0.00  0.00    +0.000 C 
ATOM     26  C   UNL     1     -10.597   8.471 128.399  0.00  0.00    +0.000 C 
ATOM     27  O   UNL     1     -11.983   8.864 128.432  0.00  0.00    +0.000 OA
ATOM     28  C   UNL     1     -12.685   8.102 129.425  0.00  0.00    +0.000 C 
ATOM     29  C   UNL     1     -12.617   6.593 129.095  0.00  0.00    +0.000 C 
ENDBRANCH  23  24
ENDBRANCH  20  23
ENDBRANCH   4  19
BRANCH   1  30
ATOM     30  C   UNL     1      -6.373   1.188 127.920  0.00  0.00    +0.000 C 
BRANCH  30  32
ATOM     31  N   UNL     1      -6.775   2.130 125.697  0.00  0.00    +0.000 N 
ATOM     32  C   UNL     1      -5.836   1.948 126.683  0.00  0.00    +0.000 C 
ATOM     33  O   UNL     1      -4.712   2.420 126.594  0.00  0.00    +0.000 OA
ATOM     34  H   UNL     1      -7.580   1.514 125.685  0.00  0.00    +0.000 HD
BRANCH  31  35
ATOM     35  C   UNL     1      -6.671   3.133 124.621  0.00  0.00    +0.000 C 
BRANCH  35  37
ATOM     36  N   UNL     1      -8.265   4.789 125.517  0.00  0.00    +0.000 N 
ATOM     37  C   UNL     1      -6.982   4.593 125.066  0.00  0.00    +0.000 C 
ATOM     38  O   UNL     1      -6.194   5.515 125.010  0.00  0.00    +0.000 OA
ATOM     39  H   UNL     1      -8.528   5.760 125.630  0.00  0.00    +0.000 HD
ATOM     40  H   UNL     1      -8.987   4.203 125.097  0.00  0.00    +0.000 HD
ENDBRANCH  35  37
BRANCH  35  41
ATOM     41  C   UNL     1      -7.631   2.821 123.425  0.00  0.00    +0.000 C 
BRANCH  41  42
ATOM     42  C   UNL     1      -7.268   3.366 122.045  0.00  0.00    +0.000 A 
ATOM     43  C   UNL     1      -5.951   3.672 121.672  0.00  0.00    +0.000 A 
ATOM     44  C   UNL     1      -5.648   4.412 120.540  0.00  0.00    +0.000 A 
ATOM     45  C   UNL     1      -6.636   4.625 119.595  0.00  0.00    +0.000 A 
ATOM     46 CL   UNL     1      -6.147   5.346 118.109  0.00  0.00    +0.000 Cl
ATOM     47  C   UNL     1      -7.939   4.177 119.850  0.00  0.00    +0.000 A 
ATOM     48 CL   UNL     1      -9.186   4.301 118.663  0.00  0.00    +0.000 Cl
ATOM     49  C   UNL     1      -8.263   3.592 121.088  0.00  0.00    +0.000 A 
ENDBRANCH  41  42
ENDBRANCH  35  41
ENDBRANCH  31  35
ENDBRANCH  30  32
ENDBRANCH   1  30
TORSDOF 10
ENDMDL
MODEL 5
REMARK VINA RESULT:     -10.3      4.611      8.720
REMARK  Name = CHEMBL25942
REMARK  10 active torsions:
REMARK  status: ('A' for Active; 'I' for Inactive)
REMARK    1  A    between atoms: C_2  and  C_4
REMARK    2  A    between atoms: C_4  and  C_5
REMARK    3  A    between atoms: C_4  and  N_14
REMARK    4  A    between atoms: C_5  and  C_6
REMARK    5  A    between atoms: C_15  and  C_17
REMARK    6  A    between atoms: C_17  and  N_18
REMARK    7  A    between atoms: C_21  and  N_22
REMARK    8  A    between atoms: C_23  and  C_25
REMARK    9  A    between atoms: C_25  and  N_26
REMARK   10  A    between atoms: C_33  and  C_34
REMARK                            x       y       z     vdW  Elec       q    Type
REMARK                         _______ _______ _______ _____ _____    ______ ____
ROOT
ATOM      1  N   UNL     1      -7.051   2.772 130.124  0.00  0.00    +0.000 N 
ATOM      2  C   UNL     1      -8.251   3.463 129.985  0.00  0.00    +0.000 C 
ATOM      3  O   UNL     1      -9.240   3.223 130.692  0.00  0.00    +0.000 OA
ATOM      4  C   UNL     1      -8.267   4.622 128.985  0.00  0.00    +0.000 C 
ATOM      5  N   UNL     1      -8.193   4.075 127.647  0.00  0.00    +0.000 NA
ATOM      6  C   UNL     1      -7.070   3.636 127.209  0.00  0.00    +0.000 C 
ATOM      7  C   UNL     1      -5.837   3.488 128.032  0.00  0.00    +0.000 A 
ATOM      8  C   UNL     1      -4.607   3.696 127.380  0.00  0.00    +0.000 A 
ATOM      9  C   UNL     1      -3.402   3.474 128.039  0.00  0.00    +0.000 A 
ATOM     10  C   UNL     1      -3.409   3.033 129.353  0.00  0.00    +0.000 A 
ATOM     11  C   UNL     1      -4.621   2.817 130.005  0.00  0.00    +0.000 A 
ATOM     12  C   UNL     1      -5.859   3.052 129.374  0.00  0.00    +0.000 A 
ENDROOT
BRANCH   6  13
ATOM     13  C   UNL     1      -7.040   3.197 125.784  0.00  0.00    +0.000 A 
ATOM     14  C   UNL     1      -7.240   1.857 125.426  0.00  0.00    +0.000 A 
ATOM     15  C   UNL     1      -7.068   1.469 124.094  0.00  0.00    +0.000 A 
ATOM     16  C   UNL     1      -6.787   2.428 123.118  0.00  0.00    +0.000 A 
ATOM     17  C   UNL     1      -6.689   3.775 123.468  0.00  0.00    +0.000 A 
ATOM     18  C   UNL     1      -6.764   4.153 124.807  0.00  0.00    +0.000 A 
ENDBRANCH   6  13
BRANCH   4  19
ATOM     19  N   UNL     1      -9.535   5.291 129.110  0.00  0.00    +0.000 N 
ATOM     20  C   UNL     1      -9.575   6.545 129.668  0.00  0.00    +0.000 C 
ATOM     21  O   UNL     1      -8.572   7.072 130.143  0.00  0.00    +0.000 OA
ATOM     22  H   UNL     1     -10.331   4.860 128.649  0.00  0.00    +0.000 HD
BRANCH  20  23
ATOM     23  C   UNL     1     -10.964   7.169 129.711  0.00  0.00    +0.000 C 
BRANCH  23  24
ATOM     24  N   UNL     1     -11.141   8.427 128.915  0.00  0.00    +0.000 NA
ATOM     25  C   UNL     1     -12.507   9.031 128.889  0.00  0.00    +0.000 C 
ATOM     26  C   UNL     1     -13.578   8.126 128.237  0.00  0.00    +0.000 C 
ATOM     27  O   UNL     1     -13.177   7.742 126.907  0.00  0.00    +0.000 OA
ATOM     28  C   UNL     1     -11.887   7.112 126.947  0.00  0.00    +0.000 C 
ATOM     29  C   UNL     1     -10.828   8.088 127.510  0.00  0.00    +0.000 C 
ENDBRANCH  23  24
ENDBRANCH  20  23
ENDBRANCH   4  19
BRANCH   1  30
ATOM     30  C   UNL     1      -7.022   1.688 131.105  0.00  0.00    +0.000 C 
BRANCH  30  32
ATOM     31  N   UNL     1      -6.800   3.501 132.735  0.00  0.00    +0.000 N 
ATOM     32  C   UNL     1      -7.243   2.215 132.544  0.00  0.00    +0.000 C 
ATOM     33  O   UNL     1      -7.821   1.597 133.427  0.00  0.00    +0.000 OA
ATOM     34  H   UNL     1      -6.108   3.868 132.090  0.00  0.00    +0.000 HD
BRANCH  31  35
ATOM     35  C   UNL     1      -7.228   4.375 133.843  0.00  0.00    +0.000 C 
BRANCH  35  37
ATOM     36  N   UNL     1      -9.685   4.152 133.820  0.00  0.00    +0.000 N 
ATOM     37  C   UNL     1      -8.632   5.020 133.653  0.00  0.00    +0.000 C 
ATOM     38  O   UNL     1      -8.825   6.182 133.356  0.00  0.00    +0.000 OA
ATOM     39  H   UNL     1     -10.581   4.513 133.519  0.00  0.00    +0.000 HD
ATOM     40  H   UNL     1      -9.514   3.180 133.562  0.00  0.00    +0.000 HD
ENDBRANCH  35  37
BRANCH  35  41
ATOM     41  C   UNL     1      -6.228   5.554 134.087  0.00  0.00    +0.000 C 
BRANCH  41  42
ATOM     42  C   UNL     1      -5.215   5.881 132.992  0.00  0.00    +0.000 A 
ATOM     43  C   UNL     1      -5.554   6.586 131.829  0.00  0.00    +0.000 A 
ATOM     44  C   UNL     1      -4.720   6.648 130.723  0.00  0.00    +0.000 A 
ATOM     45  C   UNL     1      -3.404   6.244 130.854  0.00  0.00    +0.000 A 
ATOM     46 CL   UNL     1      -2.359   6.559 129.520  0.00  0.00    +0.000 Cl
ATOM     47  C   UNL     1      -2.971   5.691 132.067  0.00  0.00    +0.000 A 
ATOM     48 CL   UNL     1      -1.316   5.282 132.334  0.00  0.00    +0.000 Cl
ATOM     49  C   UNL     1      -3.883   5.468 133.114  0.00  0.00    +0.000 A 
ENDBRANCH  41  42
ENDBRANCH  35  41
ENDBRANCH  31  35
ENDBRANCH  30  32
ENDBRANCH   1  30
TORSDOF 10
ENDMDL
MODEL 6
REMARK VINA RESULT:     -10.2      5.043      9.001
REMARK  Name = CHEMBL25942
REMARK  10 active torsions:
REMARK  status: ('A' for Active; 'I' for Inactive)
REMARK    1  A    between atoms: C_2  and  C_4
REMARK    2  A    between atoms: C_4  and  C_5
REMARK    3  A    between atoms: C_4  and  N_14
REMARK    4  A    between atoms: C_5  and  C_6
REMARK    5  A    between atoms: C_15  and  C_17
REMARK    6  A    between atoms: C_17  and  N_18
REMARK    7  A    between atoms: C_21  and  N_22
REMARK    8  A    between atoms: C_23  and  C_25
REMARK    9  A    between atoms: C_25  and  N_26
REMARK   10  A    between atoms: C_33  and  C_34
REMARK                            x       y       z     vdW  Elec       q    Type
REMARK                         _______ _______ _______ _____ _____    ______ ____
ROOT
ATOM      1  N   UNL     1      -5.708  -3.225 130.587  0.00  0.00    +0.000 N 
ATOM      2  C   UNL     1      -6.206  -2.805 129.357  0.00  0.00    +0.000 C 
ATOM      3  O   UNL     1      -5.523  -2.825 128.323  0.00  0.00    +0.000 OA
ATOM      4  C   UNL     1      -7.685  -2.416 129.309  0.00  0.00    +0.000 C 
ATOM      5  N   UNL     1      -7.858  -1.174 130.032  0.00  0.00    +0.000 NA
ATOM      6  C   UNL     1      -7.842  -1.186 131.315  0.00  0.00    +0.000 C 
ATOM      7  C   UNL     1      -7.495  -2.370 132.148  0.00  0.00    +0.000 A 
ATOM      8  C   UNL     1      -8.158  -2.497 133.383  0.00  0.00    +0.000 A 
ATOM      9  C   UNL     1      -7.820  -3.510 134.276  0.00  0.00    +0.000 A 
ATOM     10  C   UNL     1      -6.811  -4.402 133.952  0.00  0.00    +0.000 A 
ATOM     11  C   UNL     1      -6.144  -4.282 132.735  0.00  0.00    +0.000 A 
ATOM     12  C   UNL     1      -6.475  -3.281 131.800  0.00  0.00    +0.000 A 
ENDROOT
BRANCH   6  13
ATOM     13  C   UNL     1      -8.143   0.107 131.993  0.00  0.00    +0.000 A 
ATOM     14  C   UNL     1      -9.385   0.740 131.843  0.00  0.00    +0.000 A 
ATOM     15  C   UNL     1      -9.575   2.016 132.385  0.00  0.00    +0.000 A 
ATOM     16  C   UNL     1      -8.563   2.611 133.142  0.00  0.00    +0.000 A 
ATOM     17  C   UNL     1      -7.367   1.929 133.370  0.00  0.00    +0.000 A 
ATOM     18  C   UNL     1      -7.137   0.702 132.754  0.00  0.00    +0.000 A 
ENDBRANCH   6  13
BRANCH   4  19
ATOM     19  N   UNL     1      -8.029  -2.169 127.934  0.00  0.00    +0.000 N 
ATOM     20  C   UNL     1      -8.794  -3.091 127.262  0.00  0.00    +0.000 C 
ATOM     21  O   UNL     1      -9.115  -4.160 127.775  0.00  0.00    +0.000 OA
ATOM     22  H   UNL     1      -7.807  -1.251 127.561  0.00  0.00    +0.000 HD
BRANCH  20  23
ATOM     23  C   UNL     1      -9.127  -2.703 125.826  0.00  0.00    +0.000 C 
BRANCH  23  24
ATOM     24  N   UNL     1      -8.641  -3.645 124.766  0.00  0.00    +0.000 NA
ATOM     25  C   UNL     1      -7.191  -3.582 124.410  0.00  0.00    +0.000 C 
ATOM     26  C   UNL     1      -6.754  -2.225 123.811  0.00  0.00    +0.000 C 
ATOM     27  O   UNL     1      -7.563  -1.891 122.666  0.00  0.00    +0.000 OA
ATOM     28  C   UNL     1      -8.952  -1.900 123.030  0.00  0.00    +0.000 C 
ATOM     29  C   UNL     1      -9.371  -3.303 123.526  0.00  0.00    +0.000 C 
ENDBRANCH  23  24
ENDBRANCH  20  23
ENDBRANCH   4  19
BRANCH   1  30
ATOM     30  C   UNL     1      -4.304  -3.632 130.627  0.00  0.00    +0.000 C 
BRANCH  30  32
ATOM     31  N   UNL     1      -3.630  -1.710 131.986  0.00  0.00    +0.000 N 
ATOM     32  C   UNL     1      -3.364  -2.420 130.840  0.00  0.00    +0.000 C 
ATOM     33  O   UNL     1      -2.420  -2.140 130.115  0.00  0.00    +0.000 OA
ATOM     34  H   UNL     1      -4.551  -1.801 132.400  0.00  0.00    +0.000 HD
BRANCH  31  35
ATOM     35  C   UNL     1      -2.680  -0.787 132.634  0.00  0.00    +0.000 C 
BRANCH  35  37
ATOM     36  N   UNL     1      -0.747  -0.640 134.158  0.00  0.00    +0.000 N 
ATOM     37  C   UNL     1      -1.756  -1.450 133.697  0.00  0.00    +0.000 C 
ATOM     38  O   UNL     1      -1.868  -2.592 134.094  0.00  0.00    +0.000 OA
ATOM     39  H   UNL     1      -0.039  -1.116 134.702  0.00  0.00    +0.000 HD
ATOM     40  H   UNL     1      -0.379   0.045 133.498  0.00  0.00    +0.000 HD
ENDBRANCH  35  37
BRANCH  35  41
ATOM     41  C   UNL     1      -3.405   0.398 133.355  0.00  0.00    +0.000 C 
BRANCH  41  42
ATOM     42  C   UNL     1      -3.404   1.766 132.676  0.00  0.00    +0.000 A 
ATOM     43  C   UNL     1      -4.139   2.039 131.513  0.00  0.00    +0.000 A 
ATOM     44  C   UNL     1      -3.933   3.175 130.748  0.00  0.00    +0.000 A 
ATOM     45  C   UNL     1      -3.185   4.212 131.277  0.00  0.00    +0.000 A 
ATOM     46 CL   UNL     1      -3.156   5.684 130.382  0.00  0.00    +0.000 Cl
ATOM     47  C   UNL     1      -2.571   4.049 132.526  0.00  0.00    +0.000 A 
ATOM     48 CL   UNL     1      -1.729   5.345 133.295  0.00  0.00    +0.000 Cl
ATOM     49  C   UNL     1      -2.642   2.817 133.201  0.00  0.00    +0.000 A 
ENDBRANCH  41  42
ENDBRANCH  35  41
ENDBRANCH  31  35
ENDBRANCH  30  32
ENDBRANCH   1  30
TORSDOF 10
ENDMDL
MODEL 7
REMARK VINA RESULT:     -10.0      2.597      7.000
REMARK  Name = CHEMBL25942
REMARK  10 active torsions:
REMARK  status: ('A' for Active; 'I' for Inactive)
REMARK    1  A    between atoms: C_2  and  C_4
REMARK    2  A    between atoms: C_4  and  C_5
REMARK    3  A    between atoms: C_4  and  N_14
REMARK    4  A    between atoms: C_5  and  C_6
REMARK    5  A    between atoms: C_15  and  C_17
REMARK    6  A    between atoms: C_17  and  N_18
REMARK    7  A    between atoms: C_21  and  N_22
REMARK    8  A    between atoms: C_23  and  C_25
REMARK    9  A    between atoms: C_25  and  N_26
REMARK   10  A    between atoms: C_33  and  C_34
REMARK                            x       y       z     vdW  Elec       q    Type
REMARK                         _______ _______ _______ _____ _____    ______ ____
ROOT
ATOM      1  N   UNL     1      -4.694   4.148 128.277  0.00  0.00    +0.000 N 
ATOM      2  C   UNL     1      -5.121   2.869 128.618  0.00  0.00    +0.000 C 
ATOM      3  O   UNL     1      -5.050   1.913 127.832  0.00  0.00    +0.000 OA
ATOM      4  C   UNL     1      -5.588   2.661 130.061  0.00  0.00    +0.000 C 
ATOM      5  N   UNL     1      -6.849   3.349 130.241  0.00  0.00    +0.000 NA
ATOM      6  C   UNL     1      -6.855   4.626 130.361  0.00  0.00    +0.000 C 
ATOM      7  C   UNL     1      -5.667   5.503 130.169  0.00  0.00    +0.000 A 
ATOM      8  C   UNL     1      -5.594   6.662 130.965  0.00  0.00    +0.000 A 
ATOM      9  C   UNL     1      -4.578   7.595 130.779  0.00  0.00    +0.000 A 
ATOM     10  C   UNL     1      -3.629   7.388 129.792  0.00  0.00    +0.000 A 
ATOM     11  C   UNL     1      -3.695   6.248 128.994  0.00  0.00    +0.000 A 
ATOM     12  C   UNL     1      -4.698   5.273 129.169  0.00  0.00    +0.000 A 
ENDROOT
BRANCH   6  13
ATOM     13  C   UNL     1      -8.173   5.256 130.661  0.00  0.00    +0.000 A 
ATOM     14  C   UNL     1      -8.958   5.827 129.650  0.00  0.00    +0.000 A 
ATOM     15  C   UNL     1     -10.119   6.526 129.995  0.00  0.00    +0.000 A 
ATOM     16  C   UNL     1     -10.534   6.576 131.328  0.00  0.00    +0.000 A 
ATOM     17  C   UNL     1      -9.799   5.919 132.315  0.00  0.00    +0.000 A 
ATOM     18  C   UNL     1      -8.592   5.303 131.991  0.00  0.00    +0.000 A 
ENDBRANCH   6  13
BRANCH   4  19
ATOM     19  N   UNL     1      -5.833   1.254 130.244  0.00  0.00    +0.000 N 
ATOM     20  C   UNL     1      -4.942   0.513 130.980  0.00  0.00    +0.000 C 
ATOM     21  O   UNL     1      -3.898   0.998 131.410  0.00  0.00    +0.000 OA
ATOM     22  H   UNL     1      -6.733   0.899 129.935  0.00  0.00    +0.000 HD
BRANCH  20  23
ATOM     23  C   UNL     1      -5.325  -0.954 131.138  0.00  0.00    +0.000 C 
BRANCH  23  24
ATOM     24  N   UNL     1      -4.220  -1.944 130.924  0.00  0.00    +0.000 NA
ATOM     25  C   UNL     1      -4.479  -3.057 129.962  0.00  0.00    +0.000 C 
ATOM     26  C   UNL     1      -5.629  -3.998 130.390  0.00  0.00    +0.000 C 
ATOM     27  O   UNL     1      -5.389  -4.526 131.710  0.00  0.00    +0.000 OA
ATOM     28  C   UNL     1      -5.195  -3.449 132.639  0.00  0.00    +0.000 C 
ATOM     29  C   UNL     1      -3.973  -2.594 132.229  0.00  0.00    +0.000 C 
ENDBRANCH  23  24
ENDBRANCH  20  23
ENDBRANCH   4  19
BRANCH   1  30
ATOM     30  C   UNL     1      -4.214   4.342 126.909  0.00  0.00    +0.000 C 
BRANCH  30  32
ATOM     31  N   UNL     1      -5.729   3.498 125.182  0.00  0.00    +0.000 N 
ATOM     32  C   UNL     1      -5.381   4.599 125.925  0.00  0.00    +0.000 C 
ATOM     33  O   UNL     1      -6.002   5.649 125.847  0.00  0.00    +0.000 OA
ATOM     34  H   UNL     1      -5.044   2.757 125.077  0.00  0.00    +0.000 HD
BRANCH  31  35
ATOM     35  C   UNL     1      -7.018   3.336 124.484  0.00  0.00    +0.000 C 
BRANCH  35  37
ATOM     36  N   UNL     1      -7.669   1.854 126.346  0.00  0.00    +0.000 N 
ATOM     37  C   UNL     1      -8.134   2.661 125.335  0.00  0.00    +0.000 C 
ATOM     38  O   UNL     1      -9.325   2.789 125.139  0.00  0.00    +0.000 OA
ATOM     39  H   UNL     1      -8.375   1.272 126.779  0.00  0.00    +0.000 HD
ATOM     40  H   UNL     1      -6.781   1.382 126.176  0.00  0.00    +0.000 HD
ENDBRANCH  35  37
BRANCH  35  41
ATOM     41  C   UNL     1      -6.882   2.485 123.178  0.00  0.00    +0.000 C 
BRANCH  41  42
ATOM     42  C   UNL     1      -6.686   3.220 121.853  0.00  0.00    +0.000 A 
ATOM     43  C   UNL     1      -5.437   3.691 121.423  0.00  0.00    +0.000 A 
ATOM     44  C   UNL     1      -5.298   4.584 120.372  0.00  0.00    +0.000 A 
ATOM     45  C   UNL     1      -6.378   4.812 119.539  0.00  0.00    +0.000 A 
ATOM     46 CL   UNL     1      -6.082   5.746 118.121  0.00  0.00    +0.000 Cl
ATOM     47  C   UNL     1      -7.612   4.216 119.834  0.00  0.00    +0.000 A 
ATOM     48 CL   UNL     1      -8.963   4.361 118.770  0.00  0.00    +0.000 Cl
ATOM     49  C   UNL     1      -7.777   3.462 121.010  0.00  0.00    +0.000 A 
ENDBRANCH  41  42
ENDBRANCH  35  41
ENDBRANCH  31  35
ENDBRANCH  30  32
ENDBRANCH   1  30
TORSDOF 10
ENDMDL
MODEL 8
REMARK VINA RESULT:      -9.8      4.034      7.399
REMARK  Name = CHEMBL25942
REMARK  10 active torsions:
REMARK  status: ('A' for Active; 'I' for Inactive)
REMARK    1  A    between atoms: C_2  and  C_4
REMARK    2  A    between atoms: C_4  and  C_5
REMARK    3  A    between atoms: C_4  and  N_14
REMARK    4  A    between atoms: C_5  and  C_6
REMARK    5  A    between atoms: C_15  and  C_17
REMARK    6  A    between atoms: C_17  and  N_18
REMARK    7  A    between atoms: C_21  and  N_22
REMARK    8  A    between atoms: C_23  and  C_25
REMARK    9  A    between atoms: C_25  and  N_26
REMARK   10  A    between atoms: C_33  and  C_34
REMARK                            x       y       z     vdW  Elec       q    Type
REMARK                         _______ _______ _______ _____ _____    ______ ____
ROOT
ATOM      1  N   UNL     1      -7.304   1.977 131.300  0.00  0.00    +0.000 N 
ATOM      2  C   UNL     1      -8.054   2.984 130.702  0.00  0.00    +0.000 C 
ATOM      3  O   UNL     1      -9.222   2.808 130.327  0.00  0.00    +0.000 OA
ATOM      4  C   UNL     1      -7.408   4.370 130.623  0.00  0.00    +0.000 C 
ATOM      5  N   UNL     1      -6.330   4.320 129.658  0.00  0.00    +0.000 NA
ATOM      6  C   UNL     1      -5.223   3.758 129.981  0.00  0.00    +0.000 C 
ATOM      7  C   UNL     1      -4.995   2.991 131.238  0.00  0.00    +0.000 A 
ATOM      8  C   UNL     1      -3.705   3.052 131.796  0.00  0.00    +0.000 A 
ATOM      9  C   UNL     1      -3.369   2.283 132.907  0.00  0.00    +0.000 A 
ATOM     10  C   UNL     1      -4.313   1.438 133.467  0.00  0.00    +0.000 A 
ATOM     11  C   UNL     1      -5.591   1.366 132.918  0.00  0.00    +0.000 A 
ATOM     12  C   UNL     1      -5.971   2.145 131.807  0.00  0.00    +0.000 A 
ENDROOT
BRANCH   6  13
ATOM     13  C   UNL     1      -4.118   3.848 128.983  0.00  0.00    +0.000 A 
ATOM     14  C   UNL     1      -3.434   5.049 128.755  0.00  0.00    +0.000 A 
ATOM     15  C   UNL     1      -2.501   5.121 127.716  0.00  0.00    +0.000 A 
ATOM     16  C   UNL     1      -2.194   3.979 126.973  0.00  0.00    +0.000 A 
ATOM     17  C   UNL     1      -2.807   2.762 127.274  0.00  0.00    +0.000 A 
ATOM     18  C   UNL     1      -3.806   2.707 128.243  0.00  0.00    +0.000 A 
ENDBRANCH   6  13
BRANCH   4  19
ATOM     19  N   UNL     1      -8.397   5.286 130.120  0.00  0.00    +0.000 N 
ATOM     20  C   UNL     1      -8.868   6.277 130.946  0.00  0.00    +0.000 C 
ATOM     21  O   UNL     1      -8.534   6.347 132.126  0.00  0.00    +0.000 OA
ATOM     22  H   UNL     1      -8.601   5.245 129.126  0.00  0.00    +0.000 HD
BRANCH  20  23
ATOM     23  C   UNL     1      -9.881   7.210 130.294  0.00  0.00    +0.000 C 
BRANCH  23  24
ATOM     24  N   UNL     1     -10.654   6.634 129.145  0.00  0.00    +0.000 NA
ATOM     25  C   UNL     1     -11.024   7.565 128.037  0.00  0.00    +0.000 C 
ATOM     26  C   UNL     1     -11.967   8.711 128.472  0.00  0.00    +0.000 C 
ATOM     27  O   UNL     1     -13.154   8.182 129.096  0.00  0.00    +0.000 OA
ATOM     28  C   UNL     1     -12.791   7.332 130.195  0.00  0.00    +0.000 C 
ATOM     29  C   UNL     1     -11.935   6.144 129.699  0.00  0.00    +0.000 C 
ENDBRANCH  23  24
ENDBRANCH  20  23
ENDBRANCH   4  19
BRANCH   1  30
ATOM     30  C   UNL     1      -7.932   0.661 131.410  0.00  0.00    +0.000 C 
BRANCH  30  32
ATOM     31  N   UNL     1      -6.768  -1.214 130.352  0.00  0.00    +0.000 N 
ATOM     32  C   UNL     1      -7.674  -0.202 130.151  0.00  0.00    +0.000 C 
ATOM     33  O   UNL     1      -8.260  -0.067 129.086  0.00  0.00    +0.000 OA
ATOM     34  H   UNL     1      -6.124  -1.131 131.131  0.00  0.00    +0.000 HD
BRANCH  31  35
ATOM     35  C   UNL     1      -6.634  -2.400 129.485  0.00  0.00    +0.000 C 
BRANCH  35  37
ATOM     36  N   UNL     1      -4.411  -3.441 129.724  0.00  0.00    +0.000 N 
ATOM     37  C   UNL     1      -5.738  -3.531 130.069  0.00  0.00    +0.000 C 
ATOM     38  O   UNL     1      -6.142  -4.449 130.754  0.00  0.00    +0.000 OA
ATOM     39  H   UNL     1      -3.862  -4.264 129.940  0.00  0.00    +0.000 HD
ATOM     40  H   UNL     1      -4.207  -3.028 128.814  0.00  0.00    +0.000 HD
ENDBRANCH  35  37
BRANCH  35  41
ATOM     41  C   UNL     1      -6.039  -2.043 128.082  0.00  0.00    +0.000 C 
BRANCH  41  42
ATOM     42  C   UNL     1      -6.914  -2.258 126.850  0.00  0.00    +0.000 A 
ATOM     43  C   UNL     1      -8.237  -2.717 126.928  0.00  0.00    +0.000 A 
ATOM     44  C   UNL     1      -8.938  -3.169 125.821  0.00  0.00    +0.000 A 
ATOM     45  C   UNL     1      -8.435  -2.911 124.559  0.00  0.00    +0.000 A 
ATOM     46 CL   UNL     1      -9.457  -3.289 123.224  0.00  0.00    +0.000 Cl
ATOM     47  C   UNL     1      -7.185  -2.290 124.430  0.00  0.00    +0.000 A 
ATOM     48 CL   UNL     1      -6.559  -1.830 122.889  0.00  0.00    +0.000 Cl
ATOM     49  C   UNL     1      -6.409  -2.007 125.569  0.00  0.00    +0.000 A 
ENDBRANCH  41  42
ENDBRANCH  35  41
ENDBRANCH  31  35
ENDBRANCH  30  32
ENDBRANCH   1  30
TORSDOF 10
ENDMDL
MODEL 9
REMARK VINA RESULT:      -9.8      4.384      7.832
REMARK  Name = CHEMBL25942
REMARK  10 active torsions:
REMARK  status: ('A' for Active; 'I' for Inactive)
REMARK    1  A    between atoms: C_2  and  C_4
REMARK    2  A    between atoms: C_4  and  C_5
REMARK    3  A    between atoms: C_4  and  N_14
REMARK    4  A    between atoms: C_5  and  C_6
REMARK    5  A    between atoms: C_15  and  C_17
REMARK    6  A    between atoms: C_17  and  N_18
REMARK    7  A    between atoms: C_21  and  N_22
REMARK    8  A    between atoms: C_23  and  C_25
REMARK    9  A    between atoms: C_25  and  N_26
REMARK   10  A    between atoms: C_33  and  C_34
REMARK                            x       y       z     vdW  Elec       q    Type
REMARK                         _______ _______ _______ _____ _____    ______ ____
ROOT
ATOM      1  N   UNL     1      -7.807   2.770 132.324  0.00  0.00    +0.000 N 
ATOM      2  C   UNL     1      -8.694   3.220 131.352  0.00  0.00    +0.000 C 
ATOM      3  O   UNL     1      -9.403   2.448 130.691  0.00  0.00    +0.000 OA
ATOM      4  C   UNL     1      -8.842   4.737 131.204  0.00  0.00    +0.000 C 
ATOM      5  N   UNL     1      -7.624   5.263 130.625  0.00  0.00    +0.000 NA
ATOM      6  C   UNL     1      -6.578   5.378 131.360  0.00  0.00    +0.000 C 
ATOM      7  C   UNL     1      -6.456   4.857 132.750  0.00  0.00    +0.000 A 
ATOM      8  C   UNL     1      -5.656   5.597 133.640  0.00  0.00    +0.000 A 
ATOM      9  C   UNL     1      -5.396   5.131 134.926  0.00  0.00    +0.000 A 
ATOM     10  C   UNL     1      -5.922   3.916 135.335  0.00  0.00    +0.000 A 
ATOM     11  C   UNL     1      -6.710   3.172 134.459  0.00  0.00    +0.000 A 
ATOM     12  C   UNL     1      -7.010   3.625 133.159  0.00  0.00    +0.000 A 
ENDROOT
BRANCH   6  13
ATOM     13  C   UNL     1      -5.396   6.036 130.732  0.00  0.00    +0.000 A 
ATOM     14  C   UNL     1      -5.293   7.431 130.651  0.00  0.00    +0.000 A 
ATOM     15  C   UNL     1      -4.236   8.001 129.934  0.00  0.00    +0.000 A 
ATOM     16  C   UNL     1      -3.247   7.184 129.381  0.00  0.00    +0.000 A 
ATOM     17  C   UNL     1      -3.305   5.801 129.553  0.00  0.00    +0.000 A 
ATOM     18  C   UNL     1      -4.405   5.223 130.183  0.00  0.00    +0.000 A 
ENDBRANCH   6  13
BRANCH   4  19
ATOM     19  N   UNL     1      -9.907   4.984 130.268  0.00  0.00    +0.000 N 
ATOM     20  C   UNL     1     -10.914   5.850 130.618  0.00  0.00    +0.000 C 
ATOM     21  O   UNL     1     -10.976   6.349 131.739  0.00  0.00    +0.000 OA
ATOM     22  H   UNL     1      -9.792   4.612 129.330  0.00  0.00    +0.000 HD
BRANCH  20  23
ATOM     23  C   UNL     1     -11.964   6.063 129.535  0.00  0.00    +0.000 C 
BRANCH  23  24
ATOM     24  N   UNL     1     -11.540   6.909 128.371  0.00  0.00    +0.000 NA
ATOM     25  C   UNL     1     -11.263   8.352 128.643  0.00  0.00    +0.000 C 
ATOM     26  C   UNL     1     -12.496   9.142 129.138  0.00  0.00    +0.000 C 
ATOM     27  O   UNL     1     -13.590   9.010 128.209  0.00  0.00    +0.000 OA
ATOM     28  C   UNL     1     -13.887   7.622 127.995  0.00  0.00    +0.000 C 
ATOM     29  C   UNL     1     -12.658   6.893 127.404  0.00  0.00    +0.000 C 
ENDBRANCH  23  24
ENDBRANCH  20  23
ENDBRANCH   4  19
BRANCH   1  30
ATOM     30  C   UNL     1      -7.691   1.322 132.493  0.00  0.00    +0.000 C 
BRANCH  30  32
ATOM     31  N   UNL     1      -7.541   0.077 130.391  0.00  0.00    +0.000 N 
ATOM     32  C   UNL     1      -6.816   0.686 131.386  0.00  0.00    +0.000 C 
ATOM     33  O   UNL     1      -5.597   0.767 131.335  0.00  0.00    +0.000 OA
ATOM     34  H   UNL     1      -8.495  -0.199 130.597  0.00  0.00    +0.000 HD
BRANCH  31  35
ATOM     35  C   UNL     1      -7.013  -0.245 129.052  0.00  0.00    +0.000 C 
BRANCH  35  37
ATOM     36  N   UNL     1      -8.440   1.397 127.887  0.00  0.00    +0.000 N 
ATOM     37  C   UNL     1      -7.164   0.898 128.005  0.00  0.00    +0.000 C 
ATOM     38  O   UNL     1      -6.263   1.324 127.312  0.00  0.00    +0.000 OA
ATOM     39  H   UNL     1      -8.584   2.001 127.088  0.00  0.00    +0.000 HD
ATOM     40  H   UNL     1      -9.200   0.740 128.060  0.00  0.00    +0.000 HD
ENDBRANCH  35  37
BRANCH  35  41
ATOM     41  C   UNL     1      -7.701  -1.507 128.432  0.00  0.00    +0.000 C 
BRANCH  41  42
ATOM     42  C   UNL     1      -7.235  -1.981 127.057  0.00  0.00    +0.000 A 
ATOM     43  C   UNL     1      -5.884  -2.182 126.741  0.00  0.00    +0.000 A 
ATOM     44  C   UNL     1      -5.438  -2.345 125.439  0.00  0.00    +0.000 A 
ATOM     45  C   UNL     1      -6.362  -2.596 124.441  0.00  0.00    +0.000 A 
ATOM     46 CL   UNL     1      -5.737  -3.019 122.892  0.00  0.00    +0.000 Cl
ATOM     47  C   UNL     1      -7.729  -2.580 124.750  0.00  0.00    +0.000 A 
ATOM     48 CL   UNL     1      -8.925  -3.006 123.581  0.00  0.00    +0.000 Cl
ATOM     49  C   UNL     1      -8.165  -2.229 126.041  0.00  0.00    +0.000 A 
ENDBRANCH  41  42
ENDBRANCH  35  41
ENDBRANCH  31  35
ENDBRANCH  30  32
ENDBRANCH   1  30
TORSDOF 10
ENDMDL
