MODEL 1
REMARK VINA RESULT:      -9.2      0.000      0.000
REMARK  Name = CHEMBL382065
REMARK  14 active torsions:
REMARK  status: ('A' for Active; 'I' for Inactive)
REMARK    1  A    between atoms: CD1_1  and  CG_2
REMARK    2  A    between atoms: CG_2  and  CD2_3
REMARK    3  A    between atoms: CG_2  and  CB_4
REMARK    4  A    between atoms: CB_4  and  CA_5
REMARK    5  A    between atoms: C_9  and  C_10
REMARK    6  A    between atoms: N_21  and  C_22
REMARK    7  A    between atoms: C_22  and  C_23
REMARK    8  A    between atoms: C_22  and  C_30
REMARK    9  A    between atoms: N_25  and  C_26
REMARK   10  A    between atoms: C_26  and  C_27
REMARK   11  A    between atoms: C_26  and  C_28
REMARK   12  A    between atoms: C_26  and  C_29
REMARK   13  A    between atoms: C_33  and  N_34
REMARK   14  A    between atoms: N_37  and  C_38
REMARK                            x       y       z     vdW  Elec       q    Type
REMARK                         _______ _______ _______ _____ _____    ______ ____
ROOT
ATOM      1  CA  LEU A   2      -6.164   2.160 132.829  0.00  0.00    +0.000 C 
ATOM      2  C   LEU A   2      -5.027   1.243 133.293  0.00  0.00    +0.000 C 
ATOM      3  O   LEU A   2      -4.036   1.481 133.976  0.00  0.00    +0.000 OA
ATOM      4  N   UNK A   1      -5.012   0.057 132.657  0.00  0.00    +0.000 N 
ATOM      5  C   UNK A   1      -5.259   0.134 131.235  0.00  0.00    +0.000 C 
ATOM      6  C   UNK A   1      -5.272   1.570 130.645  0.00  0.00    +0.000 C 
ATOM      7  O   UNK A   1      -4.974   1.673 129.458  0.00  0.00    +0.000 OA
ATOM      8  N   LEU A   2      -5.680   2.618 131.496  0.00  0.00    +0.000 N 
ATOM      9  H   UNK A   1      -4.145  -0.367 132.965  0.00  0.00    +0.000 HD
ENDROOT
BRANCH   5  10
ATOM     10  C   UNK A   1      -4.192  -0.649 130.428  0.00  0.00    +0.000 C 
ATOM     11  C   UNK A   1      -4.851  -1.622 129.441  0.00  0.00    +0.000 C 
ATOM     12  C   UNK A   1      -4.895  -2.885 130.253  0.00  0.00    +0.000 A 
ATOM     13  C   UNK A   1      -5.780  -3.940 130.119  0.00  0.00    +0.000 A 
ATOM     14  C   UNK A   1      -5.746  -4.957 131.073  0.00  0.00    +0.000 A 
ATOM     15  C   UNK A   1      -4.847  -4.906 132.151  0.00  0.00    +0.000 A 
ATOM     16  C   UNK A   1      -3.976  -3.827 132.298  0.00  0.00    +0.000 A 
ATOM     17  C   UNK A   1      -4.010  -2.825 131.340  0.00  0.00    +0.000 A 
ATOM     18  C   UNK A   1      -3.275  -1.522 131.346  0.00  0.00    +0.000 C 
ENDBRANCH   5  10
BRANCH   1  19
ATOM     19  CB  LEU A   2      -6.616   3.168 133.871  0.00  0.00    +0.000 C 
BRANCH  19  21
ATOM     20  CD1 LEU A   2      -8.601   4.641 134.106  0.00  0.00    +0.000 C 
ATOM     21  CG  LEU A   2      -8.135   3.205 134.100  0.00  0.00    +0.000 C 
ATOM     22  CD2 LEU A   2      -9.017   2.555 133.042  0.00  0.00    +0.000 C 
ENDBRANCH  19  21
ENDBRANCH   1  19
BRANCH   8  23
ATOM     23  C   UNK A   0      -5.598   4.082 131.071  0.00  0.00    +0.000 C 
BRANCH  23  24
ATOM     24  C   UNK A   0      -6.984   4.738 130.770  0.00  0.00    +0.000 A 
ATOM     25  C   UNK A   0      -7.279   6.076 131.076  0.00  0.00    +0.000 A 
ATOM     26  C   UNK A   0      -8.499   6.668 130.812  0.00  0.00    +0.000 A 
ATOM     27  C   UNK A   0      -9.425   6.007 130.042  0.00  0.00    +0.000 A 
ATOM     28  C   UNK A   0      -9.166   4.681 129.687  0.00  0.00    +0.000 A 
ATOM     29  C   UNK A   0      -7.998   4.028 130.103  0.00  0.00    +0.000 A 
BRANCH  27  30
ATOM     30  N   UNK A   0     -10.532   6.655 129.578  0.00  0.00    +0.000 N 
ATOM     31  C   UNK A   0     -10.505   7.235 128.245  0.00  0.00    +0.000 C 
ATOM     32  C   UNK A   0     -11.230   8.588 128.296  0.00  0.00    +0.000 C 
ATOM     33  N   UNK A   0     -12.613   8.438 128.812  0.00  0.00    +0.000 NA
ATOM     34  C   UNK A   0     -13.307   9.715 128.789  0.00  0.00    +0.000 C 
ATOM     35  C   UNK A   0     -12.539   7.898 130.194  0.00  0.00    +0.000 C 
ATOM     36  C   UNK A   0     -11.835   6.521 130.231  0.00  0.00    +0.000 C 
ENDBRANCH  27  30
ENDBRANCH  23  24
BRANCH  23  37
ATOM     37  C   UNK A   0      -4.513   4.414 129.916  0.00  0.00    +0.000 C 
ATOM     38  O   UNK A   0      -3.294   4.548 130.134  0.00  0.00    +0.000 OA
ATOM     39  N   UNK A   0      -4.859   4.489 128.583  0.00  0.00    +0.000 N 
ATOM     40  H   UNK A   0      -5.548   3.819 128.297  0.00  0.00    +0.000 HD
BRANCH  39  41
ATOM     41  C   UNK A   0      -3.864   4.860 127.532  0.00  0.00    +0.000 C 
ATOM     42  C   UNK A   0      -4.403   4.385 126.177  0.00  0.00    +0.000 C 
ATOM     43  C   UNK A   0      -3.540   6.326 127.772  0.00  0.00    +0.000 C 
ATOM     44  C   UNK A   0      -2.475   4.179 127.547  0.00  0.00    +0.000 C 
ENDBRANCH  39  41
ENDBRANCH  23  37
ENDBRANCH   8  23
TORSDOF 8
ENDMDL
MODEL 2
REMARK VINA RESULT:      -8.8      3.456      6.864
REMARK  Name = CHEMBL382065
REMARK  14 active torsions:
REMARK  status: ('A' for Active; 'I' for Inactive)
REMARK    1  A    between atoms: CD1_1  and  CG_2
REMARK    2  A    between atoms: CG_2  and  CD2_3
REMARK    3  A    between atoms: CG_2  and  CB_4
REMARK    4  A    between atoms: CB_4  and  CA_5
REMARK    5  A    between atoms: C_9  and  C_10
REMARK    6  A    between atoms: N_21  and  C_22
REMARK    7  A    between atoms: C_22  and  C_23
REMARK    8  A    between atoms: C_22  and  C_30
REMARK    9  A    between atoms: N_25  and  C_26
REMARK   10  A    between atoms: C_26  and  C_27
REMARK   11  A    between atoms: C_26  and  C_28
REMARK   12  A    between atoms: C_26  and  C_29
REMARK   13  A    between atoms: C_33  and  N_34
REMARK   14  A    between atoms: N_37  and  C_38
REMARK                            x       y       z     vdW  Elec       q    Type
REMARK                         _______ _______ _______ _____ _____    ______ ____
ROOT
ATOM      1  CA  LEU A   2      -4.790   2.220 128.430  0.00  0.00    +0.000 C 
ATOM      2  C   LEU A   2      -5.700   1.095 127.922  0.00  0.00    +0.000 C 
ATOM      3  O   LEU A   2      -6.462   1.056 126.962  0.00  0.00    +0.000 OA
ATOM      4  N   UNK A   1      -5.841   0.090 128.805  0.00  0.00    +0.000 N 
ATOM      5  C   UNK A   1      -6.018   0.515 130.176  0.00  0.00    +0.000 C 
ATOM      6  C   UNK A   1      -6.243   2.038 130.370  0.00  0.00    +0.000 C 
ATOM      7  O   UNK A   1      -6.875   2.371 131.370  0.00  0.00    +0.000 OA
ATOM      8  N   LEU A   2      -5.659   2.908 129.427  0.00  0.00    +0.000 N 
ATOM      9  H   UNK A   1      -6.561  -0.490 128.392  0.00  0.00    +0.000 HD
ENDROOT
BRANCH   5  10
ATOM     10  C   UNK A   1      -7.233  -0.185 130.837  0.00  0.00    +0.000 C 
ATOM     11  C   UNK A   1      -6.840  -0.826 132.175  0.00  0.00    +0.000 C 
ATOM     12  C   UNK A   1      -6.503  -2.226 131.747  0.00  0.00    +0.000 A 
ATOM     13  C   UNK A   1      -5.645  -3.112 132.371  0.00  0.00    +0.000 A 
ATOM     14  C   UNK A   1      -5.353  -4.316 131.728  0.00  0.00    +0.000 A 
ATOM     15  C   UNK A   1      -5.905  -4.615 130.472  0.00  0.00    +0.000 A 
ATOM     16  C   UNK A   1      -6.748  -3.706 129.832  0.00  0.00    +0.000 A 
ATOM     17  C   UNK A   1      -7.039  -2.517 130.483  0.00  0.00    +0.000 A 
ATOM     18  C   UNK A   1      -7.803  -1.344 129.955  0.00  0.00    +0.000 C 
ENDBRANCH   5  10
BRANCH   1  19
ATOM     19  CB  LEU A   2      -4.106   3.012 127.330  0.00  0.00    +0.000 C 
BRANCH  19  21
ATOM     20  CD1 LEU A   2      -1.730   3.063 126.608  0.00  0.00    +0.000 C 
ATOM     21  CG  LEU A   2      -2.694   3.502 127.685  0.00  0.00    +0.000 C 
ATOM     22  CD2 LEU A   2      -2.475   5.008 127.757  0.00  0.00    +0.000 C 
ENDBRANCH  19  21
ENDBRANCH   1  19
BRANCH   8  23
ATOM     23  C   UNK A   0      -5.929   4.409 129.435  0.00  0.00    +0.000 C 
BRANCH  23  24
ATOM     24  C   UNK A   0      -4.949   5.230 130.333  0.00  0.00    +0.000 A 
ATOM     25  C   UNK A   0      -3.908   4.641 131.067  0.00  0.00    +0.000 A 
ATOM     26  C   UNK A   0      -3.033   5.356 131.861  0.00  0.00    +0.000 A 
ATOM     27  C   UNK A   0      -3.029   6.729 131.806  0.00  0.00    +0.000 A 
ATOM     28  C   UNK A   0      -4.029   7.365 131.066  0.00  0.00    +0.000 A 
ATOM     29  C   UNK A   0      -5.020   6.634 130.396  0.00  0.00    +0.000 A 
BRANCH  27  30
ATOM     30  N   UNK A   0      -2.031   7.445 132.398  0.00  0.00    +0.000 N 
ATOM     31  C   UNK A   0      -0.671   6.934 132.355  0.00  0.00    +0.000 C 
ATOM     32  C   UNK A   0      -0.014   7.203 133.716  0.00  0.00    +0.000 C 
ATOM     33  N   UNK A   0      -0.057   8.646 134.058  0.00  0.00    +0.000 NA
ATOM     34  C   UNK A   0       0.630   8.893 135.316  0.00  0.00    +0.000 C 
ATOM     35  C   UNK A   0      -1.480   9.064 134.139  0.00  0.00    +0.000 C 
ATOM     36  C   UNK A   0      -2.216   8.842 132.797  0.00  0.00    +0.000 C 
ENDBRANCH  27  30
ENDBRANCH  23  24
BRANCH  23  37
ATOM     37  C   UNK A   0      -7.471   4.839 129.681  0.00  0.00    +0.000 C 
ATOM     38  O   UNK A   0      -8.313   4.938 128.768  0.00  0.00    +0.000 OA
ATOM     39  N   UNK A   0      -7.983   5.048 130.945  0.00  0.00    +0.000 N 
ATOM     40  H   UNK A   0      -7.633   4.416 131.641  0.00  0.00    +0.000 HD
BRANCH  39  41
ATOM     41  C   UNK A   0      -9.388   5.507 131.158  0.00  0.00    +0.000 C 
ATOM     42  C   UNK A   0      -9.536   6.897 130.525  0.00  0.00    +0.000 C 
ATOM     43  C   UNK A   0     -10.270   4.351 130.716  0.00  0.00    +0.000 C 
ATOM     44  C   UNK A   0      -9.869   5.792 132.601  0.00  0.00    +0.000 C 
ENDBRANCH  39  41
ENDBRANCH  23  37
ENDBRANCH   8  23
TORSDOF 8
ENDMDL
MODEL 3
REMARK VINA RESULT:      -8.7      3.964      7.714
REMARK  Name = CHEMBL382065
REMARK  14 active torsions:
REMARK  status: ('A' for Active; 'I' for Inactive)
REMARK    1  A    between atoms: CD1_1  and  CG_2
REMARK    2  A    between atoms: CG_2  and  CD2_3
REMARK    3  A    between atoms: CG_2  and  CB_4
REMARK    4  A    between atoms: CB_4  and  CA_5
REMARK    5  A    between atoms: C_9  and  C_10
REMARK    6  A    between atoms: N_21  and  C_22
REMARK    7  A    between atoms: C_22  and  C_23
REMARK    8  A    between atoms: C_22  and  C_30
REMARK    9  A    between atoms: N_25  and  C_26
REMARK   10  A    between atoms: C_26  and  C_27
REMARK   11  A    between atoms: C_26  and  C_28
REMARK   12  A    between atoms: C_26  and  C_29
REMARK   13  A    between atoms: C_33  and  N_34
REMARK   14  A    between atoms: N_37  and  C_38
REMARK                            x       y       z     vdW  Elec       q    Type
REMARK                         _______ _______ _______ _____ _____    ______ ____
ROOT
ATOM      1  CA  LEU A   2      -4.966   3.270 126.944  0.00  0.00    +0.000 C 
ATOM      2  C   LEU A   2      -5.658   2.736 125.684  0.00  0.00    +0.000 C 
ATOM      3  O   LEU A   2      -6.320   3.316 124.830  0.00  0.00    +0.000 OA
ATOM      4  N   UNK A   1      -5.731   1.393 125.651  0.00  0.00    +0.000 N 
ATOM      5  C   UNK A   1      -6.087   0.778 126.910  0.00  0.00    +0.000 C 
ATOM      6  C   UNK A   1      -6.543   1.764 128.019  0.00  0.00    +0.000 C 
ATOM      7  O   UNK A   1      -7.301   1.309 128.872  0.00  0.00    +0.000 OA
ATOM      8  N   LEU A   2      -6.008   3.068 127.990  0.00  0.00    +0.000 N 
ATOM      9  H   UNK A   1      -6.323   1.207 124.850  0.00  0.00    +0.000 HD
ENDROOT
BRANCH   5  10
ATOM     10  C   UNK A   1      -7.244  -0.240 126.741  0.00  0.00    +0.000 C 
ATOM     11  C   UNK A   1      -6.725  -1.682 126.817  0.00  0.00    +0.000 C 
ATOM     12  C   UNK A   1      -6.490  -1.990 125.366  0.00  0.00    +0.000 A 
ATOM     13  C   UNK A   1      -5.599  -2.905 124.835  0.00  0.00    +0.000 A 
ATOM     14  C   UNK A   1      -5.425  -2.933 123.450  0.00  0.00    +0.000 A 
ATOM     15  C   UNK A   1      -6.127  -2.046 122.617  0.00  0.00    +0.000 A 
ATOM     16  C   UNK A   1      -7.003  -1.106 123.159  0.00  0.00    +0.000 A 
ATOM     17  C   UNK A   1      -7.175  -1.092 124.534  0.00  0.00    +0.000 A 
ATOM     18  C   UNK A   1      -7.952  -0.109 125.353  0.00  0.00    +0.000 C 
ENDBRANCH   5  10
BRANCH   1  19
ATOM     19  CB  LEU A   2      -4.307   4.626 126.766  0.00  0.00    +0.000 C 
BRANCH  19  21
ATOM     20  CD1 LEU A   2      -2.457   5.488 128.181  0.00  0.00    +0.000 C 
ATOM     21  CG  LEU A   2      -2.787   4.627 126.985  0.00  0.00    +0.000 C 
ATOM     22  CD2 LEU A   2      -2.129   3.294 127.322  0.00  0.00    +0.000 C 
ENDBRANCH  19  21
ENDBRANCH   1  19
BRANCH   8  23
ATOM     23  C   UNK A   0      -6.489   4.161 128.941  0.00  0.00    +0.000 C 
BRANCH  23  24
ATOM     24  C   UNK A   0      -5.449   4.557 130.038  0.00  0.00    +0.000 A 
ATOM     25  C   UNK A   0      -4.483   3.667 130.534  0.00  0.00    +0.000 A 
ATOM     26  C   UNK A   0      -3.558   4.005 131.501  0.00  0.00    +0.000 A 
ATOM     27  C   UNK A   0      -3.420   5.319 131.882  0.00  0.00    +0.000 A 
ATOM     28  C   UNK A   0      -4.340   6.250 131.395  0.00  0.00    +0.000 A 
ATOM     29  C   UNK A   0      -5.385   5.868 130.543  0.00  0.00    +0.000 A 
BRANCH  27  30
ATOM     30  N   UNK A   0      -2.367   5.710 132.657  0.00  0.00    +0.000 N 
ATOM     31  C   UNK A   0      -2.515   5.714 134.102  0.00  0.00    +0.000 C 
ATOM     32  C   UNK A   0      -1.811   6.963 134.653  0.00  0.00    +0.000 C 
ATOM     33  N   UNK A   0      -0.388   7.005 134.236  0.00  0.00    +0.000 NA
ATOM     34  C   UNK A   0       0.281   8.156 134.822  0.00  0.00    +0.000 C 
ATOM     35  C   UNK A   0      -0.337   7.059 132.753  0.00  0.00    +0.000 C 
ATOM     36  C   UNK A   0      -1.012   5.823 132.114  0.00  0.00    +0.000 C 
ENDBRANCH  27  30
ENDBRANCH  23  24
BRANCH  23  37
ATOM     37  C   UNK A   0      -7.967   3.941 129.566  0.00  0.00    +0.000 C 
ATOM     38  O   UNK A   0      -9.020   4.186 128.947  0.00  0.00    +0.000 OA
ATOM     39  N   UNK A   0      -8.162   3.382 130.811  0.00  0.00    +0.000 N 
ATOM     40  H   UNK A   0      -7.525   2.641 131.036  0.00  0.00    +0.000 HD
BRANCH  39  41
ATOM     41  C   UNK A   0      -9.525   3.243 131.406  0.00  0.00    +0.000 C 
ATOM     42  C   UNK A   0      -9.668   1.812 131.941  0.00  0.00    +0.000 C 
ATOM     43  C   UNK A   0      -9.696   4.441 132.326  0.00  0.00    +0.000 C 
ATOM     44  C   UNK A   0     -10.757   3.329 130.474  0.00  0.00    +0.000 C 
ENDBRANCH  39  41
ENDBRANCH  23  37
ENDBRANCH   8  23
TORSDOF 8
ENDMDL
MODEL 4
REMARK VINA RESULT:      -8.6      2.159      9.192
REMARK  Name = CHEMBL382065
REMARK  14 active torsions:
REMARK  status: ('A' for Active; 'I' for Inactive)
REMARK    1  A    between atoms: CD1_1  and  CG_2
REMARK    2  A    between atoms: CG_2  and  CD2_3
REMARK    3  A    between atoms: CG_2  and  CB_4
REMARK    4  A    between atoms: CB_4  and  CA_5
REMARK    5  A    between atoms: C_9  and  C_10
REMARK    6  A    between atoms: N_21  and  C_22
REMARK    7  A    between atoms: C_22  and  C_23
REMARK    8  A    between atoms: C_22  and  C_30
REMARK    9  A    between atoms: N_25  and  C_26
REMARK   10  A    between atoms: C_26  and  C_27
REMARK   11  A    between atoms: C_26  and  C_28
REMARK   12  A    between atoms: C_26  and  C_29
REMARK   13  A    between atoms: C_33  and  N_34
REMARK   14  A    between atoms: N_37  and  C_38
REMARK                            x       y       z     vdW  Elec       q    Type
REMARK                         _______ _______ _______ _____ _____    ______ ____
ROOT
ATOM      1  CA  LEU A   2      -7.731   2.639 129.285  0.00  0.00    +0.000 C 
ATOM      2  C   LEU A   2      -8.482   3.906 128.858  0.00  0.00    +0.000 C 
ATOM      3  O   LEU A   2      -8.350   4.618 127.868  0.00  0.00    +0.000 OA
ATOM      4  N   UNK A   1      -9.240   4.427 129.840  0.00  0.00    +0.000 N 
ATOM      5  C   UNK A   1      -8.611   4.439 131.143  0.00  0.00    +0.000 C 
ATOM      6  C   UNK A   1      -7.104   4.066 131.150  0.00  0.00    +0.000 C 
ATOM      7  O   UNK A   1      -6.435   4.530 132.070  0.00  0.00    +0.000 OA
ATOM      8  N   LEU A   2      -6.647   3.187 130.148  0.00  0.00    +0.000 N 
ATOM      9  H   UNK A   1      -9.551   5.311 129.457  0.00  0.00    +0.000 HD
ENDROOT
BRANCH   5  10
ATOM     10  C   UNK A   1      -8.710   5.834 131.810  0.00  0.00    +0.000 C 
ATOM     11  C   UNK A   1     -10.069   6.022 132.497  0.00  0.00    +0.000 C 
ATOM     12  C   UNK A   1     -10.862   6.691 131.411  0.00  0.00    +0.000 A 
ATOM     13  C   UNK A   1     -12.234   6.670 131.236  0.00  0.00    +0.000 A 
ATOM     14  C   UNK A   1     -12.762   7.234 130.074  0.00  0.00    +0.000 A 
ATOM     15  C   UNK A   1     -11.922   7.796 129.098  0.00  0.00    +0.000 A 
ATOM     16  C   UNK A   1     -10.537   7.789 129.265  0.00  0.00    +0.000 A 
ATOM     17  C   UNK A   1     -10.023   7.236 130.427  0.00  0.00    +0.000 A 
ATOM     18  C   UNK A   1      -8.587   6.999 130.774  0.00  0.00    +0.000 C 
ENDBRANCH   5  10
BRANCH   1  19
ATOM     19  CB  LEU A   2      -7.402   1.695 128.142  0.00  0.00    +0.000 C 
BRANCH  19  21
ATOM     20  CD1 LEU A   2      -6.779  -0.671 127.720  0.00  0.00    +0.000 C 
ATOM     21  CG  LEU A   2      -7.784   0.230 128.398  0.00  0.00    +0.000 C 
ATOM     22  CD2 LEU A   2      -7.768  -0.253 129.843  0.00  0.00    +0.000 C 
ENDBRANCH  19  21
ENDBRANCH   1  19
BRANCH   8  23
ATOM     23  C   UNK A   0      -5.166   2.862 129.972  0.00  0.00    +0.000 C 
BRANCH  23  24
ATOM     24  C   UNK A   0      -4.719   1.526 130.647  0.00  0.00    +0.000 A 
ATOM     25  C   UNK A   0      -4.984   1.222 131.992  0.00  0.00    +0.000 A 
ATOM     26  C   UNK A   0      -4.598   0.044 132.599  0.00  0.00    +0.000 A 
ATOM     27  C   UNK A   0      -4.097  -0.984 131.836  0.00  0.00    +0.000 A 
ATOM     28  C   UNK A   0      -3.841  -0.742 130.485  0.00  0.00    +0.000 A 
ATOM     29  C   UNK A   0      -4.078   0.514 129.909  0.00  0.00    +0.000 A 
BRANCH  27  30
ATOM     30  N   UNK A   0      -3.926  -2.227 132.372  0.00  0.00    +0.000 N 
ATOM     31  C   UNK A   0      -4.205  -3.395 131.553  0.00  0.00    +0.000 C 
ATOM     32  C   UNK A   0      -4.901  -4.443 132.434  0.00  0.00    +0.000 C 
ATOM     33  N   UNK A   0      -4.079  -4.778 133.622  0.00  0.00    +0.000 NA
ATOM     34  C   UNK A   0      -4.719  -5.820 134.407  0.00  0.00    +0.000 C 
ATOM     35  C   UNK A   0      -3.897  -3.542 134.426  0.00  0.00    +0.000 C 
ATOM     36  C   UNK A   0      -3.184  -2.435 133.616  0.00  0.00    +0.000 C 
ENDBRANCH  27  30
ENDBRANCH  23  24
BRANCH  23  37
ATOM     37  C   UNK A   0      -4.142   4.073 130.302  0.00  0.00    +0.000 C 
ATOM     38  O   UNK A   0      -3.127   3.942 131.012  0.00  0.00    +0.000 OA
ATOM     39  N   UNK A   0      -4.283   5.326 129.745  0.00  0.00    +0.000 N 
ATOM     40  H   UNK A   0      -4.594   5.322 128.792  0.00  0.00    +0.000 HD
BRANCH  39  41
ATOM     41  C   UNK A   0      -3.373   6.454 130.106  0.00  0.00    +0.000 C 
ATOM     42  C   UNK A   0      -2.167   6.416 129.158  0.00  0.00    +0.000 C 
ATOM     43  C   UNK A   0      -4.259   7.686 130.192  0.00  0.00    +0.000 C 
ATOM     44  C   UNK A   0      -2.662   6.428 131.481  0.00  0.00    +0.000 C 
ENDBRANCH  39  41
ENDBRANCH  23  37
ENDBRANCH   8  23
TORSDOF 8
ENDMDL
MODEL 5
REMARK VINA RESULT:      -8.6      3.087      8.382
REMARK  Name = CHEMBL382065
REMARK  14 active torsions:
REMARK  status: ('A' for Active; 'I' for Inactive)
REMARK    1  A    between atoms: CD1_1  and  CG_2
REMARK    2  A    between atoms: CG_2  and  CD2_3
REMARK    3  A    between atoms: CG_2  and  CB_4
REMARK    4  A    between atoms: CB_4  and  CA_5
REMARK    5  A    between atoms: C_9  and  C_10
REMARK    6  A    between atoms: N_21  and  C_22
REMARK    7  A    between atoms: C_22  and  C_23
REMARK    8  A    between atoms: C_22  and  C_30
REMARK    9  A    between atoms: N_25  and  C_26
REMARK   10  A    between atoms: C_26  and  C_27
REMARK   11  A    between atoms: C_26  and  C_28
REMARK   12  A    between atoms: C_26  and  C_29
REMARK   13  A    between atoms: C_33  and  N_34
REMARK   14  A    between atoms: N_37  and  C_38
REMARK                            x       y       z     vdW  Elec       q    Type
REMARK                         _______ _______ _______ _____ _____    ______ ____
ROOT
ATOM      1  CA  LEU A   2      -7.571   4.953 131.520  0.00  0.00    +0.000 C 
ATOM      2  C   LEU A   2      -7.357   6.454 131.284  0.00  0.00    +0.000 C 
ATOM      3  O   LEU A   2      -8.085   7.292 130.764  0.00  0.00    +0.000 OA
ATOM      4  N   UNK A   1      -6.083   6.842 131.479  0.00  0.00    +0.000 N 
ATOM      5  C   UNK A   1      -5.090   5.941 130.939  0.00  0.00    +0.000 C 
ATOM      6  C   UNK A   1      -5.650   4.808 130.037  0.00  0.00    +0.000 C 
ATOM      7  O   UNK A   1      -4.882   4.360 129.188  0.00  0.00    +0.000 OA
ATOM      8  N   LEU A   2      -6.956   4.349 130.304  0.00  0.00    +0.000 N 
ATOM      9  H   UNK A   1      -6.076   7.802 131.157  0.00  0.00    +0.000 HD
ENDROOT
BRANCH   5  10
ATOM     10  C   UNK A   1      -4.044   6.695 130.078  0.00  0.00    +0.000 C 
ATOM     11  C   UNK A   1      -2.669   6.018 130.163  0.00  0.00    +0.000 C 
ATOM     12  C   UNK A   1      -2.028   6.786 131.283  0.00  0.00    +0.000 A 
ATOM     13  C   UNK A   1      -1.026   6.354 132.133  0.00  0.00    +0.000 A 
ATOM     14  C   UNK A   1      -0.671   7.171 133.207  0.00  0.00    +0.000 A 
ATOM     15  C   UNK A   1      -1.323   8.395 133.429  0.00  0.00    +0.000 A 
ATOM     16  C   UNK A   1      -2.352   8.814 132.586  0.00  0.00    +0.000 A 
ATOM     17  C   UNK A   1      -2.692   8.000 131.516  0.00  0.00    +0.000 A 
ATOM     18  C   UNK A   1      -3.829   8.167 130.559  0.00  0.00    +0.000 C 
ENDBRANCH   5  10
BRANCH   1  19
ATOM     19  CB  LEU A   2      -8.984   4.583 131.931  0.00  0.00    +0.000 C 
BRANCH  19  21
ATOM     20  CD1 LEU A   2      -9.653   2.240 132.411  0.00  0.00    +0.000 C 
ATOM     21  CG  LEU A   2      -9.066   3.495 133.012  0.00  0.00    +0.000 C 
ATOM     22  CD2 LEU A   2      -7.754   3.012 133.617  0.00  0.00    +0.000 C 
ENDBRANCH  19  21
ENDBRANCH   1  19
BRANCH   8  23
ATOM     23  C   UNK A   0      -7.660   3.342 129.399  0.00  0.00    +0.000 C 
BRANCH  23  24
ATOM     24  C   UNK A   0      -7.275   1.854 129.677  0.00  0.00    +0.000 A 
ATOM     25  C   UNK A   0      -6.226   1.481 130.531  0.00  0.00    +0.000 A 
ATOM     26  C   UNK A   0      -5.878   0.170 130.787  0.00  0.00    +0.000 A 
ATOM     27  C   UNK A   0      -6.694  -0.848 130.356  0.00  0.00    +0.000 A 
ATOM     28  C   UNK A   0      -7.770  -0.528 129.525  0.00  0.00    +0.000 A 
ATOM     29  C   UNK A   0      -8.020   0.794 129.129  0.00  0.00    +0.000 A 
BRANCH  27  30
ATOM     30  N   UNK A   0      -6.499  -2.127 130.791  0.00  0.00    +0.000 N 
ATOM     31  C   UNK A   0      -7.197  -2.584 131.980  0.00  0.00    +0.000 C 
ATOM     32  C   UNK A   0      -6.231  -3.454 132.798  0.00  0.00    +0.000 C 
ATOM     33  N   UNK A   0      -5.707  -4.582 131.990  0.00  0.00    +0.000 NA
ATOM     34  C   UNK A   0      -4.849  -5.433 132.798  0.00  0.00    +0.000 C 
ATOM     35  C   UNK A   0      -4.961  -4.020 130.834  0.00  0.00    +0.000 C 
ATOM     36  C   UNK A   0      -5.869  -3.141 129.943  0.00  0.00    +0.000 C 
ENDBRANCH  27  30
ENDBRANCH  23  24
BRANCH  23  37
ATOM     37  C   UNK A   0      -7.627   3.685 127.816  0.00  0.00    +0.000 C 
ATOM     38  O   UNK A   0      -8.344   4.554 127.284  0.00  0.00    +0.000 OA
ATOM     39  N   UNK A   0      -6.732   3.088 126.954  0.00  0.00    +0.000 N 
ATOM     40  H   UNK A   0      -5.820   2.937 127.344  0.00  0.00    +0.000 HD
BRANCH  39  41
ATOM     41  C   UNK A   0      -6.752   3.362 125.486  0.00  0.00    +0.000 C 
ATOM     42  C   UNK A   0      -5.985   4.666 125.233  0.00  0.00    +0.000 C 
ATOM     43  C   UNK A   0      -6.325   2.064 124.819  0.00  0.00    +0.000 C 
ATOM     44  C   UNK A   0      -8.104   3.684 124.806  0.00  0.00    +0.000 C 
ENDBRANCH  39  41
ENDBRANCH  23  37
ENDBRANCH   8  23
TORSDOF 8
ENDMDL
MODEL 6
REMARK VINA RESULT:      -8.6      3.233      4.158
REMARK  Name = CHEMBL382065
REMARK  14 active torsions:
REMARK  status: ('A' for Active; 'I' for Inactive)
REMARK    1  A    between atoms: CD1_1  and  CG_2
REMARK    2  A    between atoms: CG_2  and  CD2_3
REMARK    3  A    between atoms: CG_2  and  CB_4
REMARK    4  A    between atoms: CB_4  and  CA_5
REMARK    5  A    between atoms: C_9  and  C_10
REMARK    6  A    between atoms: N_21  and  C_22
REMARK    7  A    between atoms: C_22  and  C_23
REMARK    8  A    between atoms: C_22  and  C_30
REMARK    9  A    between atoms: N_25  and  C_26
REMARK   10  A    between atoms: C_26  and  C_27
REMARK   11  A    between atoms: C_26  and  C_28
REMARK   12  A    between atoms: C_26  and  C_29
REMARK   13  A    between atoms: C_33  and  N_34
REMARK   14  A    between atoms: N_37  and  C_38
REMARK                            x       y       z     vdW  Elec       q    Type
REMARK                         _______ _______ _______ _____ _____    ______ ____
ROOT
ATOM      1  CA  LEU A   2      -7.450   0.177 129.691  0.00  0.00    +0.000 C 
ATOM      2  C   LEU A   2      -6.701  -0.598 128.600  0.00  0.00    +0.000 C 
ATOM      3  O   LEU A   2      -5.503  -0.822 128.458  0.00  0.00    +0.000 OA
ATOM      4  N   UNK A   1      -7.466  -0.871 127.527  0.00  0.00    +0.000 N 
ATOM      5  C   UNK A   1      -8.313   0.220 127.099  0.00  0.00    +0.000 C 
ATOM      6  C   UNK A   1      -8.037   1.580 127.795  0.00  0.00    +0.000 C 
ATOM      7  O   UNK A   1      -8.336   2.587 127.157  0.00  0.00    +0.000 OA
ATOM      8  N   LEU A   2      -7.531   1.547 129.110  0.00  0.00    +0.000 N 
ATOM      9  H   UNK A   1      -6.808  -1.251 126.857  0.00  0.00    +0.000 HD
ENDROOT
BRANCH   5  10
ATOM     10  C   UNK A   1      -8.178   0.483 125.578  0.00  0.00    +0.000 C 
ATOM     11  C   UNK A   1      -8.963  -0.556 124.766  0.00  0.00    +0.000 C 
ATOM     12  C   UNK A   1      -7.903  -1.585 124.494  0.00  0.00    +0.000 A 
ATOM     13  C   UNK A   1      -8.083  -2.934 124.252  0.00  0.00    +0.000 A 
ATOM     14  C   UNK A   1      -6.953  -3.749 124.170  0.00  0.00    +0.000 A 
ATOM     15  C   UNK A   1      -5.665  -3.217 124.344  0.00  0.00    +0.000 A 
ATOM     16  C   UNK A   1      -5.489  -1.860 124.616  0.00  0.00    +0.000 A 
ATOM     17  C   UNK A   1      -6.617  -1.057 124.687  0.00  0.00    +0.000 A 
ATOM     18  C   UNK A   1      -6.697   0.383 125.086  0.00  0.00    +0.000 C 
ENDBRANCH   5  10
BRANCH   1  19
ATOM     19  CB  LEU A   2      -6.902  -0.033 131.092  0.00  0.00    +0.000 C 
BRANCH  19  21
ATOM     20  CD1 LEU A   2      -7.643   1.391 132.986  0.00  0.00    +0.000 C 
ATOM     21  CG  LEU A   2      -7.941   0.130 132.211  0.00  0.00    +0.000 C 
ATOM     22  CD2 LEU A   2      -9.395   0.312 131.792  0.00  0.00    +0.000 C 
ENDBRANCH  19  21
ENDBRANCH   1  19
BRANCH   8  23
ATOM     23  C   UNK A   0      -7.091   2.813 129.839  0.00  0.00    +0.000 C 
BRANCH  23  24
ATOM     24  C   UNK A   0      -8.213   3.891 129.983  0.00  0.00    +0.000 A 
ATOM     25  C   UNK A   0      -8.021   5.244 129.663  0.00  0.00    +0.000 A 
ATOM     26  C   UNK A   0      -9.005   6.205 129.783  0.00  0.00    +0.000 A 
ATOM     27  C   UNK A   0     -10.300   5.825 130.043  0.00  0.00    +0.000 A 
ATOM     28  C   UNK A   0     -10.550   4.484 130.341  0.00  0.00    +0.000 A 
ATOM     29  C   UNK A   0      -9.515   3.539 130.384  0.00  0.00    +0.000 A 
BRANCH  27  30
ATOM     30  N   UNK A   0     -11.321   6.723 129.937  0.00  0.00    +0.000 N 
ATOM     31  C   UNK A   0     -11.582   7.351 128.653  0.00  0.00    +0.000 C 
ATOM     32  C   UNK A   0     -11.933   8.825 128.902  0.00  0.00    +0.000 C 
ATOM     33  N   UNK A   0     -13.082   8.955 129.831  0.00  0.00    +0.000 NA
ATOM     34  C   UNK A   0     -13.444  10.353 130.001  0.00  0.00    +0.000 C 
ATOM     35  C   UNK A   0     -12.704   8.341 131.130  0.00  0.00    +0.000 C 
ATOM     36  C   UNK A   0     -12.351   6.845 130.971  0.00  0.00    +0.000 C 
ENDBRANCH  27  30
ENDBRANCH  23  24
BRANCH  23  37
ATOM     37  C   UNK A   0      -5.697   3.463 129.330  0.00  0.00    +0.000 C 
ATOM     38  O   UNK A   0      -4.789   3.832 130.098  0.00  0.00    +0.000 OA
ATOM     39  N   UNK A   0      -5.385   3.575 127.992  0.00  0.00    +0.000 N 
ATOM     40  H   UNK A   0      -5.688   2.801 127.431  0.00  0.00    +0.000 HD
BRANCH  39  41
ATOM     41  C   UNK A   0      -4.126   4.235 127.531  0.00  0.00    +0.000 C 
ATOM     42  C   UNK A   0      -3.876   3.818 126.076  0.00  0.00    +0.000 C 
ATOM     43  C   UNK A   0      -4.268   5.700 127.910  0.00  0.00    +0.000 C 
ATOM     44  C   UNK A   0      -2.786   3.823 128.186  0.00  0.00    +0.000 C 
ENDBRANCH  39  41
ENDBRANCH  23  37
ENDBRANCH   8  23
TORSDOF 8
ENDMDL
MODEL 7
REMARK VINA RESULT:      -8.5      2.741      9.374
REMARK  Name = CHEMBL382065
REMARK  14 active torsions:
REMARK  status: ('A' for Active; 'I' for Inactive)
REMARK    1  A    between atoms: CD1_1  and  CG_2
REMARK    2  A    between atoms: CG_2  and  CD2_3
REMARK    3  A    between atoms: CG_2  and  CB_4
REMARK    4  A    between atoms: CB_4  and  CA_5
REMARK    5  A    between atoms: C_9  and  C_10
REMARK    6  A    between atoms: N_21  and  C_22
REMARK    7  A    between atoms: C_22  and  C_23
REMARK    8  A    between atoms: C_22  and  C_30
REMARK    9  A    between atoms: N_25  and  C_26
REMARK   10  A    between atoms: C_26  and  C_27
REMARK   11  A    between atoms: C_26  and  C_28
REMARK   12  A    between atoms: C_26  and  C_29
REMARK   13  A    between atoms: C_33  and  N_34
REMARK   14  A    between atoms: N_37  and  C_38
REMARK                            x       y       z     vdW  Elec       q    Type
REMARK                         _______ _______ _______ _____ _____    ______ ____
ROOT
ATOM      1  CA  LEU A   2      -7.863   2.754 129.136  0.00  0.00    +0.000 C 
ATOM      2  C   LEU A   2      -8.028   4.171 128.573  0.00  0.00    +0.000 C 
ATOM      3  O   LEU A   2      -7.281   4.843 127.869  0.00  0.00    +0.000 OA
ATOM      4  N   UNK A   1      -9.049   4.846 129.132  0.00  0.00    +0.000 N 
ATOM      5  C   UNK A   1      -9.161   4.688 130.565  0.00  0.00    +0.000 C 
ATOM      6  C   UNK A   1      -7.967   3.962 131.244  0.00  0.00    +0.000 C 
ATOM      7  O   UNK A   1      -7.763   4.238 132.423  0.00  0.00    +0.000 OA
ATOM      8  N   LEU A   2      -7.263   3.012 130.476  0.00  0.00    +0.000 N 
ATOM      9  H   UNK A   1      -8.942   5.784 128.766  0.00  0.00    +0.000 HD
ENDROOT
BRANCH   5  10
ATOM     10  C   UNK A   1      -9.291   6.057 131.281  0.00  0.00    +0.000 C 
ATOM     11  C   UNK A   1     -10.726   6.288 131.772  0.00  0.00    +0.000 C 
ATOM     12  C   UNK A   1     -11.318   7.045 130.617  0.00  0.00    +0.000 A 
ATOM     13  C   UNK A   1     -12.648   7.105 130.245  0.00  0.00    +0.000 A 
ATOM     14  C   UNK A   1     -12.972   7.746 129.048  0.00  0.00    +0.000 A 
ATOM     15  C   UNK A   1     -11.972   8.303 128.234  0.00  0.00    +0.000 A 
ATOM     16  C   UNK A   1     -10.629   8.215 128.599  0.00  0.00    +0.000 A 
ATOM     17  C   UNK A   1     -10.318   7.585 129.794  0.00  0.00    +0.000 A 
ATOM     18  C   UNK A   1      -8.962   7.256 130.334  0.00  0.00    +0.000 C 
ENDBRANCH   5  10
BRANCH   1  19
ATOM     19  CB  LEU A   2      -7.210   1.775 128.177  0.00  0.00    +0.000 C 
BRANCH  19  21
ATOM     20  CD1 LEU A   2      -8.229   0.019 126.746  0.00  0.00    +0.000 C 
ATOM     21  CG  LEU A   2      -7.849   0.378 128.163  0.00  0.00    +0.000 C 
ATOM     22  CD2 LEU A   2      -6.978  -0.793 128.599  0.00  0.00    +0.000 C 
ENDBRANCH  19  21
ENDBRANCH   1  19
BRANCH   8  23
ATOM     23  C   UNK A   0      -5.991   2.342 130.988  0.00  0.00    +0.000 C 
BRANCH  23  24
ATOM     24  C   UNK A   0      -6.237   1.001 131.750  0.00  0.00    +0.000 A 
ATOM     25  C   UNK A   0      -7.519   0.493 132.011  0.00  0.00    +0.000 A 
ATOM     26  C   UNK A   0      -7.750  -0.693 132.681  0.00  0.00    +0.000 A 
ATOM     27  C   UNK A   0      -6.700  -1.537 132.953  0.00  0.00    +0.000 A 
ATOM     28  C   UNK A   0      -5.404  -1.090 132.686  0.00  0.00    +0.000 A 
ATOM     29  C   UNK A   0      -5.165   0.188 132.160  0.00  0.00    +0.000 A 
BRANCH  27  30
ATOM     30  N   UNK A   0      -6.927  -2.806 133.401  0.00  0.00    +0.000 N 
ATOM     31  C   UNK A   0      -8.178  -3.103 134.077  0.00  0.00    +0.000 C 
ATOM     32  C   UNK A   0      -7.875  -4.050 135.249  0.00  0.00    +0.000 C 
ATOM     33  N   UNK A   0      -7.186  -5.278 134.784  0.00  0.00    +0.000 NA
ATOM     34  C   UNK A   0      -6.969  -6.192 135.893  0.00  0.00    +0.000 C 
ATOM     35  C   UNK A   0      -5.896  -4.882 134.161  0.00  0.00    +0.000 C 
ATOM     36  C   UNK A   0      -6.112  -3.938 132.956  0.00  0.00    +0.000 C 
ENDBRANCH  27  30
ENDBRANCH  23  24
BRANCH  23  37
ATOM     37  C   UNK A   0      -4.967   3.309 131.789  0.00  0.00    +0.000 C 
ATOM     38  O   UNK A   0      -4.904   3.366 133.032  0.00  0.00    +0.000 OA
ATOM     39  N   UNK A   0      -4.028   4.082 131.140  0.00  0.00    +0.000 N 
ATOM     40  H   UNK A   0      -3.612   3.642 130.341  0.00  0.00    +0.000 HD
BRANCH  39  41
ATOM     41  C   UNK A   0      -3.133   5.019 131.883  0.00  0.00    +0.000 C 
ATOM     42  C   UNK A   0      -4.009   6.087 132.551  0.00  0.00    +0.000 C 
ATOM     43  C   UNK A   0      -2.211   4.137 132.710  0.00  0.00    +0.000 C 
ATOM     44  C   UNK A   0      -2.153   5.908 131.081  0.00  0.00    +0.000 C 
ENDBRANCH  39  41
ENDBRANCH  23  37
ENDBRANCH   8  23
TORSDOF 8
ENDMDL
MODEL 8
REMARK VINA RESULT:      -8.4      3.638      6.948
REMARK  Name = CHEMBL382065
REMARK  14 active torsions:
REMARK  status: ('A' for Active; 'I' for Inactive)
REMARK    1  A    between atoms: CD1_1  and  CG_2
REMARK    2  A    between atoms: CG_2  and  CD2_3
REMARK    3  A    between atoms: CG_2  and  CB_4
REMARK    4  A    between atoms: CB_4  and  CA_5
REMARK    5  A    between atoms: C_9  and  C_10
REMARK    6  A    between atoms: N_21  and  C_22
REMARK    7  A    between atoms: C_22  and  C_23
REMARK    8  A    between atoms: C_22  and  C_30
REMARK    9  A    between atoms: N_25  and  C_26
REMARK   10  A    between atoms: C_26  and  C_27
REMARK   11  A    between atoms: C_26  and  C_28
REMARK   12  A    between atoms: C_26  and  C_29
REMARK   13  A    between atoms: C_33  and  N_34
REMARK   14  A    between atoms: N_37  and  C_38
REMARK                            x       y       z     vdW  Elec       q    Type
REMARK                         _______ _______ _______ _____ _____    ______ ____
ROOT
ATOM      1  CA  LEU A   2      -8.947   2.906 129.481  0.00  0.00    +0.000 C 
ATOM      2  C   LEU A   2      -7.598   2.201 129.296  0.00  0.00    +0.000 C 
ATOM      3  O   LEU A   2      -6.624   2.130 130.039  0.00  0.00    +0.000 OA
ATOM      4  N   UNK A   1      -7.383   1.797 128.030  0.00  0.00    +0.000 N 
ATOM      5  C   UNK A   1      -7.772   2.754 127.019  0.00  0.00    +0.000 C 
ATOM      6  C   UNK A   1      -8.154   4.160 127.555  0.00  0.00    +0.000 C 
ATOM      7  O   UNK A   1      -7.998   5.099 126.778  0.00  0.00    +0.000 OA
ATOM      8  N   LEU A   2      -8.700   4.235 128.852  0.00  0.00    +0.000 N 
ATOM      9  H   UNK A   1      -6.419   1.484 128.042  0.00  0.00    +0.000 HD
ENDROOT
BRANCH   5  10
ATOM     10  C   UNK A   1      -6.639   2.984 125.987  0.00  0.00    +0.000 C 
ATOM     11  C   UNK A   1      -7.091   2.588 124.574  0.00  0.00    +0.000 C 
ATOM     12  C   UNK A   1      -6.618   1.165 124.498  0.00  0.00    +0.000 A 
ATOM     13  C   UNK A   1      -7.135   0.148 123.715  0.00  0.00    +0.000 A 
ATOM     14  C   UNK A   1      -6.646  -1.145 123.903  0.00  0.00    +0.000 A 
ATOM     15  C   UNK A   1      -5.665  -1.413 124.872  0.00  0.00    +0.000 A 
ATOM     16  C   UNK A   1      -5.167  -0.390 125.679  0.00  0.00    +0.000 A 
ATOM     17  C   UNK A   1      -5.652   0.893 125.479  0.00  0.00    +0.000 A 
ATOM     18  C   UNK A   1      -5.372   2.118 126.291  0.00  0.00    +0.000 C 
ENDBRANCH   5  10
BRANCH   1  19
ATOM     19  CB  LEU A   2      -9.510   2.814 130.888  0.00  0.00    +0.000 C 
BRANCH  19  21
ATOM     20  CD1 LEU A   2      -8.720   2.439 133.213  0.00  0.00    +0.000 C 
ATOM     21  CG  LEU A   2      -8.742   1.861 131.817  0.00  0.00    +0.000 C 
ATOM     22  CD2 LEU A   2      -9.324   0.468 132.024  0.00  0.00    +0.000 C 
ENDBRANCH  19  21
ENDBRANCH   1  19
BRANCH   8  23
ATOM     23  C   UNK A   0      -8.981   5.570 129.536  0.00  0.00    +0.000 C 
BRANCH  23  24
ATOM     24  C   UNK A   0      -8.286   5.737 130.924  0.00  0.00    +0.000 A 
ATOM     25  C   UNK A   0      -8.999   5.901 132.123  0.00  0.00    +0.000 A 
ATOM     26  C   UNK A   0      -8.396   6.047 133.357  0.00  0.00    +0.000 A 
ATOM     27  C   UNK A   0      -7.044   5.834 133.484  0.00  0.00    +0.000 A 
ATOM     28  C   UNK A   0      -6.292   5.637 132.323  0.00  0.00    +0.000 A 
ATOM     29  C   UNK A   0      -6.887   5.660 131.054  0.00  0.00    +0.000 A 
BRANCH  27  30
ATOM     30  N   UNK A   0      -6.468   5.743 134.717  0.00  0.00    +0.000 N 
ATOM     31  C   UNK A   0      -7.305   5.449 135.869  0.00  0.00    +0.000 C 
ATOM     32  C   UNK A   0      -6.817   6.306 137.046  0.00  0.00    +0.000 C 
ATOM     33  N   UNK A   0      -5.380   6.069 137.325  0.00  0.00    +0.000 NA
ATOM     34  C   UNK A   0      -4.952   6.834 138.485  0.00  0.00    +0.000 C 
ATOM     35  C   UNK A   0      -4.601   6.451 136.119  0.00  0.00    +0.000 C 
ATOM     36  C   UNK A   0      -5.019   5.619 134.884  0.00  0.00    +0.000 C 
ENDBRANCH  27  30
ENDBRANCH  23  24
BRANCH  23  37
ATOM     37  C   UNK A   0     -10.539   6.013 129.587  0.00  0.00    +0.000 C 
ATOM     38  O   UNK A   0     -11.479   5.208 129.725  0.00  0.00    +0.000 OA
ATOM     39  N   UNK A   0     -10.927   7.336 129.566  0.00  0.00    +0.000 N 
ATOM     40  H   UNK A   0     -10.324   7.952 130.079  0.00  0.00    +0.000 HD
BRANCH  39  41
ATOM     41  C   UNK A   0     -12.367   7.732 129.548  0.00  0.00    +0.000 C 
ATOM     42  C   UNK A   0     -13.014   7.120 128.298  0.00  0.00    +0.000 C 
ATOM     43  C   UNK A   0     -12.898   7.415 130.936  0.00  0.00    +0.000 C 
ATOM     44  C   UNK A   0     -12.727   9.225 129.360  0.00  0.00    +0.000 C 
ENDBRANCH  39  41
ENDBRANCH  23  37
ENDBRANCH   8  23
TORSDOF 8
ENDMDL
MODEL 9
REMARK VINA RESULT:      -8.4      3.120      5.229
REMARK  Name = CHEMBL382065
REMARK  14 active torsions:
REMARK  status: ('A' for Active; 'I' for Inactive)
REMARK    1  A    between atoms: CD1_1  and  CG_2
REMARK    2  A    between atoms: CG_2  and  CD2_3
REMARK    3  A    between atoms: CG_2  and  CB_4
REMARK    4  A    between atoms: CB_4  and  CA_5
REMARK    5  A    between atoms: C_9  and  C_10
REMARK    6  A    between atoms: N_21  and  C_22
REMARK    7  A    between atoms: C_22  and  C_23
REMARK    8  A    between atoms: C_22  and  C_30
REMARK    9  A    between atoms: N_25  and  C_26
REMARK   10  A    between atoms: C_26  and  C_27
REMARK   11  A    between atoms: C_26  and  C_28
REMARK   12  A    between atoms: C_26  and  C_29
REMARK   13  A    between atoms: C_33  and  N_34
REMARK   14  A    between atoms: N_37  and  C_38
REMARK                            x       y       z     vdW  Elec       q    Type
REMARK                         _______ _______ _______ _____ _____    ______ ____
ROOT
ATOM      1  CA  LEU A   2      -4.780   2.121 128.189  0.00  0.00    +0.000 C 
ATOM      2  C   LEU A   2      -5.570   2.166 126.875  0.00  0.00    +0.000 C 
ATOM      3  O   LEU A   2      -6.262   3.055 126.389  0.00  0.00    +0.000 OA
ATOM      4  N   UNK A   1      -5.694   0.960 126.292  0.00  0.00    +0.000 N 
ATOM      5  C   UNK A   1      -5.992  -0.121 127.205  0.00  0.00    +0.000 C 
ATOM      6  C   UNK A   1      -6.341   0.317 128.653  0.00  0.00    +0.000 C 
ATOM      7  O   UNK A   1      -7.060  -0.447 129.293  0.00  0.00    +0.000 OA
ATOM      8  N   LEU A   2      -5.761   1.510 129.130  0.00  0.00    +0.000 N 
ATOM      9  H   UNK A   1      -6.341   1.130 125.532  0.00  0.00    +0.000 HD
ENDROOT
BRANCH   5  10
ATOM     10  C   UNK A   1      -7.194  -0.967 126.713  0.00  0.00    +0.000 C 
ATOM     11  C   UNK A   1      -6.796  -2.439 126.534  0.00  0.00    +0.000 C 
ATOM     12  C   UNK A   1      -6.418  -2.470 125.081  0.00  0.00    +0.000 A 
ATOM     13  C   UNK A   1      -5.542  -3.341 124.459  0.00  0.00    +0.000 A 
ATOM     14  C   UNK A   1      -5.213  -3.107 123.123  0.00  0.00    +0.000 A 
ATOM     15  C   UNK A   1      -5.745  -2.007 122.431  0.00  0.00    +0.000 A 
ATOM     16  C   UNK A   1      -6.606  -1.115 123.070  0.00  0.00    +0.000 A 
ATOM     17  C   UNK A   1      -6.935  -1.361 124.394  0.00  0.00    +0.000 A 
ATOM     18  C   UNK A   1      -7.725  -0.493 125.321  0.00  0.00    +0.000 C 
ENDBRANCH   5  10
BRANCH   1  19
ATOM     19  CB  LEU A   2      -4.084   3.424 128.542  0.00  0.00    +0.000 C 
BRANCH  19  21
ATOM     20  CD1 LEU A   2      -2.521   5.251 127.919  0.00  0.00    +0.000 C 
ATOM     21  CG  LEU A   2      -3.175   3.978 127.435  0.00  0.00    +0.000 C 
ATOM     22  CD2 LEU A   2      -1.992   3.118 127.007  0.00  0.00    +0.000 C 
ENDBRANCH  19  21
ENDBRANCH   1  19
BRANCH   8  23
ATOM     23  C   UNK A   0      -6.139   2.110 130.480  0.00  0.00    +0.000 C 
BRANCH  23  24
ATOM     24  C   UNK A   0      -7.298   3.155 130.413  0.00  0.00    +0.000 A 
ATOM     25  C   UNK A   0      -7.098   4.499 130.061  0.00  0.00    +0.000 A 
ATOM     26  C   UNK A   0      -8.114   5.432 129.995  0.00  0.00    +0.000 A 
ATOM     27  C   UNK A   0      -9.423   5.021 130.084  0.00  0.00    +0.000 A 
ATOM     28  C   UNK A   0      -9.677   3.686 130.405  0.00  0.00    +0.000 A 
ATOM     29  C   UNK A   0      -8.635   2.778 130.638  0.00  0.00    +0.000 A 
BRANCH  27  30
ATOM     30  N   UNK A   0     -10.441   5.880 129.792  0.00  0.00    +0.000 N 
ATOM     31  C   UNK A   0     -10.343   6.719 128.610  0.00  0.00    +0.000 C 
ATOM     32  C   UNK A   0     -10.898   8.108 128.961  0.00  0.00    +0.000 C 
ATOM     33  N   UNK A   0     -12.289   8.019 129.468  0.00  0.00    +0.000 NA
ATOM     34  C   UNK A   0     -12.822   9.346 129.729  0.00  0.00    +0.000 C 
ATOM     35  C   UNK A   0     -12.283   7.196 130.704  0.00  0.00    +0.000 C 
ATOM     36  C   UNK A   0     -11.752   5.769 130.436  0.00  0.00    +0.000 C 
ENDBRANCH  27  30
ENDBRANCH  23  24
BRANCH  23  37
ATOM     37  C   UNK A   0      -4.901   2.644 131.378  0.00  0.00    +0.000 C 
ATOM     38  O   UNK A   0      -3.898   1.956 131.646  0.00  0.00    +0.000 OA
ATOM     39  N   UNK A   0      -4.837   3.941 131.843  0.00  0.00    +0.000 N 
ATOM     40  H   UNK A   0      -5.182   4.628 131.199  0.00  0.00    +0.000 HD
BRANCH  39  41
ATOM     41  C   UNK A   0      -3.724   4.405 132.724  0.00  0.00    +0.000 C 
ATOM     42  C   UNK A   0      -2.493   4.659 131.843  0.00  0.00    +0.000 C 
ATOM     43  C   UNK A   0      -4.313   5.515 133.579  0.00  0.00    +0.000 C 
ATOM     44  C   UNK A   0      -3.138   3.423 133.766  0.00  0.00    +0.000 C 
ENDBRANCH  39  41
ENDBRANCH  23  37
ENDBRANCH   8  23
TORSDOF 8
ENDMDL
