MODEL 1
REMARK VINA RESULT:      -8.5      0.000      0.000
REMARK  Name = CHEMBL114302
REMARK  9 active torsions:
REMARK  status: ('A' for Active; 'I' for Inactive)
REMARK    1  A    between atoms: C_1  and  O_2
REMARK    2  A    between atoms: O_2  and  C_3
REMARK    3  A    between atoms: C_6  and  N_7
REMARK    4  A    between atoms: N_7  and  C_8
REMARK    5  A    between atoms: N_7  and  S_20
REMARK    6  A    between atoms: C_8  and  C_9
REMARK    7  A    between atoms: N_11  and  C_12
REMARK    8  A    between atoms: C_18  and  C_19
REMARK    9  A    between atoms: S_20  and  C_23
REMARK                            x       y       z     vdW  Elec       q    Type
REMARK                         _______ _______ _______ _____ _____    ______ ____
ROOT
ATOM      1  N   UNL     1      -8.822  -1.036 126.166  0.00  0.00    +0.000 N 
ENDROOT
BRANCH   1   5
ATOM      2  C   UNL     1      -5.814  -2.688 128.870  0.00  0.00    +0.000 A 
ATOM      3  C   UNL     1      -5.529  -1.780 127.906  0.00  0.00    +0.000 A 
ATOM      4  C   UNL     1      -6.619  -1.092 127.402  0.00  0.00    +0.000 A 
ATOM      5  C   UNL     1      -7.868  -1.635 127.168  0.00  0.00    +0.000 A 
ATOM      6  C   UNL     1      -8.155  -2.590 128.137  0.00  0.00    +0.000 A 
ATOM      7  C   UNL     1      -7.147  -3.061 129.031  0.00  0.00    +0.000 A 
BRANCH   2   9
ATOM      8  C   UNL     1      -3.660  -3.551 129.133  0.00  0.00    +0.000 C 
ATOM      9  O   UNL     1      -4.762  -2.892 129.703  0.00  0.00    +0.000 OA
ENDBRANCH   2   9
ENDBRANCH   1   5
BRANCH   1  10
ATOM     10  S   UNL     1      -9.056  -1.991 124.732  0.00  0.00    +0.000 S 
ATOM     11  O   UNL     1      -9.714  -3.235 125.079  0.00  0.00    +0.000 OA
ATOM     12  O   UNL     1      -9.679  -1.086 123.781  0.00  0.00    +0.000 OA
BRANCH  10  13
ATOM     13  C   UNL     1      -7.507  -2.500 123.978  0.00  0.00    +0.000 A 
ATOM     14  C   UNL     1      -6.779  -3.533 124.580  0.00  0.00    +0.000 A 
ATOM     15  C   UNL     1      -5.476  -3.814 124.136  0.00  0.00    +0.000 A 
ATOM     16  C   UNL     1      -4.942  -3.157 123.026  0.00  0.00    +0.000 A 
ATOM     17  C   UNL     1      -5.669  -2.158 122.413  0.00  0.00    +0.000 A 
ATOM     18  C   UNL     1      -6.902  -1.796 122.938  0.00  0.00    +0.000 A 
ENDBRANCH  10  13
ENDBRANCH   1  10
BRANCH   1  19
ATOM     19  C   UNL     1      -9.111   0.482 126.073  0.00  0.00    +0.000 C 
BRANCH  19  20
ATOM     20  C   UNL     1      -8.307   1.434 125.242  0.00  0.00    +0.000 C 
ATOM     21  O   UNL     1      -7.316   0.967 124.709  0.00  0.00    +0.000 OA
ATOM     22  N   UNL     1      -8.497   2.721 124.859  0.00  0.00    +0.000 N 
ATOM     23  H   UNL     1      -9.101   3.357 125.365  0.00  0.00    +0.000 HD
BRANCH  22  24
ATOM     24  C   UNL     1      -7.483   3.276 123.941  0.00  0.00    +0.000 A 
ATOM     25  C   UNL     1      -6.282   3.717 124.512  0.00  0.00    +0.000 A 
ATOM     26  C   UNL     1      -5.275   4.270 123.708  0.00  0.00    +0.000 A 
ATOM     27  C   UNL     1      -5.405   4.305 122.322  0.00  0.00    +0.000 A 
ATOM     28  C   UNL     1      -6.552   3.819 121.712  0.00  0.00    +0.000 A 
ATOM     29 CL   UNL     1      -6.611   3.935 119.981  0.00  0.00    +0.000 Cl
ATOM     30  C   UNL     1      -7.620   3.321 122.485  0.00  0.00    +0.000 A 
ATOM     31  C   UNL     1      -8.836   2.824 121.704  0.00  0.00    +0.000 C 
ENDBRANCH  22  24
ENDBRANCH  19  20
ENDBRANCH   1  19
TORSDOF 7
ENDMDL
MODEL 2
REMARK VINA RESULT:      -8.3      4.438      6.784
REMARK  Name = CHEMBL114302
REMARK  9 active torsions:
REMARK  status: ('A' for Active; 'I' for Inactive)
REMARK    1  A    between atoms: C_1  and  O_2
REMARK    2  A    between atoms: O_2  and  C_3
REMARK    3  A    between atoms: C_6  and  N_7
REMARK    4  A    between atoms: N_7  and  C_8
REMARK    5  A    between atoms: N_7  and  S_20
REMARK    6  A    between atoms: C_8  and  C_9
REMARK    7  A    between atoms: N_11  and  C_12
REMARK    8  A    between atoms: C_18  and  C_19
REMARK    9  A    between atoms: S_20  and  C_23
REMARK                            x       y       z     vdW  Elec       q    Type
REMARK                         _______ _______ _______ _____ _____    ______ ____
ROOT
ATOM      1  N   UNL     1      -6.530   2.254 125.494  0.00  0.00    +0.000 N 
ENDROOT
BRANCH   1   5
ATOM      2  C   UNL     1      -8.983  -1.273 124.707  0.00  0.00    +0.000 A 
ATOM      3  C   UNL     1      -8.268  -0.637 123.749  0.00  0.00    +0.000 A 
ATOM      4  C   UNL     1      -7.275   0.205 124.216  0.00  0.00    +0.000 A 
ATOM      5  C   UNL     1      -7.372   1.014 125.333  0.00  0.00    +0.000 A 
ATOM      6  C   UNL     1      -8.131   0.379 126.309  0.00  0.00    +0.000 A 
ATOM      7  C   UNL     1      -8.876  -0.801 126.014  0.00  0.00    +0.000 A 
BRANCH   2   9
ATOM      8  C   UNL     1      -8.654  -3.565 124.401  0.00  0.00    +0.000 C 
ATOM      9  O   UNL     1      -9.496  -2.449 124.261  0.00  0.00    +0.000 OA
ENDBRANCH   2   9
ENDBRANCH   1   5
BRANCH   1  10
ATOM     10  S   UNL     1      -7.113   3.642 124.624  0.00  0.00    +0.000 S 
ATOM     11  O   UNL     1      -8.530   3.488 124.358  0.00  0.00    +0.000 OA
ATOM     12  O   UNL     1      -6.642   4.784 125.387  0.00  0.00    +0.000 OA
BRANCH  10  13
ATOM     13  C   UNL     1      -6.369   3.803 122.997  0.00  0.00    +0.000 A 
ATOM     14  C   UNL     1      -5.133   4.453 122.888  0.00  0.00    +0.000 A 
ATOM     15  C   UNL     1      -4.626   4.772 121.618  0.00  0.00    +0.000 A 
ATOM     16  C   UNL     1      -5.279   4.346 120.460  0.00  0.00    +0.000 A 
ATOM     17  C   UNL     1      -6.483   3.680 120.564  0.00  0.00    +0.000 A 
ATOM     18  C   UNL     1      -7.043   3.483 121.819  0.00  0.00    +0.000 A 
ENDBRANCH  10  13
ENDBRANCH   1  10
BRANCH   1  19
ATOM     19  C   UNL     1      -5.026   2.216 125.859  0.00  0.00    +0.000 C 
BRANCH  19  20
ATOM     20  C   UNL     1      -4.394   3.106 126.884  0.00  0.00    +0.000 C 
ATOM     21  O   UNL     1      -3.191   2.984 127.023  0.00  0.00    +0.000 OA
ATOM     22  N   UNL     1      -4.866   4.121 127.650  0.00  0.00    +0.000 N 
ATOM     23  H   UNL     1      -5.849   4.227 127.872  0.00  0.00    +0.000 HD
BRANCH  22  24
ATOM     24  C   UNL     1      -3.867   4.815 128.486  0.00  0.00    +0.000 A 
ATOM     25  C   UNL     1      -3.300   5.984 127.959  0.00  0.00    +0.000 A 
ATOM     26  C   UNL     1      -2.333   6.693 128.686  0.00  0.00    +0.000 A 
ATOM     27  C   UNL     1      -1.985   6.309 129.979  0.00  0.00    +0.000 A 
ATOM     28  C   UNL     1      -2.572   5.195 130.561  0.00  0.00    +0.000 A 
ATOM     29 CL   UNL     1      -2.044   4.800 132.167  0.00  0.00    +0.000 Cl
ATOM     30  C   UNL     1      -3.494   4.410 129.841  0.00  0.00    +0.000 A 
ATOM     31  C   UNL     1      -4.064   3.201 130.582  0.00  0.00    +0.000 C 
ENDBRANCH  22  24
ENDBRANCH  19  20
ENDBRANCH   1  19
TORSDOF 7
ENDMDL
MODEL 3
REMARK VINA RESULT:      -8.2      5.611      7.112
REMARK  Name = CHEMBL114302
REMARK  9 active torsions:
REMARK  status: ('A' for Active; 'I' for Inactive)
REMARK    1  A    between atoms: C_1  and  O_2
REMARK    2  A    between atoms: O_2  and  C_3
REMARK    3  A    between atoms: C_6  and  N_7
REMARK    4  A    between atoms: N_7  and  C_8
REMARK    5  A    between atoms: N_7  and  S_20
REMARK    6  A    between atoms: C_8  and  C_9
REMARK    7  A    between atoms: N_11  and  C_12
REMARK    8  A    between atoms: C_18  and  C_19
REMARK    9  A    between atoms: S_20  and  C_23
REMARK                            x       y       z     vdW  Elec       q    Type
REMARK                         _______ _______ _______ _____ _____    ______ ____
ROOT
ATOM      1  N   UNL     1      -7.997   3.383 127.618  0.00  0.00    +0.000 N 
ENDROOT
BRANCH   1   5
ATOM      2  C   UNL     1      -6.397  -0.562 126.636  0.00  0.00    +0.000 A 
ATOM      3  C   UNL     1      -5.617   0.526 126.844  0.00  0.00    +0.000 A 
ATOM      4  C   UNL     1      -6.233   1.577 127.500  0.00  0.00    +0.000 A 
ATOM      5  C   UNL     1      -7.543   1.978 127.313  0.00  0.00    +0.000 A 
ATOM      6  C   UNL     1      -8.344   0.869 127.069  0.00  0.00    +0.000 A 
ATOM      7  C   UNL     1      -7.773  -0.411 126.803  0.00  0.00    +0.000 A 
BRANCH   2   9
ATOM      8  C   UNL     1      -5.301  -2.281 127.774  0.00  0.00    +0.000 C 
ATOM      9  O   UNL     1      -5.666  -1.702 126.548  0.00  0.00    +0.000 OA
ENDBRANCH   2   9
ENDBRANCH   1   5
BRANCH   1  10
ATOM     10  S   UNL     1      -7.627   4.546 126.379  0.00  0.00    +0.000 S 
ATOM     11  O   UNL     1      -8.759   5.433 126.193  0.00  0.00    +0.000 OA
ATOM     12  O   UNL     1      -6.336   5.093 126.757  0.00  0.00    +0.000 OA
BRANCH  10  13
ATOM     13  C   UNL     1      -7.384   3.789 124.769  0.00  0.00    +0.000 A 
ATOM     14  C   UNL     1      -6.162   3.988 124.114  0.00  0.00    +0.000 A 
ATOM     15  C   UNL     1      -6.017   3.583 122.777  0.00  0.00    +0.000 A 
ATOM     16  C   UNL     1      -7.034   2.879 122.129  0.00  0.00    +0.000 A 
ATOM     17  C   UNL     1      -8.229   2.656 122.781  0.00  0.00    +0.000 A 
ATOM     18  C   UNL     1      -8.412   3.173 124.056  0.00  0.00    +0.000 A 
ENDBRANCH  10  13
ENDBRANCH   1  10
BRANCH   1  19
ATOM     19  C   UNL     1      -8.211   3.912 129.057  0.00  0.00    +0.000 C 
BRANCH  19  20
ATOM     20  C   UNL     1      -9.249   4.926 129.427  0.00  0.00    +0.000 C 
ATOM     21  O   UNL     1     -10.390   4.510 129.514  0.00  0.00    +0.000 OA
ATOM     22  N   UNL     1      -9.184   6.230 129.793  0.00  0.00    +0.000 N 
ATOM     23  H   UNL     1      -8.398   6.824 129.560  0.00  0.00    +0.000 HD
BRANCH  22  24
ATOM     24  C   UNL     1     -10.465   6.857 130.173  0.00  0.00    +0.000 A 
ATOM     25  C   UNL     1     -11.013   6.486 131.408  0.00  0.00    +0.000 A 
ATOM     26  C   UNL     1     -12.235   7.027 131.833  0.00  0.00    +0.000 A 
ATOM     27  C   UNL     1     -12.880   8.010 131.088  0.00  0.00    +0.000 A 
ATOM     28  C   UNL     1     -12.337   8.452 129.890  0.00  0.00    +0.000 A 
ATOM     29 CL   UNL     1     -13.241   9.664 129.038  0.00  0.00    +0.000 Cl
ATOM     30  C   UNL     1     -11.149   7.885 129.388  0.00  0.00    +0.000 A 
ATOM     31  C   UNL     1     -10.654   8.444 128.055  0.00  0.00    +0.000 C 
ENDBRANCH  22  24
ENDBRANCH  19  20
ENDBRANCH   1  19
TORSDOF 7
ENDMDL
MODEL 4
REMARK VINA RESULT:      -8.2      3.459      7.245
REMARK  Name = CHEMBL114302
REMARK  9 active torsions:
REMARK  status: ('A' for Active; 'I' for Inactive)
REMARK    1  A    between atoms: C_1  and  O_2
REMARK    2  A    between atoms: O_2  and  C_3
REMARK    3  A    between atoms: C_6  and  N_7
REMARK    4  A    between atoms: N_7  and  C_8
REMARK    5  A    between atoms: N_7  and  S_20
REMARK    6  A    between atoms: C_8  and  C_9
REMARK    7  A    between atoms: N_11  and  C_12
REMARK    8  A    between atoms: C_18  and  C_19
REMARK    9  A    between atoms: S_20  and  C_23
REMARK                            x       y       z     vdW  Elec       q    Type
REMARK                         _______ _______ _______ _____ _____    ______ ____
ROOT
ATOM      1  N   UNL     1      -6.895   1.837 124.224  0.00  0.00    +0.000 N 
ENDROOT
BRANCH   1   5
ATOM      2  C   UNL     1      -4.536   3.988 127.207  0.00  0.00    +0.000 A 
ATOM      3  C   UNL     1      -4.194   3.918 125.898  0.00  0.00    +0.000 A 
ATOM      4  C   UNL     1      -5.212   3.535 125.042  0.00  0.00    +0.000 A 
ATOM      5  C   UNL     1      -6.172   2.581 125.319  0.00  0.00    +0.000 A 
ATOM      6  C   UNL     1      -6.506   2.626 126.668  0.00  0.00    +0.000 A 
ATOM      7  C   UNL     1      -5.731   3.385 127.595  0.00  0.00    +0.000 A 
BRANCH   2   9
ATOM      8  C   UNL     1      -4.397   5.528 128.957  0.00  0.00    +0.000 C 
ATOM      9  O   UNL     1      -3.764   4.873 127.887  0.00  0.00    +0.000 OA
ENDBRANCH   2   9
ENDBRANCH   1   5
BRANCH   1  10
ATOM     10  S   UNL     1      -8.207   2.717 123.498  0.00  0.00    +0.000 S 
ATOM     11  O   UNL     1      -9.350   1.839 123.336  0.00  0.00    +0.000 OA
ATOM     12  O   UNL     1      -8.331   3.924 124.296  0.00  0.00    +0.000 OA
BRANCH  10  13
ATOM     13  C   UNL     1      -7.830   3.270 121.831  0.00  0.00    +0.000 A 
ATOM     14  C   UNL     1      -6.496   3.541 121.502  0.00  0.00    +0.000 A 
ATOM     15  C   UNL     1      -6.195   4.165 120.280  0.00  0.00    +0.000 A 
ATOM     16  C   UNL     1      -7.196   4.413 119.339  0.00  0.00    +0.000 A 
ATOM     17  C   UNL     1      -8.508   4.121 119.649  0.00  0.00    +0.000 A 
ATOM     18  C   UNL     1      -8.813   3.625 120.909  0.00  0.00    +0.000 A 
ENDBRANCH  10  13
ENDBRANCH   1  10
BRANCH   1  19
ATOM     19  C   UNL     1      -6.925   0.292 124.126  0.00  0.00    +0.000 C 
BRANCH  19  20
ATOM     20  C   UNL     1      -7.253  -0.610 125.276  0.00  0.00    +0.000 C 
ATOM     21  O   UNL     1      -8.275  -0.345 125.883  0.00  0.00    +0.000 OA
ATOM     22  N   UNL     1      -6.697  -1.754 125.747  0.00  0.00    +0.000 N 
ATOM     23  H   UNL     1      -5.736  -2.011 125.557  0.00  0.00    +0.000 HD
BRANCH  22  24
ATOM     24  C   UNL     1      -7.400  -2.394 126.875  0.00  0.00    +0.000 A 
ATOM     25  C   UNL     1      -8.412  -3.310 126.557  0.00  0.00    +0.000 A 
ATOM     26  C   UNL     1      -9.135  -3.950 127.573  0.00  0.00    +0.000 A 
ATOM     27  C   UNL     1      -8.804  -3.764 128.913  0.00  0.00    +0.000 A 
ATOM     28  C   UNL     1      -7.766  -2.915 129.268  0.00  0.00    +0.000 A 
ATOM     29 CL   UNL     1      -7.459  -2.745 130.968  0.00  0.00    +0.000 Cl
ATOM     30  C   UNL     1      -7.059  -2.195 128.284  0.00  0.00    +0.000 A 
ATOM     31  C   UNL     1      -5.945  -1.282 128.796  0.00  0.00    +0.000 C 
ENDBRANCH  22  24
ENDBRANCH  19  20
ENDBRANCH   1  19
TORSDOF 7
ENDMDL
MODEL 5
REMARK VINA RESULT:      -8.0      3.630      8.274
REMARK  Name = CHEMBL114302
REMARK  9 active torsions:
REMARK  status: ('A' for Active; 'I' for Inactive)
REMARK    1  A    between atoms: C_1  and  O_2
REMARK    2  A    between atoms: O_2  and  C_3
REMARK    3  A    between atoms: C_6  and  N_7
REMARK    4  A    between atoms: N_7  and  C_8
REMARK    5  A    between atoms: N_7  and  S_20
REMARK    6  A    between atoms: C_8  and  C_9
REMARK    7  A    between atoms: N_11  and  C_12
REMARK    8  A    between atoms: C_18  and  C_19
REMARK    9  A    between atoms: S_20  and  C_23
REMARK                            x       y       z     vdW  Elec       q    Type
REMARK                         _______ _______ _______ _____ _____    ______ ____
ROOT
ATOM      1  N   UNL     1      -6.947   2.221 124.077  0.00  0.00    +0.000 N 
ENDROOT
BRANCH   1   5
ATOM      2  C   UNL     1      -7.699   3.959 120.140  0.00  0.00    +0.000 A 
ATOM      3  C   UNL     1      -8.676   3.448 120.925  0.00  0.00    +0.000 A 
ATOM      4  C   UNL     1      -8.339   3.288 122.258  0.00  0.00    +0.000 A 
ATOM      5  C   UNL     1      -7.107   2.873 122.727  0.00  0.00    +0.000 A 
ATOM      6  C   UNL     1      -6.100   3.370 121.908  0.00  0.00    +0.000 A 
ATOM      7  C   UNL     1      -6.402   3.976 120.651  0.00  0.00    +0.000 A 
BRANCH   2   9
ATOM      8  C   UNL     1      -9.555   4.364 118.782  0.00  0.00    +0.000 C 
ATOM      9  O   UNL     1      -8.203   4.617 119.065  0.00  0.00    +0.000 OA
ENDBRANCH   2   9
ENDBRANCH   1   5
BRANCH   1  10
ATOM     10  S   UNL     1      -6.761   3.334 125.400  0.00  0.00    +0.000 S 
ATOM     11  O   UNL     1      -6.746   4.693 124.892  0.00  0.00    +0.000 OA
ATOM     12  O   UNL     1      -7.771   2.936 126.365  0.00  0.00    +0.000 OA
BRANCH  10  13
ATOM     13  C   UNL     1      -5.185   3.154 126.241  0.00  0.00    +0.000 A 
ATOM     14  C   UNL     1      -5.154   2.478 127.467  0.00  0.00    +0.000 A 
ATOM     15  C   UNL     1      -3.983   2.498 128.242  0.00  0.00    +0.000 A 
ATOM     16  C   UNL     1      -2.813   3.082 127.754  0.00  0.00    +0.000 A 
ATOM     17  C   UNL     1      -2.832   3.725 126.533  0.00  0.00    +0.000 A 
ATOM     18  C   UNL     1      -4.027   3.814 125.832  0.00  0.00    +0.000 A 
ENDBRANCH  10  13
ENDBRANCH   1  10
BRANCH   1  19
ATOM     19  C   UNL     1      -6.399   0.786 124.265  0.00  0.00    +0.000 C 
BRANCH  19  20
ATOM     20  C   UNL     1      -7.007  -0.224 125.189  0.00  0.00    +0.000 C 
ATOM     21  O   UNL     1      -6.455  -1.309 125.227  0.00  0.00    +0.000 OA
ATOM     22  N   UNL     1      -8.013  -0.165 126.097  0.00  0.00    +0.000 N 
ATOM     23  H   UNL     1      -8.743   0.536 126.057  0.00  0.00    +0.000 HD
BRANCH  22  24
ATOM     24  C   UNL     1      -8.242  -1.392 126.885  0.00  0.00    +0.000 A 
ATOM     25  C   UNL     1      -8.943  -2.430 126.256  0.00  0.00    +0.000 A 
ATOM     26  C   UNL     1      -9.212  -3.622 126.943  0.00  0.00    +0.000 A 
ATOM     27  C   UNL     1      -8.711  -3.838 128.225  0.00  0.00    +0.000 A 
ATOM     28  C   UNL     1      -7.957  -2.860 128.858  0.00  0.00    +0.000 A 
ATOM     29 CL   UNL     1      -7.405  -3.233 130.460  0.00  0.00    +0.000 Cl
ATOM     30  C   UNL     1      -7.723  -1.619 128.234  0.00  0.00    +0.000 A 
ATOM     31  C   UNL     1      -6.890  -0.617 129.032  0.00  0.00    +0.000 C 
ENDBRANCH  22  24
ENDBRANCH  19  20
ENDBRANCH   1  19
TORSDOF 7
ENDMDL
MODEL 6
REMARK VINA RESULT:      -8.0      7.448      9.529
REMARK  Name = CHEMBL114302
REMARK  9 active torsions:
REMARK  status: ('A' for Active; 'I' for Inactive)
REMARK    1  A    between atoms: C_1  and  O_2
REMARK    2  A    between atoms: O_2  and  C_3
REMARK    3  A    between atoms: C_6  and  N_7
REMARK    4  A    between atoms: N_7  and  C_8
REMARK    5  A    between atoms: N_7  and  S_20
REMARK    6  A    between atoms: C_8  and  C_9
REMARK    7  A    between atoms: N_11  and  C_12
REMARK    8  A    between atoms: C_18  and  C_19
REMARK    9  A    between atoms: S_20  and  C_23
REMARK                            x       y       z     vdW  Elec       q    Type
REMARK                         _______ _______ _______ _____ _____    ______ ____
ROOT
ATOM      1  N   UNL     1      -6.446   4.574 129.909  0.00  0.00    +0.000 N 
ENDROOT
BRANCH   1   5
ATOM      2  C   UNL     1      -3.289   3.640 127.038  0.00  0.00    +0.000 A 
ATOM      3  C   UNL     1      -4.042   4.763 126.974  0.00  0.00    +0.000 A 
ATOM      4  C   UNL     1      -4.718   5.087 128.138  0.00  0.00    +0.000 A 
ATOM      5  C   UNL     1      -5.314   4.180 128.994  0.00  0.00    +0.000 A 
ATOM      6  C   UNL     1      -4.561   3.013 129.041  0.00  0.00    +0.000 A 
ATOM      7  C   UNL     1      -3.505   2.777 128.110  0.00  0.00    +0.000 A 
BRANCH   2   9
ATOM      8  C   UNL     1      -1.183   2.811 126.461  0.00  0.00    +0.000 C 
ATOM      9  O   UNL     1      -2.250   3.675 126.164  0.00  0.00    +0.000 OA
ENDBRANCH   2   9
ENDBRANCH   1   5
BRANCH   1  10
ATOM     10  S   UNL     1      -5.977   4.856 131.559  0.00  0.00    +0.000 S 
ATOM     11  O   UNL     1      -6.751   5.954 132.104  0.00  0.00    +0.000 OA
ATOM     12  O   UNL     1      -6.035   3.549 132.190  0.00  0.00    +0.000 OA
BRANCH  10  13
ATOM     13  C   UNL     1      -4.270   5.394 131.711  0.00  0.00    +0.000 A 
ATOM     14  C   UNL     1      -3.949   6.709 131.349  0.00  0.00    +0.000 A 
ATOM     15  C   UNL     1      -2.601   7.096 131.263  0.00  0.00    +0.000 A 
ATOM     16  C   UNL     1      -1.582   6.223 131.647  0.00  0.00    +0.000 A 
ATOM     17  C   UNL     1      -1.896   4.936 132.032  0.00  0.00    +0.000 A 
ATOM     18  C   UNL     1      -3.220   4.520 131.990  0.00  0.00    +0.000 A 
ENDBRANCH  10  13
ENDBRANCH   1  10
BRANCH   1  19
ATOM     19  C   UNL     1      -7.924   4.203 129.637  0.00  0.00    +0.000 C 
BRANCH  19  20
ATOM     20  C   UNL     1      -9.070   5.148 129.827  0.00  0.00    +0.000 C 
ATOM     21  O   UNL     1     -10.174   4.701 129.577  0.00  0.00    +0.000 OA
ATOM     22  N   UNL     1      -9.163   6.406 130.325  0.00  0.00    +0.000 N 
ATOM     23  H   UNL     1      -8.372   7.039 130.361  0.00  0.00    +0.000 HD
BRANCH  22  24
ATOM     24  C   UNL     1     -10.527   6.961 130.424  0.00  0.00    +0.000 A 
ATOM     25  C   UNL     1     -11.260   6.643 131.575  0.00  0.00    +0.000 A 
ATOM     26  C   UNL     1     -12.569   7.120 131.736  0.00  0.00    +0.000 A 
ATOM     27  C   UNL     1     -13.132   7.992 130.809  0.00  0.00    +0.000 A 
ATOM     28  C   UNL     1     -12.414   8.383 129.687  0.00  0.00    +0.000 A 
ATOM     29 CL   UNL     1     -13.226   9.456 128.591  0.00  0.00    +0.000 Cl
ATOM     30  C   UNL     1     -11.124   7.872 129.447  0.00  0.00    +0.000 A 
ATOM     31  C   UNL     1     -10.436   8.365 128.175  0.00  0.00    +0.000 C 
ENDBRANCH  22  24
ENDBRANCH  19  20
ENDBRANCH   1  19
TORSDOF 7
ENDMDL
MODEL 7
REMARK VINA RESULT:      -7.9      3.709      5.835
REMARK  Name = CHEMBL114302
REMARK  9 active torsions:
REMARK  status: ('A' for Active; 'I' for Inactive)
REMARK    1  A    between atoms: C_1  and  O_2
REMARK    2  A    between atoms: O_2  and  C_3
REMARK    3  A    between atoms: C_6  and  N_7
REMARK    4  A    between atoms: N_7  and  C_8
REMARK    5  A    between atoms: N_7  and  S_20
REMARK    6  A    between atoms: C_8  and  C_9
REMARK    7  A    between atoms: N_11  and  C_12
REMARK    8  A    between atoms: C_18  and  C_19
REMARK    9  A    between atoms: S_20  and  C_23
REMARK                            x       y       z     vdW  Elec       q    Type
REMARK                         _______ _______ _______ _____ _____    ______ ____
ROOT
ATOM      1  N   UNL     1      -8.169   1.209 125.247  0.00  0.00    +0.000 N 
ENDROOT
BRANCH   1   5
ATOM      2  C   UNL     1      -6.016  -2.062 123.310  0.00  0.00    +0.000 A 
ATOM      3  C   UNL     1      -5.597  -1.471 124.454  0.00  0.00    +0.000 A 
ATOM      4  C   UNL     1      -6.557  -0.734 125.124  0.00  0.00    +0.000 A 
ATOM      5  C   UNL     1      -7.521   0.054 124.524  0.00  0.00    +0.000 A 
ATOM      6  C   UNL     1      -7.935  -0.532 123.333  0.00  0.00    +0.000 A 
ATOM      7  C   UNL     1      -7.225  -1.633 122.767  0.00  0.00    +0.000 A 
BRANCH   2   9
ATOM      8  C   UNL     1      -4.759  -3.853 124.128  0.00  0.00    +0.000 C 
ATOM      9  O   UNL     1      -5.296  -3.176 123.020  0.00  0.00    +0.000 OA
ENDBRANCH   2   9
ENDBRANCH   1   5
BRANCH   1  10
ATOM     10  S   UNL     1      -8.683   2.510 124.214  0.00  0.00    +0.000 S 
ATOM     11  O   UNL     1      -9.721   2.038 123.318  0.00  0.00    +0.000 OA
ATOM     12  O   UNL     1      -8.955   3.615 125.117  0.00  0.00    +0.000 OA
BRANCH  10  13
ATOM     13  C   UNL     1      -7.377   3.084 123.122  0.00  0.00    +0.000 A 
ATOM     14  C   UNL     1      -6.207   3.600 123.691  0.00  0.00    +0.000 A 
ATOM     15  C   UNL     1      -5.260   4.239 122.874  0.00  0.00    +0.000 A 
ATOM     16  C   UNL     1      -5.414   4.264 121.487  0.00  0.00    +0.000 A 
ATOM     17  C   UNL     1      -6.553   3.731 120.920  0.00  0.00    +0.000 A 
ATOM     18  C   UNL     1      -7.544   3.217 121.744  0.00  0.00    +0.000 A 
ENDBRANCH  10  13
ENDBRANCH   1  10
BRANCH   1  19
ATOM     19  C   UNL     1      -7.897   1.538 126.734  0.00  0.00    +0.000 C 
BRANCH  19  20
ATOM     20  C   UNL     1      -6.725   2.340 127.210  0.00  0.00    +0.000 C 
ATOM     21  O   UNL     1      -5.788   1.700 127.651  0.00  0.00    +0.000 OA
ATOM     22  N   UNL     1      -6.427   3.663 127.168  0.00  0.00    +0.000 N 
ATOM     23  H   UNL     1      -7.137   4.379 127.074  0.00  0.00    +0.000 HD
BRANCH  22  24
ATOM     24  C   UNL     1      -5.094   4.039 127.678  0.00  0.00    +0.000 A 
ATOM     25  C   UNL     1      -4.032   4.007 126.764  0.00  0.00    +0.000 A 
ATOM     26  C   UNL     1      -2.733   4.337 127.175  0.00  0.00    +0.000 A 
ATOM     27  C   UNL     1      -2.485   4.793 128.467  0.00  0.00    +0.000 A 
ATOM     28  C   UNL     1      -3.521   4.901 129.384  0.00  0.00    +0.000 A 
ATOM     29 CL   UNL     1      -3.089   5.460 130.969  0.00  0.00    +0.000 Cl
ATOM     30  C   UNL     1      -4.830   4.511 129.037  0.00  0.00    +0.000 A 
ATOM     31  C   UNL     1      -5.885   4.664 130.132  0.00  0.00    +0.000 C 
ENDBRANCH  22  24
ENDBRANCH  19  20
ENDBRANCH   1  19
TORSDOF 7
ENDMDL
MODEL 8
REMARK VINA RESULT:      -7.9      8.219      9.795
REMARK  Name = CHEMBL114302
REMARK  9 active torsions:
REMARK  status: ('A' for Active; 'I' for Inactive)
REMARK    1  A    between atoms: C_1  and  O_2
REMARK    2  A    between atoms: O_2  and  C_3
REMARK    3  A    between atoms: C_6  and  N_7
REMARK    4  A    between atoms: N_7  and  C_8
REMARK    5  A    between atoms: N_7  and  S_20
REMARK    6  A    between atoms: C_8  and  C_9
REMARK    7  A    between atoms: N_11  and  C_12
REMARK    8  A    between atoms: C_18  and  C_19
REMARK    9  A    between atoms: S_20  and  C_23
REMARK                            x       y       z     vdW  Elec       q    Type
REMARK                         _______ _______ _______ _____ _____    ______ ____
ROOT
ATOM      1  N   UNL     1      -6.379   4.220 130.277  0.00  0.00    +0.000 N 
ENDROOT
BRANCH   1   5
ATOM      2  C   UNL     1      -6.498   4.748 134.612  0.00  0.00    +0.000 A 
ATOM      3  C   UNL     1      -6.031   5.692 133.761  0.00  0.00    +0.000 A 
ATOM      4  C   UNL     1      -6.403   5.530 132.438  0.00  0.00    +0.000 A 
ATOM      5  C   UNL     1      -6.497   4.320 131.777  0.00  0.00    +0.000 A 
ATOM      6  C   UNL     1      -6.947   3.339 132.653  0.00  0.00    +0.000 A 
ATOM      7  C   UNL     1      -7.015   3.578 134.058  0.00  0.00    +0.000 A 
BRANCH   2   9
ATOM      8  C   UNL     1      -7.696   6.099 136.094  0.00  0.00    +0.000 C 
ATOM      9  O   UNL     1      -6.620   5.221 135.878  0.00  0.00    +0.000 OA
ENDBRANCH   2   9
ENDBRANCH   1   5
BRANCH   1  10
ATOM     10  S   UNL     1      -4.803   4.602 129.649  0.00  0.00    +0.000 S 
ATOM     11  O   UNL     1      -4.325   3.503 128.834  0.00  0.00    +0.000 OA
ATOM     12  O   UNL     1      -4.947   5.924 129.065  0.00  0.00    +0.000 OA
BRANCH  10  13
ATOM     13  C   UNL     1      -3.566   4.772 130.940  0.00  0.00    +0.000 A 
ATOM     14  C   UNL     1      -2.788   5.936 130.973  0.00  0.00    +0.000 A 
ATOM     15  C   UNL     1      -1.684   6.010 131.838  0.00  0.00    +0.000 A 
ATOM     16  C   UNL     1      -1.421   4.986 132.749  0.00  0.00    +0.000 A 
ATOM     17  C   UNL     1      -2.202   3.849 132.739  0.00  0.00    +0.000 A 
ATOM     18  C   UNL     1      -3.211   3.728 131.794  0.00  0.00    +0.000 A 
ENDBRANCH  10  13
ENDBRANCH   1  10
BRANCH   1  19
ATOM     19  C   UNL     1      -7.587   4.365 129.320  0.00  0.00    +0.000 C 
BRANCH  19  20
ATOM     20  C   UNL     1      -8.774   5.233 129.602  0.00  0.00    +0.000 C 
ATOM     21  O   UNL     1      -9.862   4.729 129.390  0.00  0.00    +0.000 OA
ATOM     22  N   UNL     1      -8.914   6.465 130.152  0.00  0.00    +0.000 N 
ATOM     23  H   UNL     1      -8.162   7.142 130.173  0.00  0.00    +0.000 HD
BRANCH  22  24
ATOM     24  C   UNL     1     -10.302   6.932 130.339  0.00  0.00    +0.000 A 
ATOM     25  C   UNL     1     -10.947   6.550 131.523  0.00  0.00    +0.000 A 
ATOM     26  C   UNL     1     -12.271   6.943 131.767  0.00  0.00    +0.000 A 
ATOM     27  C   UNL     1     -12.938   7.795 130.891  0.00  0.00    +0.000 A 
ATOM     28  C   UNL     1     -12.311   8.249 129.739  0.00  0.00    +0.000 A 
ATOM     29 CL   UNL     1     -13.248   9.287 128.712  0.00  0.00    +0.000 Cl
ATOM     30  C   UNL     1     -11.008   7.822 129.416  0.00  0.00    +0.000 A 
ATOM     31  C   UNL     1     -10.425   8.378 128.117  0.00  0.00    +0.000 C 
ENDBRANCH  22  24
ENDBRANCH  19  20
ENDBRANCH   1  19
TORSDOF 7
ENDMDL
MODEL 9
REMARK VINA RESULT:      -7.9      3.773      5.553
REMARK  Name = CHEMBL114302
REMARK  9 active torsions:
REMARK  status: ('A' for Active; 'I' for Inactive)
REMARK    1  A    between atoms: C_1  and  O_2
REMARK    2  A    between atoms: O_2  and  C_3
REMARK    3  A    between atoms: C_6  and  N_7
REMARK    4  A    between atoms: N_7  and  C_8
REMARK    5  A    between atoms: N_7  and  S_20
REMARK    6  A    between atoms: C_8  and  C_9
REMARK    7  A    between atoms: N_11  and  C_12
REMARK    8  A    between atoms: C_18  and  C_19
REMARK    9  A    between atoms: S_20  and  C_23
REMARK                            x       y       z     vdW  Elec       q    Type
REMARK                         _______ _______ _______ _____ _____    ______ ____
ROOT
ATOM      1  N   UNL     1      -7.776  -0.350 126.770  0.00  0.00    +0.000 N 
ENDROOT
BRANCH   1   5
ATOM      2  C   UNL     1      -5.827  -2.952 123.852  0.00  0.00    +0.000 A 
ATOM      3  C   UNL     1      -5.298  -1.779 124.271  0.00  0.00    +0.000 A 
ATOM      4  C   UNL     1      -5.834  -1.275 125.443  0.00  0.00    +0.000 A 
ATOM      5  C   UNL     1      -7.168  -1.332 125.801  0.00  0.00    +0.000 A 
ATOM      6  C   UNL     1      -7.726  -2.522 125.347  0.00  0.00    +0.000 A 
ATOM      7  C   UNL     1      -7.027  -3.363 124.431  0.00  0.00    +0.000 A 
BRANCH   2   9
ATOM      8  C   UNL     1      -4.434  -4.822 123.721  0.00  0.00    +0.000 C 
ATOM      9  O   UNL     1      -4.948  -3.669 123.106  0.00  0.00    +0.000 OA
ENDBRANCH   2   9
ENDBRANCH   1   5
BRANCH   1  10
ATOM     10  S   UNL     1      -8.998   0.679 126.084  0.00  0.00    +0.000 S 
ATOM     11  O   UNL     1     -10.018  -0.135 125.450  0.00  0.00    +0.000 OA
ATOM     12  O   UNL     1      -9.363   1.587 127.157  0.00  0.00    +0.000 OA
BRANCH  10  13
ATOM     13  C   UNL     1      -8.367   1.716 124.760  0.00  0.00    +0.000 A 
ATOM     14  C   UNL     1      -9.230   2.062 123.713  0.00  0.00    +0.000 A 
ATOM     15  C   UNL     1      -8.716   2.697 122.570  0.00  0.00    +0.000 A 
ATOM     16  C   UNL     1      -7.379   3.092 122.514  0.00  0.00    +0.000 A 
ATOM     17  C   UNL     1      -6.532   2.778 123.557  0.00  0.00    +0.000 A 
ATOM     18  C   UNL     1      -7.017   2.037 124.625  0.00  0.00    +0.000 A 
ENDBRANCH  10  13
ENDBRANCH   1  10
BRANCH   1  19
ATOM     19  C   UNL     1      -7.045   0.152 128.039  0.00  0.00    +0.000 C 
BRANCH  19  20
ATOM     20  C   UNL     1      -5.952   1.175 128.022  0.00  0.00    +0.000 C 
ATOM     21  O   UNL     1      -6.313   2.337 127.977  0.00  0.00    +0.000 OA
ATOM     22  N   UNL     1      -4.604   1.096 128.148  0.00  0.00    +0.000 N 
ATOM     23  H   UNL     1      -4.087   0.247 127.955  0.00  0.00    +0.000 HD
BRANCH  22  24
ATOM     24  C   UNL     1      -3.882   2.383 128.168  0.00  0.00    +0.000 A 
ATOM     25  C   UNL     1      -3.424   2.874 126.937  0.00  0.00    +0.000 A 
ATOM     26  C   UNL     1      -2.718   4.083 126.875  0.00  0.00    +0.000 A 
ATOM     27  C   UNL     1      -2.540   4.868 128.012  0.00  0.00    +0.000 A 
ATOM     28  C   UNL     1      -3.035   4.449 129.238  0.00  0.00    +0.000 A 
ATOM     29 CL   UNL     1      -2.734   5.498 130.588  0.00  0.00    +0.000 Cl
ATOM     30  C   UNL     1      -3.688   3.206 129.362  0.00  0.00    +0.000 A 
ATOM     31  C   UNL     1      -4.179   2.847 130.763  0.00  0.00    +0.000 C 
ENDBRANCH  22  24
ENDBRANCH  19  20
ENDBRANCH   1  19
TORSDOF 7
ENDMDL
