MODEL 1
REMARK VINA RESULT:     -10.4      0.000      0.000
REMARK  Name = CHEMBL31978
REMARK  5 active torsions:
REMARK  status: ('A' for Active; 'I' for Inactive)
REMARK    1  A    between atoms: C_1  and  S_2
REMARK    2  A    between atoms: S_2  and  N_5
REMARK    3  A    between atoms: C_8  and  C_9
REMARK    4  A    between atoms: C_13  and  C_14
REMARK    5  A    between atoms: C_19  and  N_20
REMARK                            x       y       z     vdW  Elec       q    Type
REMARK                         _______ _______ _______ _____ _____    ______ ____
ROOT
ATOM      1  C   UNL     1      -8.662   4.358 132.611  0.00  0.00    +0.000 A 
ATOM      2  C   UNL     1      -9.100   3.410 131.712  0.00  0.00    +0.000 A 
ATOM      3  C   UNL     1      -8.413   2.206 132.011  0.00  0.00    +0.000 A 
ATOM      4  C   UNL     1      -8.393   0.905 131.476  0.00  0.00    +0.000 A 
ATOM      5  C   UNL     1      -7.537  -0.059 132.042  0.00  0.00    +0.000 A 
ATOM      6  C   UNL     1      -6.695   0.302 133.108  0.00  0.00    +0.000 A 
ATOM      7  C   UNL     1      -6.727   1.581 133.681  0.00  0.00    +0.000 A 
ATOM      8  C   UNL     1      -7.593   2.496 133.092  0.00  0.00    +0.000 A 
ATOM      9  O   UNL     1      -7.754   3.795 133.464  0.00  0.00    +0.000 OA
ENDROOT
BRANCH   5  10
ATOM     10  C   UNL     1      -7.489  -1.421 131.407  0.00  0.00    +0.000 C 
ATOM     11  O   UNL     1      -7.604  -2.431 132.096  0.00  0.00    +0.000 OA
ATOM     12  N   UNL     1      -7.414  -1.481 130.025  0.00  0.00    +0.000 N 
ATOM     13  C   UNL     1      -8.395  -2.264 129.281  0.00  0.00    +0.000 C 
ATOM     14  C   UNL     1      -7.729  -3.325 128.425  0.00  0.00    +0.000 C 
ATOM     15  C   UNL     1      -6.633  -2.711 127.527  0.00  0.00    +0.000 C 
ATOM     16  C   UNL     1      -5.623  -1.940 128.388  0.00  0.00    +0.000 C 
ATOM     17  C   UNL     1      -6.287  -0.916 129.293  0.00  0.00    +0.000 C 
BRANCH  15  18
ATOM     18  N   UNL     1      -7.197  -1.966 126.351  0.00  0.00    +0.000 N 
ATOM     19  C   UNL     1      -8.269  -1.075 126.426  0.00  0.00    +0.000 C 
ATOM     20  O   UNL     1      -8.430  -0.151 127.214  0.00  0.00    +0.000 OA
ATOM     21  O   UNL     1      -9.256  -1.350 125.540  0.00  0.00    +0.000 OA
ATOM     22  C   UNL     1      -8.819  -1.084 124.225  0.00  0.00    +0.000 C 
ATOM     23  C   UNL     1      -7.505  -1.748 123.957  0.00  0.00    +0.000 A 
ATOM     24  C   UNL     1      -7.068  -1.870 122.636  0.00  0.00    +0.000 A 
ATOM     25  C   UNL     1      -5.839  -2.455 122.370  0.00  0.00    +0.000 A 
ATOM     26  C   UNL     1      -5.045  -2.910 123.420  0.00  0.00    +0.000 A 
ATOM     27  C   UNL     1      -5.478  -2.789 124.743  0.00  0.00    +0.000 A 
ATOM     28  C   UNL     1      -6.717  -2.211 125.026  0.00  0.00    +0.000 A 
ENDBRANCH  15  18
ENDBRANCH   5  10
BRANCH   1  32
ATOM     29  N   UNL     1     -10.056   6.797 130.226  0.00  0.00    +0.000 NA
ATOM     30  C   UNL     1     -10.907   5.967 131.122  0.00  0.00    +0.000 C 
ATOM     31  C   UNL     1     -10.488   6.098 132.579  0.00  0.00    +0.000 C 
ATOM     32  C   UNL     1      -8.999   5.813 132.773  0.00  0.00    +0.000 C 
ATOM     33  C   UNL     1      -8.171   6.715 131.859  0.00  0.00    +0.000 C 
ATOM     34  C   UNL     1      -8.592   6.587 130.404  0.00  0.00    +0.000 C 
BRANCH  29  36
ATOM     35  C   UNL     1     -10.593   8.485 128.135  0.00  0.00    +0.000 C 
ATOM     36  S   UNL     1     -10.553   6.749 128.580  0.00  0.00    +0.000 S 
ATOM     37  O   UNL     1     -11.910   6.249 128.539  0.00  0.00    +0.000 OA
ATOM     38  O   UNL     1      -9.501   6.117 127.814  0.00  0.00    +0.000 OA
ENDBRANCH  29  36
ENDBRANCH   1  32
TORSDOF 4
ENDMDL
MODEL 2
REMARK VINA RESULT:     -10.3      3.619      8.764
REMARK  Name = CHEMBL31978
REMARK  5 active torsions:
REMARK  status: ('A' for Active; 'I' for Inactive)
REMARK    1  A    between atoms: C_1  and  S_2
REMARK    2  A    between atoms: S_2  and  N_5
REMARK    3  A    between atoms: C_8  and  C_9
REMARK    4  A    between atoms: C_13  and  C_14
REMARK    5  A    between atoms: C_19  and  N_20
REMARK                            x       y       z     vdW  Elec       q    Type
REMARK                         _______ _______ _______ _____ _____    ______ ____
ROOT
ATOM      1  C   UNL     1      -6.711  -2.519 125.535  0.00  0.00    +0.000 A 
ATOM      2  C   UNL     1      -5.688  -1.885 126.206  0.00  0.00    +0.000 A 
ATOM      3  C   UNL     1      -6.011  -1.924 127.587  0.00  0.00    +0.000 A 
ATOM      4  C   UNL     1      -5.410  -1.456 128.769  0.00  0.00    +0.000 A 
ATOM      5  C   UNL     1      -6.057  -1.668 130.002  0.00  0.00    +0.000 A 
ATOM      6  C   UNL     1      -7.305  -2.313 130.026  0.00  0.00    +0.000 A 
ATOM      7  C   UNL     1      -7.904  -2.820 128.865  0.00  0.00    +0.000 A 
ATOM      8  C   UNL     1      -7.223  -2.593 127.674  0.00  0.00    +0.000 A 
ATOM      9  O   UNL     1      -7.640  -2.965 126.433  0.00  0.00    +0.000 OA
ENDROOT
BRANCH   5  10
ATOM     10  C   UNL     1      -5.423  -1.099 131.240  0.00  0.00    +0.000 C 
ATOM     11  O   UNL     1      -4.954  -1.844 132.096  0.00  0.00    +0.000 OA
ATOM     12  N   UNL     1      -5.300   0.278 131.322  0.00  0.00    +0.000 N 
ATOM     13  C   UNL     1      -3.995   0.875 131.584  0.00  0.00    +0.000 C 
ATOM     14  C   UNL     1      -4.017   1.744 132.827  0.00  0.00    +0.000 C 
ATOM     15  C   UNL     1      -5.158   2.783 132.762  0.00  0.00    +0.000 C 
ATOM     16  C   UNL     1      -6.497   2.073 132.525  0.00  0.00    +0.000 C 
ATOM     17  C   UNL     1      -6.467   1.153 131.315  0.00  0.00    +0.000 C 
BRANCH  15  18
ATOM     18  N   UNL     1      -4.848   3.927 131.839  0.00  0.00    +0.000 N 
ATOM     19  C   UNL     1      -5.706   4.383 130.838  0.00  0.00    +0.000 C 
ATOM     20  O   UNL     1      -6.899   4.648 130.927  0.00  0.00    +0.000 OA
ATOM     21  O   UNL     1      -5.115   4.461 129.621  0.00  0.00    +0.000 OA
ATOM     22  C   UNL     1      -4.161   5.501 129.608  0.00  0.00    +0.000 C 
ATOM     23  C   UNL     1      -3.231   5.385 130.774  0.00  0.00    +0.000 A 
ATOM     24  C   UNL     1      -2.042   6.118 130.764  0.00  0.00    +0.000 A 
ATOM     25  C   UNL     1      -1.181   6.046 131.849  0.00  0.00    +0.000 A 
ATOM     26  C   UNL     1      -1.510   5.252 132.945  0.00  0.00    +0.000 A 
ATOM     27  C   UNL     1      -2.700   4.517 132.959  0.00  0.00    +0.000 A 
ATOM     28  C   UNL     1      -3.572   4.571 131.870  0.00  0.00    +0.000 A 
ENDBRANCH  15  18
ENDBRANCH   5  10
BRANCH   1  32
ATOM     29  N   UNL     1      -8.703  -0.648 123.063  0.00  0.00    +0.000 NA
ATOM     30  C   UNL     1      -7.262  -0.371 123.316  0.00  0.00    +0.000 C 
ATOM     31  C   UNL     1      -6.416  -1.630 123.193  0.00  0.00    +0.000 C 
ATOM     32  C   UNL     1      -6.946  -2.763 124.071  0.00  0.00    +0.000 C 
ATOM     33  C   UNL     1      -8.416  -3.030 123.748  0.00  0.00    +0.000 C 
ATOM     34  C   UNL     1      -9.260  -1.772 123.866  0.00  0.00    +0.000 C 
BRANCH  29  36
ATOM     35  C   UNL     1      -9.855   1.070 124.860  0.00  0.00    +0.000 C 
ATOM     36  S   UNL     1      -9.683   0.765 123.102  0.00  0.00    +0.000 S 
ATOM     37  O   UNL     1     -10.988   0.417 122.582  0.00  0.00    +0.000 OA
ATOM     38  O   UNL     1      -8.919   1.855 122.533  0.00  0.00    +0.000 OA
ENDBRANCH  29  36
ENDBRANCH   1  32
TORSDOF 4
ENDMDL
MODEL 3
REMARK VINA RESULT:     -10.3      2.680      8.718
REMARK  Name = CHEMBL31978
REMARK  5 active torsions:
REMARK  status: ('A' for Active; 'I' for Inactive)
REMARK    1  A    between atoms: C_1  and  S_2
REMARK    2  A    between atoms: S_2  and  N_5
REMARK    3  A    between atoms: C_8  and  C_9
REMARK    4  A    between atoms: C_13  and  C_14
REMARK    5  A    between atoms: C_19  and  N_20
REMARK                            x       y       z     vdW  Elec       q    Type
REMARK                         _______ _______ _______ _____ _____    ______ ____
ROOT
ATOM      1  C   UNL     1      -7.154  -2.318 125.537  0.00  0.00    +0.000 A 
ATOM      2  C   UNL     1      -6.593  -1.444 126.442  0.00  0.00    +0.000 A 
ATOM      3  C   UNL     1      -7.067  -1.815 127.726  0.00  0.00    +0.000 A 
ATOM      4  C   UNL     1      -6.890  -1.335 129.036  0.00  0.00    +0.000 A 
ATOM      5  C   UNL     1      -7.562  -1.969 130.099  0.00  0.00    +0.000 A 
ATOM      6  C   UNL     1      -8.421  -3.048 129.829  0.00  0.00    +0.000 A 
ATOM      7  C   UNL     1      -8.582  -3.566 128.537  0.00  0.00    +0.000 A 
ATOM      8  C   UNL     1      -7.893  -2.912 127.523  0.00  0.00    +0.000 A 
ATOM      9  O   UNL     1      -7.935  -3.224 126.199  0.00  0.00    +0.000 OA
ENDROOT
BRANCH   5  10
ATOM     10  C   UNL     1      -7.405  -1.392 131.479  0.00  0.00    +0.000 C 
ATOM     11  O   UNL     1      -7.133  -2.121 132.428  0.00  0.00    +0.000 OA
ATOM     12  N   UNL     1      -7.479  -0.015 131.609  0.00  0.00    +0.000 N 
ATOM     13  C   UNL     1      -6.395   0.709 132.265  0.00  0.00    +0.000 C 
ATOM     14  C   UNL     1      -6.896   1.511 133.451  0.00  0.00    +0.000 C 
ATOM     15  C   UNL     1      -8.079   2.419 133.051  0.00  0.00    +0.000 C 
ATOM     16  C   UNL     1      -9.189   1.578 132.406  0.00  0.00    +0.000 C 
ATOM     17  C   UNL     1      -8.684   0.725 131.254  0.00  0.00    +0.000 C 
BRANCH  15  18
ATOM     18  N   UNL     1      -7.642   3.633 132.280  0.00  0.00    +0.000 N 
ATOM     19  C   UNL     1      -8.144   3.990 131.028  0.00  0.00    +0.000 C 
ATOM     20  O   UNL     1      -9.315   4.066 130.676  0.00  0.00    +0.000 OA
ATOM     21  O   UNL     1      -7.176   4.205 130.105  0.00  0.00    +0.000 OA
ATOM     22  C   UNL     1      -6.458   5.380 130.416  0.00  0.00    +0.000 C 
ATOM     23  C   UNL     1      -6.002   5.362 131.841  0.00  0.00    +0.000 A 
ATOM     24  C   UNL     1      -5.019   6.269 132.247  0.00  0.00    +0.000 A 
ATOM     25  C   UNL     1      -4.605   6.287 133.570  0.00  0.00    +0.000 A 
ATOM     26  C   UNL     1      -5.177   5.410 134.489  0.00  0.00    +0.000 A 
ATOM     27  C   UNL     1      -6.161   4.501 134.087  0.00  0.00    +0.000 A 
ATOM     28  C   UNL     1      -6.581   4.463 132.757  0.00  0.00    +0.000 A 
ENDBRANCH  15  18
ENDBRANCH   5  10
BRANCH   1  32
ATOM     29  N   UNL     1      -8.785  -0.351 122.881  0.00  0.00    +0.000 NA
ATOM     30  C   UNL     1      -7.466   0.018 123.466  0.00  0.00    +0.000 C 
ATOM     31  C   UNL     1      -6.481  -1.139 123.411  0.00  0.00    +0.000 C 
ATOM     32  C   UNL     1      -7.054  -2.409 124.040  0.00  0.00    +0.000 C 
ATOM     33  C   UNL     1      -8.386  -2.763 123.382  0.00  0.00    +0.000 C 
ATOM     34  C   UNL     1      -9.370  -1.605 123.433  0.00  0.00    +0.000 C 
BRANCH  29  36
ATOM     35  C   UNL     1      -9.862   1.553 124.532  0.00  0.00    +0.000 C 
ATOM     36  S   UNL     1      -9.901   0.958 122.841  0.00  0.00    +0.000 S 
ATOM     37  O   UNL     1     -11.218   0.412 122.593  0.00  0.00    +0.000 OA
ATOM     38  O   UNL     1      -9.348   1.990 121.992  0.00  0.00    +0.000 OA
ENDBRANCH  29  36
ENDBRANCH   1  32
TORSDOF 4
ENDMDL
MODEL 4
REMARK VINA RESULT:     -10.1      2.588      8.658
REMARK  Name = CHEMBL31978
REMARK  5 active torsions:
REMARK  status: ('A' for Active; 'I' for Inactive)
REMARK    1  A    between atoms: C_1  and  S_2
REMARK    2  A    between atoms: S_2  and  N_5
REMARK    3  A    between atoms: C_8  and  C_9
REMARK    4  A    between atoms: C_13  and  C_14
REMARK    5  A    between atoms: C_19  and  N_20
REMARK                            x       y       z     vdW  Elec       q    Type
REMARK                         _______ _______ _______ _____ _____    ______ ____
ROOT
ATOM      1  C   UNL     1      -7.026  -2.110 125.841  0.00  0.00    +0.000 A 
ATOM      2  C   UNL     1      -6.605  -1.133 126.716  0.00  0.00    +0.000 A 
ATOM      3  C   UNL     1      -7.058  -1.507 128.006  0.00  0.00    +0.000 A 
ATOM      4  C   UNL     1      -6.977  -0.952 129.296  0.00  0.00    +0.000 A 
ATOM      5  C   UNL     1      -7.588  -1.621 130.375  0.00  0.00    +0.000 A 
ATOM      6  C   UNL     1      -8.294  -2.813 130.138  0.00  0.00    +0.000 A 
ATOM      7  C   UNL     1      -8.355  -3.403 128.869  0.00  0.00    +0.000 A 
ATOM      8  C   UNL     1      -7.731  -2.709 127.838  0.00  0.00    +0.000 A 
ATOM      9  O   UNL     1      -7.699  -3.081 126.530  0.00  0.00    +0.000 OA
ENDROOT
BRANCH   5  10
ATOM     10  C   UNL     1      -7.541  -0.970 131.729  0.00  0.00    +0.000 C 
ATOM     11  O   UNL     1      -7.336  -1.644 132.734  0.00  0.00    +0.000 OA
ATOM     12  N   UNL     1      -7.635   0.411 131.779  0.00  0.00    +0.000 N 
ATOM     13  C   UNL     1      -6.610   1.182 132.474  0.00  0.00    +0.000 C 
ATOM     14  C   UNL     1      -7.207   2.039 133.574  0.00  0.00    +0.000 C 
ATOM     15  C   UNL     1      -8.363   2.911 133.038  0.00  0.00    +0.000 C 
ATOM     16  C   UNL     1      -9.414   2.024 132.357  0.00  0.00    +0.000 C 
ATOM     17  C   UNL     1      -8.816   1.117 131.295  0.00  0.00    +0.000 C 
BRANCH  15  18
ATOM     18  N   UNL     1      -7.879   4.087 132.238  0.00  0.00    +0.000 N 
ATOM     19  C   UNL     1      -6.538   4.451 132.109  0.00  0.00    +0.000 C 
ATOM     20  O   UNL     1      -5.585   3.737 131.821  0.00  0.00    +0.000 OA
ATOM     21  O   UNL     1      -6.305   5.750 132.417  0.00  0.00    +0.000 OA
ATOM     22  C   UNL     1      -6.874   6.593 131.437  0.00  0.00    +0.000 C 
ATOM     23  C   UNL     1      -8.305   6.232 131.193  0.00  0.00    +0.000 A 
ATOM     24  C   UNL     1      -9.121   7.135 130.507  0.00  0.00    +0.000 A 
ATOM     25  C   UNL     1     -10.442   6.806 130.245  0.00  0.00    +0.000 A 
ATOM     26  C   UNL     1     -10.946   5.575 130.657  0.00  0.00    +0.000 A 
ATOM     27  C   UNL     1     -10.133   4.667 131.344  0.00  0.00    +0.000 A 
ATOM     28  C   UNL     1      -8.804   4.989 131.624  0.00  0.00    +0.000 A 
ENDBRANCH  15  18
ENDBRANCH   5  10
BRANCH   1  32
ATOM     29  N   UNL     1      -8.655  -0.311 123.068  0.00  0.00    +0.000 NA
ATOM     30  C   UNL     1      -7.369   0.133 123.676  0.00  0.00    +0.000 C 
ATOM     31  C   UNL     1      -6.337  -0.984 123.692  0.00  0.00    +0.000 C 
ATOM     32  C   UNL     1      -6.878  -2.252 124.353  0.00  0.00    +0.000 C 
ATOM     33  C   UNL     1      -8.175  -2.685 123.671  0.00  0.00    +0.000 C 
ATOM     34  C   UNL     1      -9.204  -1.567 123.651  0.00  0.00    +0.000 C 
BRANCH  29  36
ATOM     35  C   UNL     1      -9.979   1.494 124.647  0.00  0.00    +0.000 C 
ATOM     36  S   UNL     1      -9.820   0.948 122.947  0.00  0.00    +0.000 S 
ATOM     37  O   UNL     1     -11.079   0.354 122.552  0.00  0.00    +0.000 OA
ATOM     38  O   UNL     1      -9.232   2.029 122.185  0.00  0.00    +0.000 OA
ENDBRANCH  29  36
ENDBRANCH   1  32
TORSDOF 4
ENDMDL
MODEL 5
REMARK VINA RESULT:      -9.7      3.266      8.358
REMARK  Name = CHEMBL31978
REMARK  5 active torsions:
REMARK  status: ('A' for Active; 'I' for Inactive)
REMARK    1  A    between atoms: C_1  and  S_2
REMARK    2  A    between atoms: S_2  and  N_5
REMARK    3  A    between atoms: C_8  and  C_9
REMARK    4  A    between atoms: C_13  and  C_14
REMARK    5  A    between atoms: C_19  and  N_20
REMARK                            x       y       z     vdW  Elec       q    Type
REMARK                         _______ _______ _______ _____ _____    ______ ____
ROOT
ATOM      1  C   UNL     1      -7.620  -2.274 124.666  0.00  0.00    +0.000 A 
ATOM      2  C   UNL     1      -6.606  -1.939 125.535  0.00  0.00    +0.000 A 
ATOM      3  C   UNL     1      -6.950  -2.476 126.802  0.00  0.00    +0.000 A 
ATOM      4  C   UNL     1      -6.366  -2.478 128.082  0.00  0.00    +0.000 A 
ATOM      5  C   UNL     1      -7.033  -3.119 129.143  0.00  0.00    +0.000 A 
ATOM      6  C   UNL     1      -8.285  -3.716 128.914  0.00  0.00    +0.000 A 
ATOM      7  C   UNL     1      -8.867  -3.758 127.640  0.00  0.00    +0.000 A 
ATOM      8  C   UNL     1      -8.167  -3.119 126.623  0.00  0.00    +0.000 A 
ATOM      9  O   UNL     1      -8.566  -3.008 125.327  0.00  0.00    +0.000 OA
ENDROOT
BRANCH   5  10
ATOM     10  C   UNL     1      -6.416  -3.047 130.512  0.00  0.00    +0.000 C 
ATOM     11  O   UNL     1      -5.839  -4.023 130.984  0.00  0.00    +0.000 OA
ATOM     12  N   UNL     1      -6.437  -1.824 131.161  0.00  0.00    +0.000 N 
ATOM     13  C   UNL     1      -5.193  -1.247 131.660  0.00  0.00    +0.000 C 
ATOM     14  C   UNL     1      -5.259  -0.980 133.151  0.00  0.00    +0.000 C 
ATOM     15  C   UNL     1      -6.505  -0.144 133.514  0.00  0.00    +0.000 C 
ATOM     16  C   UNL     1      -7.770  -0.836 132.990  0.00  0.00    +0.000 C 
ATOM     17  C   UNL     1      -7.689  -1.162 131.508  0.00  0.00    +0.000 C 
BRANCH  15  18
ATOM     18  N   UNL     1      -6.354   1.307 133.155  0.00  0.00    +0.000 N 
ATOM     19  C   UNL     1      -7.417   2.152 132.834  0.00  0.00    +0.000 C 
ATOM     20  O   UNL     1      -8.467   2.311 133.446  0.00  0.00    +0.000 OA
ATOM     21  O   UNL     1      -7.247   2.805 131.659  0.00  0.00    +0.000 OA
ATOM     22  C   UNL     1      -6.214   3.759 131.776  0.00  0.00    +0.000 C 
ATOM     23  C   UNL     1      -4.982   3.140 132.357  0.00  0.00    +0.000 A 
ATOM     24  C   UNL     1      -3.770   3.826 132.257  0.00  0.00    +0.000 A 
ATOM     25  C   UNL     1      -2.623   3.282 132.816  0.00  0.00    +0.000 A 
ATOM     26  C   UNL     1      -2.688   2.060 133.481  0.00  0.00    +0.000 A 
ATOM     27  C   UNL     1      -3.899   1.369 133.584  0.00  0.00    +0.000 A 
ATOM     28  C   UNL     1      -5.059   1.899 133.018  0.00  0.00    +0.000 A 
ENDBRANCH  15  18
ENDBRANCH   5  10
BRANCH   1  32
ATOM     29  N   UNL     1      -8.311   0.913 122.949  0.00  0.00    +0.000 NA
ATOM     30  C   UNL     1      -6.932   0.396 123.171  0.00  0.00    +0.000 C 
ATOM     31  C   UNL     1      -6.770  -1.023 122.648  0.00  0.00    +0.000 C 
ATOM     32  C   UNL     1      -7.834  -1.964 123.212  0.00  0.00    +0.000 C 
ATOM     33  C   UNL     1      -9.228  -1.408 122.927  0.00  0.00    +0.000 C 
ATOM     34  C   UNL     1      -9.389   0.012 123.445  0.00  0.00    +0.000 C 
BRANCH  29  36
ATOM     35  C   UNL     1      -6.854   3.008 123.946  0.00  0.00    +0.000 C 
ATOM     36  S   UNL     1      -8.513   2.548 123.444  0.00  0.00    +0.000 S 
ATOM     37  O   UNL     1      -9.352   2.557 124.623  0.00  0.00    +0.000 OA
ATOM     38  O   UNL     1      -8.858   3.329 122.276  0.00  0.00    +0.000 OA
ENDBRANCH  29  36
ENDBRANCH   1  32
TORSDOF 4
ENDMDL
MODEL 6
REMARK VINA RESULT:      -9.5      3.087      8.918
REMARK  Name = CHEMBL31978
REMARK  5 active torsions:
REMARK  status: ('A' for Active; 'I' for Inactive)
REMARK    1  A    between atoms: C_1  and  S_2
REMARK    2  A    between atoms: S_2  and  N_5
REMARK    3  A    between atoms: C_8  and  C_9
REMARK    4  A    between atoms: C_13  and  C_14
REMARK    5  A    between atoms: C_19  and  N_20
REMARK                            x       y       z     vdW  Elec       q    Type
REMARK                         _______ _______ _______ _____ _____    ______ ____
ROOT
ATOM      1  C   UNL     1      -6.535  -2.165 126.235  0.00  0.00    +0.000 A 
ATOM      2  C   UNL     1      -5.689  -1.360 126.966  0.00  0.00    +0.000 A 
ATOM      3  C   UNL     1      -6.119  -1.424 128.316  0.00  0.00    +0.000 A 
ATOM      4  C   UNL     1      -5.705  -0.842 129.528  0.00  0.00    +0.000 A 
ATOM      5  C   UNL     1      -6.413  -1.133 130.710  0.00  0.00    +0.000 A 
ATOM      6  C   UNL     1      -7.538  -1.973 130.654  0.00  0.00    +0.000 A 
ATOM      7  C   UNL     1      -7.945  -2.593 129.465  0.00  0.00    +0.000 A 
ATOM      8  C   UNL     1      -7.210  -2.281 128.326  0.00  0.00    +0.000 A 
ATOM      9  O   UNL     1      -7.453  -2.740 127.069  0.00  0.00    +0.000 OA
ENDROOT
BRANCH   5  10
ATOM     10  C   UNL     1      -5.988  -0.444 131.977  0.00  0.00    +0.000 C 
ATOM     11  O   UNL     1      -5.563  -1.097 132.926  0.00  0.00    +0.000 OA
ATOM     12  N   UNL     1      -5.999   0.941 131.987  0.00  0.00    +0.000 N 
ATOM     13  C   UNL     1      -4.793   1.672 132.362  0.00  0.00    +0.000 C 
ATOM     14  C   UNL     1      -5.044   2.597 133.538  0.00  0.00    +0.000 C 
ATOM     15  C   UNL     1      -6.255   3.517 133.277  0.00  0.00    +0.000 C 
ATOM     16  C   UNL     1      -7.488   2.672 132.928  0.00  0.00    +0.000 C 
ATOM     17  C   UNL     1      -7.228   1.699 131.790  0.00  0.00    +0.000 C 
BRANCH  15  18
ATOM     18  N   UNL     1      -5.938   4.638 132.328  0.00  0.00    +0.000 N 
ATOM     19  C   UNL     1      -6.517   4.787 131.067  0.00  0.00    +0.000 C 
ATOM     20  O   UNL     1      -7.705   4.741 130.771  0.00  0.00    +0.000 OA
ATOM     21  O   UNL     1      -5.607   4.933 130.074  0.00  0.00    +0.000 OA
ATOM     22  C   UNL     1      -4.958   6.182 130.186  0.00  0.00    +0.000 C 
ATOM     23  C   UNL     1      -4.441   6.389 131.574  0.00  0.00    +0.000 A 
ATOM     24  C   UNL     1      -3.506   7.402 131.802  0.00  0.00    +0.000 A 
ATOM     25  C   UNL     1      -3.037   7.628 133.087  0.00  0.00    +0.000 A 
ATOM     26  C   UNL     1      -3.506   6.852 134.144  0.00  0.00    +0.000 A 
ATOM     27  C   UNL     1      -4.442   5.838 133.921  0.00  0.00    +0.000 A 
ATOM     28  C   UNL     1      -4.916   5.591 132.632  0.00  0.00    +0.000 A 
ENDBRANCH  15  18
ENDBRANCH   5  10
BRANCH   1  32
ATOM     29  N   UNL     1      -8.550  -0.662 123.541  0.00  0.00    +0.000 NA
ATOM     30  C   UNL     1      -7.193  -0.171 123.905  0.00  0.00    +0.000 C 
ATOM     31  C   UNL     1      -6.165  -1.292 123.898  0.00  0.00    +0.000 C 
ATOM     32  C   UNL     1      -6.601  -2.472 124.766  0.00  0.00    +0.000 C 
ATOM     33  C   UNL     1      -7.981  -2.961 124.329  0.00  0.00    +0.000 C 
ATOM     34  C   UNL     1      -9.007  -1.839 124.332  0.00  0.00    +0.000 C 
BRANCH  29  36
ATOM     35  C   UNL     1      -8.754   1.993 122.897  0.00  0.00    +0.000 C 
ATOM     36  S   UNL     1      -9.725   0.590 123.448  0.00  0.00    +0.000 S 
ATOM     37  O   UNL     1     -10.186   0.869 124.791  0.00  0.00    +0.000 OA
ATOM     38  O   UNL     1     -10.657   0.252 122.394  0.00  0.00    +0.000 OA
ENDBRANCH  29  36
ENDBRANCH   1  32
TORSDOF 4
ENDMDL
MODEL 7
REMARK VINA RESULT:      -9.5      4.922      9.666
REMARK  Name = CHEMBL31978
REMARK  5 active torsions:
REMARK  status: ('A' for Active; 'I' for Inactive)
REMARK    1  A    between atoms: C_1  and  S_2
REMARK    2  A    between atoms: S_2  and  N_5
REMARK    3  A    between atoms: C_8  and  C_9
REMARK    4  A    between atoms: C_13  and  C_14
REMARK    5  A    between atoms: C_19  and  N_20
REMARK                            x       y       z     vdW  Elec       q    Type
REMARK                         _______ _______ _______ _____ _____    ______ ____
ROOT
ATOM      1  C   UNL     1      -6.642  -2.515 125.672  0.00  0.00    +0.000 A 
ATOM      2  C   UNL     1      -5.628  -1.959 126.420  0.00  0.00    +0.000 A 
ATOM      3  C   UNL     1      -6.023  -2.038 127.780  0.00  0.00    +0.000 A 
ATOM      4  C   UNL     1      -5.463  -1.648 129.010  0.00  0.00    +0.000 A 
ATOM      5  C   UNL     1      -6.183  -1.879 130.199  0.00  0.00    +0.000 A 
ATOM      6  C   UNL     1      -7.459  -2.464 130.133  0.00  0.00    +0.000 A 
ATOM      7  C   UNL     1      -8.019  -2.894 128.923  0.00  0.00    +0.000 A 
ATOM      8  C   UNL     1      -7.268  -2.652 127.778  0.00  0.00    +0.000 A 
ATOM      9  O   UNL     1      -7.636  -2.953 126.503  0.00  0.00    +0.000 OA
ENDROOT
BRANCH   5  10
ATOM     10  C   UNL     1      -5.588  -1.391 131.491  0.00  0.00    +0.000 C 
ATOM     11  O   UNL     1      -4.893  -0.380 131.510  0.00  0.00    +0.000 OA
ATOM     12  N   UNL     1      -5.938  -2.062 132.651  0.00  0.00    +0.000 N 
ATOM     13  C   UNL     1      -6.489  -1.319 133.779  0.00  0.00    +0.000 C 
ATOM     14  C   UNL     1      -5.659  -1.513 135.034  0.00  0.00    +0.000 C 
ATOM     15  C   UNL     1      -5.449  -3.012 135.338  0.00  0.00    +0.000 C 
ATOM     16  C   UNL     1      -4.832  -3.711 134.120  0.00  0.00    +0.000 C 
ATOM     17  C   UNL     1      -5.623  -3.473 132.844  0.00  0.00    +0.000 C 
BRANCH  15  18
ATOM     18  N   UNL     1      -6.672  -3.663 135.919  0.00  0.00    +0.000 N 
ATOM     19  C   UNL     1      -7.197  -4.879 135.482  0.00  0.00    +0.000 C 
ATOM     20  O   UNL     1      -6.604  -5.934 135.293  0.00  0.00    +0.000 OA
ATOM     21  O   UNL     1      -8.516  -4.814 135.178  0.00  0.00    +0.000 OA
ATOM     22  C   UNL     1      -9.278  -4.636 136.353  0.00  0.00    +0.000 C 
ATOM     23  C   UNL     1      -8.744  -3.500 137.166  0.00  0.00    +0.000 A 
ATOM     24  C   UNL     1      -9.537  -2.967 138.185  0.00  0.00    +0.000 A 
ATOM     25  C   UNL     1      -9.048  -1.933 138.969  0.00  0.00    +0.000 A 
ATOM     26  C   UNL     1      -7.765  -1.438 138.742  0.00  0.00    +0.000 A 
ATOM     27  C   UNL     1      -6.968  -1.968 137.724  0.00  0.00    +0.000 A 
ATOM     28  C   UNL     1      -7.451  -3.002 136.920  0.00  0.00    +0.000 A 
ENDBRANCH  15  18
ENDBRANCH   5  10
BRANCH   1  32
ATOM     29  N   UNL     1      -8.723  -0.678 123.249  0.00  0.00    +0.000 NA
ATOM     30  C   UNL     1      -7.320  -0.292 123.566  0.00  0.00    +0.000 C 
ATOM     31  C   UNL     1      -6.361  -1.460 123.399  0.00  0.00    +0.000 C 
ATOM     32  C   UNL     1      -6.813  -2.688 124.190  0.00  0.00    +0.000 C 
ATOM     33  C   UNL     1      -8.242  -3.064 123.801  0.00  0.00    +0.000 C 
ATOM     34  C   UNL     1      -9.199  -1.894 123.964  0.00  0.00    +0.000 C 
BRANCH  29  36
ATOM     35  C   UNL     1      -8.823   2.024 122.803  0.00  0.00    +0.000 C 
ATOM     36  S   UNL     1      -9.827   0.638 123.337  0.00  0.00    +0.000 S 
ATOM     37  O   UNL     1     -10.164   0.844 124.730  0.00  0.00    +0.000 OA
ATOM     38  O   UNL     1     -10.857   0.425 122.344  0.00  0.00    +0.000 OA
ENDBRANCH  29  36
ENDBRANCH   1  32
TORSDOF 4
ENDMDL
MODEL 8
REMARK VINA RESULT:      -9.5      4.662      9.998
REMARK  Name = CHEMBL31978
REMARK  5 active torsions:
REMARK  status: ('A' for Active; 'I' for Inactive)
REMARK    1  A    between atoms: C_1  and  S_2
REMARK    2  A    between atoms: S_2  and  N_5
REMARK    3  A    between atoms: C_8  and  C_9
REMARK    4  A    between atoms: C_13  and  C_14
REMARK    5  A    between atoms: C_19  and  N_20
REMARK                            x       y       z     vdW  Elec       q    Type
REMARK                         _______ _______ _______ _____ _____    ______ ____
ROOT
ATOM      1  C   UNL     1      -6.413   3.321 125.208  0.00  0.00    +0.000 A 
ATOM      2  C   UNL     1      -6.557   4.162 126.289  0.00  0.00    +0.000 A 
ATOM      3  C   UNL     1      -5.286   4.261 126.911  0.00  0.00    +0.000 A 
ATOM      4  C   UNL     1      -4.771   4.930 128.036  0.00  0.00    +0.000 A 
ATOM      5  C   UNL     1      -3.412   4.769 128.371  0.00  0.00    +0.000 A 
ATOM      6  C   UNL     1      -2.605   3.918 127.597  0.00  0.00    +0.000 A 
ATOM      7  C   UNL     1      -3.088   3.272 126.451  0.00  0.00    +0.000 A 
ATOM      8  C   UNL     1      -4.433   3.468 126.157  0.00  0.00    +0.000 A 
ATOM      9  O   UNL     1      -5.112   2.910 125.118  0.00  0.00    +0.000 OA
ENDROOT
BRANCH   5  10
ATOM     10  C   UNL     1      -2.907   5.443 129.616  0.00  0.00    +0.000 C 
ATOM     11  O   UNL     1      -2.045   6.314 129.543  0.00  0.00    +0.000 OA
ATOM     12  N   UNL     1      -3.519   5.118 130.814  0.00  0.00    +0.000 N 
ATOM     13  C   UNL     1      -4.063   6.175 131.661  0.00  0.00    +0.000 C 
ATOM     14  C   UNL     1      -3.450   6.150 133.048  0.00  0.00    +0.000 C 
ATOM     15  C   UNL     1      -3.561   4.747 133.683  0.00  0.00    +0.000 C 
ATOM     16  C   UNL     1      -2.933   3.701 132.751  0.00  0.00    +0.000 C 
ATOM     17  C   UNL     1      -3.499   3.758 131.341  0.00  0.00    +0.000 C 
BRANCH  15  18
ATOM     18  N   UNL     1      -4.947   4.441 134.175  0.00  0.00    +0.000 N 
ATOM     19  C   UNL     1      -5.725   3.376 133.719  0.00  0.00    +0.000 C 
ATOM     20  O   UNL     1      -5.401   2.200 133.600  0.00  0.00    +0.000 OA
ATOM     21  O   UNL     1      -6.960   3.752 133.308  0.00  0.00    +0.000 OA
ATOM     22  C   UNL     1      -7.738   4.159 134.413  0.00  0.00    +0.000 C 
ATOM     23  C   UNL     1      -7.000   5.159 135.245  0.00  0.00    +0.000 A 
ATOM     24  C   UNL     1      -7.709   5.910 136.186  0.00  0.00    +0.000 A 
ATOM     25  C   UNL     1      -7.036   6.821 136.986  0.00  0.00    +0.000 A 
ATOM     26  C   UNL     1      -5.658   6.975 136.856  0.00  0.00    +0.000 A 
ATOM     27  C   UNL     1      -4.944   6.225 135.916  0.00  0.00    +0.000 A 
ATOM     28  C   UNL     1      -5.609   5.312 135.095  0.00  0.00    +0.000 A 
ENDBRANCH  15  18
ENDBRANCH   5  10
BRANCH   1  32
ATOM     29  N   UNL     1      -8.310   0.165 125.053  0.00  0.00    +0.000 NA
ATOM     30  C   UNL     1      -8.833   1.391 125.718  0.00  0.00    +0.000 C 
ATOM     31  C   UNL     1      -8.792   2.597 124.791  0.00  0.00    +0.000 C 
ATOM     32  C   UNL     1      -7.401   2.814 124.196  0.00  0.00    +0.000 C 
ATOM     33  C   UNL     1      -6.927   1.541 123.496  0.00  0.00    +0.000 C 
ATOM     34  C   UNL     1      -6.972   0.336 124.422  0.00  0.00    +0.000 C 
BRANCH  29  36
ATOM     35  C   UNL     1      -7.058  -2.240 125.442  0.00  0.00    +0.000 C 
ATOM     36  S   UNL     1      -8.423  -1.242 126.036  0.00  0.00    +0.000 S 
ATOM     37  O   UNL     1      -9.653  -1.925 125.698  0.00  0.00    +0.000 OA
ATOM     38  O   UNL     1      -8.133  -0.857 127.401  0.00  0.00    +0.000 OA
ENDBRANCH  29  36
ENDBRANCH   1  32
TORSDOF 4
ENDMDL
MODEL 9
REMARK VINA RESULT:      -9.3      3.562      8.850
REMARK  Name = CHEMBL31978
REMARK  5 active torsions:
REMARK  status: ('A' for Active; 'I' for Inactive)
REMARK    1  A    between atoms: C_1  and  S_2
REMARK    2  A    between atoms: S_2  and  N_5
REMARK    3  A    between atoms: C_8  and  C_9
REMARK    4  A    between atoms: C_13  and  C_14
REMARK    5  A    between atoms: C_19  and  N_20
REMARK                            x       y       z     vdW  Elec       q    Type
REMARK                         _______ _______ _______ _____ _____    ______ ____
ROOT
ATOM      1  C   UNL     1      -7.378  -2.519 125.103  0.00  0.00    +0.000 A 
ATOM      2  C   UNL     1      -6.359  -2.118 125.938  0.00  0.00    +0.000 A 
ATOM      3  C   UNL     1      -6.743  -2.465 127.259  0.00  0.00    +0.000 A 
ATOM      4  C   UNL     1      -6.174  -2.324 128.537  0.00  0.00    +0.000 A 
ATOM      5  C   UNL     1      -6.884  -2.786 129.663  0.00  0.00    +0.000 A 
ATOM      6  C   UNL     1      -8.160  -3.350 129.492  0.00  0.00    +0.000 A 
ATOM      7  C   UNL     1      -8.729  -3.535 128.225  0.00  0.00    +0.000 A 
ATOM      8  C   UNL     1      -7.987  -3.069 127.145  0.00  0.00    +0.000 A 
ATOM      9  O   UNL     1      -8.365  -3.115 125.839  0.00  0.00    +0.000 OA
ENDROOT
BRANCH   5  10
ATOM     10  C   UNL     1      -6.280  -2.561 131.021  0.00  0.00    +0.000 C 
ATOM     11  O   UNL     1      -5.895  -3.513 131.693  0.00  0.00    +0.000 OA
ATOM     12  N   UNL     1      -6.087  -1.251 131.427  0.00  0.00    +0.000 N 
ATOM     13  C   UNL     1      -4.765  -0.816 131.865  0.00  0.00    +0.000 C 
ATOM     14  C   UNL     1      -4.800  -0.259 133.276  0.00  0.00    +0.000 C 
ATOM     15  C   UNL     1      -5.878   0.837 133.417  0.00  0.00    +0.000 C 
ATOM     16  C   UNL     1      -7.241   0.289 132.975  0.00  0.00    +0.000 C 
ATOM     17  C   UNL     1      -7.203  -0.326 131.585  0.00  0.00    +0.000 C 
BRANCH  15  18
ATOM     18  N   UNL     1      -5.463   2.142 132.799  0.00  0.00    +0.000 N 
ATOM     19  C   UNL     1      -4.903   2.265 131.527  0.00  0.00    +0.000 C 
ATOM     20  O   UNL     1      -5.303   1.781 130.475  0.00  0.00    +0.000 OA
ATOM     21  O   UNL     1      -3.740   2.960 131.519  0.00  0.00    +0.000 OA
ATOM     22  C   UNL     1      -3.983   4.321 131.804  0.00  0.00    +0.000 C 
ATOM     23  C   UNL     1      -4.815   4.465 133.039  0.00  0.00    +0.000 A 
ATOM     24  C   UNL     1      -4.893   5.715 133.657  0.00  0.00    +0.000 A 
ATOM     25  C   UNL     1      -5.683   5.875 134.786  0.00  0.00    +0.000 A 
ATOM     26  C   UNL     1      -6.400   4.793 135.291  0.00  0.00    +0.000 A 
ATOM     27  C   UNL     1      -6.325   3.540 134.675  0.00  0.00    +0.000 A 
ATOM     28  C   UNL     1      -5.526   3.361 133.544  0.00  0.00    +0.000 A 
ENDBRANCH  15  18
ENDBRANCH   5  10
BRANCH   1  32
ATOM     29  N   UNL     1      -8.186   0.397 122.999  0.00  0.00    +0.000 NA
ATOM     30  C   UNL     1      -6.789  -0.008 123.318  0.00  0.00    +0.000 C 
ATOM     31  C   UNL     1      -6.531  -1.467 122.973  0.00  0.00    +0.000 C 
ATOM     32  C   UNL     1      -7.560  -2.397 123.617  0.00  0.00    +0.000 C 
ATOM     33  C   UNL     1      -8.972  -1.961 123.230  0.00  0.00    +0.000 C 
ATOM     34  C   UNL     1      -9.228  -0.502 123.570  0.00  0.00    +0.000 C 
BRANCH  29  36
ATOM     35  C   UNL     1      -6.845   2.766 123.303  0.00  0.00    +0.000 C 
ATOM     36  S   UNL     1      -8.494   2.064 123.289  0.00  0.00    +0.000 S 
ATOM     37  O   UNL     1      -9.043   2.190 124.622  0.00  0.00    +0.000 OA
ATOM     38  O   UNL     1      -9.195   2.595 122.139  0.00  0.00    +0.000 OA
ENDBRANCH  29  36
ENDBRANCH   1  32
TORSDOF 4
ENDMDL
