MODEL 1
REMARK VINA RESULT:      -8.1      0.000      0.000
REMARK  Name = CHEMBL200792
REMARK  8 active torsions:
REMARK  status: ('A' for Active; 'I' for Inactive)
REMARK    1  A    between atoms: C_2  and  C_3
REMARK    2  A    between atoms: C_3  and  N_4
REMARK    3  A    between atoms: N_4  and  C_5
REMARK    4  A    between atoms: N_4  and  S_12
REMARK    5  A    between atoms: S_12  and  C_15
REMARK    6  A    between atoms: N_21  and  N_22
REMARK    7  A    between atoms: C_23  and  C_24
REMARK    8  A    between atoms: C_29  and  O_30
REMARK                            x       y       z     vdW  Elec       q    Type
REMARK                         _______ _______ _______ _____ _____    ______ ____
ROOT
ATOM      1  N   UNL     1      -8.663   2.263 123.409  0.00  0.00    +0.000 N 
ENDROOT
BRANCH   1   2
ATOM      2  C   UNL     1      -7.979   2.849 122.307  0.00  0.00    +0.000 A 
ATOM      3  C   UNL     1      -8.747   3.472 121.308  0.00  0.00    +0.000 A 
ATOM      4  C   UNL     1      -8.128   4.043 120.201  0.00  0.00    +0.000 A 
ATOM      5  C   UNL     1      -6.744   4.158 120.181  0.00  0.00    +0.000 A 
ATOM      6 CL   UNL     1      -5.980   5.017 118.905  0.00  0.00    +0.000 Cl
ATOM      7  C   UNL     1      -5.973   3.604 121.205  0.00  0.00    +0.000 A 
ATOM      8  C   UNL     1      -6.584   2.845 122.211  0.00  0.00    +0.000 A 
ENDBRANCH   1   2
BRANCH   1   9
ATOM      9  S   UNL     1      -9.528   0.783 123.300  0.00  0.00    +0.000 S 
ATOM     10  O   UNL     1     -10.355   0.680 124.496  0.00  0.00    +0.000 OA
ATOM     11  O   UNL     1     -10.156   0.770 121.996  0.00  0.00    +0.000 OA
BRANCH   9  12
ATOM     12  C   UNL     1      -8.443  -0.674 123.339  0.00  0.00    +0.000 A 
ATOM     13  C   UNL     1      -8.917  -1.957 123.558  0.00  0.00    +0.000 A 
ATOM     14  C   UNL     1      -8.118  -2.975 124.065  0.00  0.00    +0.000 A 
ATOM     15  C   UNL     1      -6.753  -2.845 123.961  0.00  0.00    +0.000 A 
ATOM     16  C   UNL     1      -6.226  -1.646 123.476  0.00  0.00    +0.000 A 
ATOM     17  C   UNL     1      -7.059  -0.533 123.236  0.00  0.00    +0.000 A 
ENDBRANCH   9  12
ENDBRANCH   1   9
BRANCH   1  18
ATOM     18  C   UNL     1      -8.751   3.060 124.694  0.00  0.00    +0.000 C 
BRANCH  18  20
ATOM     19  O   UNL     1      -7.156   4.973 124.903  0.00  0.00    +0.000 OA
ATOM     20  C   UNL     1      -7.460   3.801 125.151  0.00  0.00    +0.000 C 
ATOM     21  N   UNL     1      -6.541   3.160 125.921  0.00  0.00    +0.000 N 
ATOM     22  H   UNL     1      -5.716   3.711 126.139  0.00  0.00    +0.000 HD
BRANCH  21  23
ATOM     23  N   UNL     1      -6.831   2.048 126.599  0.00  0.00    +0.000 NA
ATOM     24  C   UNL     1      -6.135   1.010 126.269  0.00  0.00    +0.000 C 
BRANCH  24  25
ATOM     25  C   UNL     1      -6.427  -0.287 126.884  0.00  0.00    +0.000 A 
ATOM     26  C   UNL     1      -5.376  -1.148 127.212  0.00  0.00    +0.000 A 
ATOM     27  C   UNL     1      -5.671  -2.418 127.709  0.00  0.00    +0.000 A 
ATOM     28  C   UNL     1      -7.000  -2.793 127.928  0.00  0.00    +0.000 A 
ATOM     29  C   UNL     1      -8.044  -1.920 127.619  0.00  0.00    +0.000 A 
ATOM     30  C   UNL     1      -7.757  -0.671 127.084  0.00  0.00    +0.000 A 
BRANCH  30  31
ATOM     31  O   UNL     1      -8.774   0.158 126.707  0.00  0.00    +0.000 OA
ATOM     32  H   UNL     1      -9.512   0.095 127.332  0.00  0.00    +0.000 HD
ENDBRANCH  30  31
ENDBRANCH  24  25
ENDBRANCH  21  23
ENDBRANCH  18  20
ENDBRANCH   1  18
TORSDOF 8
ENDMDL
MODEL 2
REMARK VINA RESULT:      -8.0      4.220      7.037
REMARK  Name = CHEMBL200792
REMARK  8 active torsions:
REMARK  status: ('A' for Active; 'I' for Inactive)
REMARK    1  A    between atoms: C_2  and  C_3
REMARK    2  A    between atoms: C_3  and  N_4
REMARK    3  A    between atoms: N_4  and  C_5
REMARK    4  A    between atoms: N_4  and  S_12
REMARK    5  A    between atoms: S_12  and  C_15
REMARK    6  A    between atoms: N_21  and  N_22
REMARK    7  A    between atoms: C_23  and  C_24
REMARK    8  A    between atoms: C_29  and  O_30
REMARK                            x       y       z     vdW  Elec       q    Type
REMARK                         _______ _______ _______ _____ _____    ______ ____
ROOT
ATOM      1  N   UNL     1      -7.754   2.365 126.478  0.00  0.00    +0.000 N 
ENDROOT
BRANCH   1   2
ATOM      2  C   UNL     1      -7.124   1.166 126.043  0.00  0.00    +0.000 A 
ATOM      3  C   UNL     1      -7.858   0.294 125.220  0.00  0.00    +0.000 A 
ATOM      4  C   UNL     1      -7.294  -0.901 124.784  0.00  0.00    +0.000 A 
ATOM      5  C   UNL     1      -5.944  -1.137 125.012  0.00  0.00    +0.000 A 
ATOM      6 CL   UNL     1      -5.196  -2.524 124.327  0.00  0.00    +0.000 Cl
ATOM      7  C   UNL     1      -5.187  -0.242 125.770  0.00  0.00    +0.000 A 
ATOM      8  C   UNL     1      -5.805   0.853 126.387  0.00  0.00    +0.000 A 
ENDBRANCH   1   2
BRANCH   1   9
ATOM      9  S   UNL     1      -7.537   3.879 125.695  0.00  0.00    +0.000 S 
ATOM     10  O   UNL     1      -8.864   4.414 125.418  0.00  0.00    +0.000 OA
ATOM     11  O   UNL     1      -6.620   4.639 126.518  0.00  0.00    +0.000 OA
BRANCH   9  12
ATOM     12  C   UNL     1      -6.733   3.727 124.073  0.00  0.00    +0.000 A 
ATOM     13  C   UNL     1      -5.450   4.186 123.825  0.00  0.00    +0.000 A 
ATOM     14  C   UNL     1      -5.008   4.525 122.551  0.00  0.00    +0.000 A 
ATOM     15  C   UNL     1      -5.687   4.015 121.469  0.00  0.00    +0.000 A 
ATOM     16  C   UNL     1      -6.863   3.295 121.690  0.00  0.00    +0.000 A 
ATOM     17  C   UNL     1      -7.430   3.212 122.979  0.00  0.00    +0.000 A 
ENDBRANCH   9  12
ENDBRANCH   1   9
BRANCH   1  18
ATOM     18  C   UNL     1      -8.532   2.327 127.776  0.00  0.00    +0.000 C 
BRANCH  18  20
ATOM     19  O   UNL     1      -6.756   2.505 129.526  0.00  0.00    +0.000 OA
ATOM     20  C   UNL     1      -7.821   2.899 129.039  0.00  0.00    +0.000 C 
ATOM     21  N   UNL     1      -8.361   3.951 129.708  0.00  0.00    +0.000 N 
ATOM     22  H   UNL     1      -7.847   4.230 130.539  0.00  0.00    +0.000 HD
BRANCH  21  23
ATOM     23  N   UNL     1      -9.279   4.749 129.161  0.00  0.00    +0.000 NA
ATOM     24  C   UNL     1      -9.378   5.920 129.700  0.00  0.00    +0.000 C 
BRANCH  24  25
ATOM     25  C   UNL     1     -10.414   6.848 129.240  0.00  0.00    +0.000 A 
ATOM     26  C   UNL     1     -11.291   7.418 130.165  0.00  0.00    +0.000 A 
ATOM     27  C   UNL     1     -12.331   8.226 129.704  0.00  0.00    +0.000 A 
ATOM     28  C   UNL     1     -12.450   8.503 128.339  0.00  0.00    +0.000 A 
ATOM     29  C   UNL     1     -11.557   7.947 127.422  0.00  0.00    +0.000 A 
ATOM     30  C   UNL     1     -10.546   7.109 127.872  0.00  0.00    +0.000 A 
BRANCH  30  31
ATOM     31  O   UNL     1      -9.716   6.501 126.974  0.00  0.00    +0.000 OA
ATOM     32  H   UNL     1      -9.023   7.113 126.685  0.00  0.00    +0.000 HD
ENDBRANCH  30  31
ENDBRANCH  24  25
ENDBRANCH  21  23
ENDBRANCH  18  20
ENDBRANCH   1  18
TORSDOF 8
ENDMDL
MODEL 3
REMARK VINA RESULT:      -7.9      3.003      6.467
REMARK  Name = CHEMBL200792
REMARK  8 active torsions:
REMARK  status: ('A' for Active; 'I' for Inactive)
REMARK    1  A    between atoms: C_2  and  C_3
REMARK    2  A    between atoms: C_3  and  N_4
REMARK    3  A    between atoms: N_4  and  C_5
REMARK    4  A    between atoms: N_4  and  S_12
REMARK    5  A    between atoms: S_12  and  C_15
REMARK    6  A    between atoms: N_21  and  N_22
REMARK    7  A    between atoms: C_23  and  C_24
REMARK    8  A    between atoms: C_29  and  O_30
REMARK                            x       y       z     vdW  Elec       q    Type
REMARK                         _______ _______ _______ _____ _____    ______ ____
ROOT
ATOM      1  N   UNL     1      -7.336   1.408 125.772  0.00  0.00    +0.000 N 
ENDROOT
BRANCH   1   2
ATOM      2  C   UNL     1      -6.828   0.638 126.856  0.00  0.00    +0.000 A 
ATOM      3  C   UNL     1      -7.444   0.777 128.111  0.00  0.00    +0.000 A 
ATOM      4  C   UNL     1      -6.972   0.061 129.207  0.00  0.00    +0.000 A 
ATOM      5  C   UNL     1      -6.014  -0.926 129.012  0.00  0.00    +0.000 A 
ATOM      6 CL   UNL     1      -5.554  -1.934 130.325  0.00  0.00    +0.000 Cl
ATOM      7  C   UNL     1      -5.445  -1.120 127.753  0.00  0.00    +0.000 A 
ATOM      8  C   UNL     1      -5.766  -0.258 126.697  0.00  0.00    +0.000 A 
ENDBRANCH   1   2
BRANCH   1   9
ATOM      9  S   UNL     1      -8.161   0.717 124.433  0.00  0.00    +0.000 S 
ATOM     10  O   UNL     1      -9.492   1.311 124.395  0.00  0.00    +0.000 OA
ATOM     11  O   UNL     1      -7.284   0.862 123.291  0.00  0.00    +0.000 OA
BRANCH   9  12
ATOM     12  C   UNL     1      -8.438  -1.069 124.618  0.00  0.00    +0.000 A 
ATOM     13  C   UNL     1      -9.208  -1.608 125.635  0.00  0.00    +0.000 A 
ATOM     14  C   UNL     1      -9.047  -2.913 126.086  0.00  0.00    +0.000 A 
ATOM     15  C   UNL     1      -8.423  -3.816 125.258  0.00  0.00    +0.000 A 
ATOM     16  C   UNL     1      -7.861  -3.359 124.064  0.00  0.00    +0.000 A 
ATOM     17  C   UNL     1      -7.798  -1.979 123.775  0.00  0.00    +0.000 A 
ENDBRANCH   9  12
ENDBRANCH   1   9
BRANCH   1  18
ATOM     18  C   UNL     1      -7.001   2.884 125.732  0.00  0.00    +0.000 C 
BRANCH  18  20
ATOM     19  O   UNL     1      -4.508   2.920 125.898  0.00  0.00    +0.000 OA
ATOM     20  C   UNL     1      -5.547   3.264 125.325  0.00  0.00    +0.000 C 
ATOM     21  N   UNL     1      -5.325   4.033 124.227  0.00  0.00    +0.000 N 
ATOM     22  H   UNL     1      -4.348   4.260 124.063  0.00  0.00    +0.000 HD
BRANCH  21  23
ATOM     23  N   UNL     1      -6.245   4.201 123.276  0.00  0.00    +0.000 NA
ATOM     24  C   UNL     1      -5.950   3.677 122.132  0.00  0.00    +0.000 C 
BRANCH  24  25
ATOM     25  C   UNL     1      -6.845   3.875 120.989  0.00  0.00    +0.000 A 
ATOM     26  C   UNL     1      -6.320   4.297 119.765  0.00  0.00    +0.000 A 
ATOM     27  C   UNL     1      -7.193   4.572 118.712  0.00  0.00    +0.000 A 
ATOM     28  C   UNL     1      -8.567   4.370 118.870  0.00  0.00    +0.000 A 
ATOM     29  C   UNL     1      -9.083   3.928 120.089  0.00  0.00    +0.000 A 
ATOM     30  C   UNL     1      -8.223   3.693 121.153  0.00  0.00    +0.000 A 
BRANCH  30  31
ATOM     31  O   UNL     1      -8.727   3.334 122.370  0.00  0.00    +0.000 OA
ATOM     32  H   UNL     1      -8.795   2.370 122.438  0.00  0.00    +0.000 HD
ENDBRANCH  30  31
ENDBRANCH  24  25
ENDBRANCH  21  23
ENDBRANCH  18  20
ENDBRANCH   1  18
TORSDOF 8
ENDMDL
MODEL 4
REMARK VINA RESULT:      -7.9      3.174      6.762
REMARK  Name = CHEMBL200792
REMARK  8 active torsions:
REMARK  status: ('A' for Active; 'I' for Inactive)
REMARK    1  A    between atoms: C_2  and  C_3
REMARK    2  A    between atoms: C_3  and  N_4
REMARK    3  A    between atoms: N_4  and  C_5
REMARK    4  A    between atoms: N_4  and  S_12
REMARK    5  A    between atoms: S_12  and  C_15
REMARK    6  A    between atoms: N_21  and  N_22
REMARK    7  A    between atoms: C_23  and  C_24
REMARK    8  A    between atoms: C_29  and  O_30
REMARK                            x       y       z     vdW  Elec       q    Type
REMARK                         _______ _______ _______ _____ _____    ______ ____
ROOT
ATOM      1  N   UNL     1      -7.266  -0.482 125.461  0.00  0.00    +0.000 N 
ENDROOT
BRANCH   1   2
ATOM      2  C   UNL     1      -6.957  -1.273 126.603  0.00  0.00    +0.000 A 
ATOM      3  C   UNL     1      -5.604  -1.445 126.941  0.00  0.00    +0.000 A 
ATOM      4  C   UNL     1      -5.248  -2.225 128.037  0.00  0.00    +0.000 A 
ATOM      5  C   UNL     1      -6.240  -2.676 128.899  0.00  0.00    +0.000 A 
ATOM      6 CL   UNL     1      -5.801  -3.489 130.348  0.00  0.00    +0.000 Cl
ATOM      7  C   UNL     1      -7.587  -2.450 128.609  0.00  0.00    +0.000 A 
ATOM      8  C   UNL     1      -7.952  -1.849 127.398  0.00  0.00    +0.000 A 
ENDBRANCH   1   2
BRANCH   1   9
ATOM      9  S   UNL     1      -7.333  -1.117 123.866  0.00  0.00    +0.000 S 
ATOM     10  O   UNL     1      -8.696  -1.581 123.645  0.00  0.00    +0.000 OA
ATOM     11  O   UNL     1      -6.776  -0.102 122.997  0.00  0.00    +0.000 OA
BRANCH   9  12
ATOM     12  C   UNL     1      -6.285  -2.584 123.645  0.00  0.00    +0.000 A 
ATOM     13  C   UNL     1      -6.677  -3.853 124.036  0.00  0.00    +0.000 A 
ATOM     14  C   UNL     1      -5.767  -4.862 124.329  0.00  0.00    +0.000 A 
ATOM     15  C   UNL     1      -4.490  -4.752 123.833  0.00  0.00    +0.000 A 
ATOM     16  C   UNL     1      -4.122  -3.576 123.174  0.00  0.00    +0.000 A 
ATOM     17  C   UNL     1      -4.988  -2.462 123.143  0.00  0.00    +0.000 A 
ENDBRANCH   9  12
ENDBRANCH   1   9
BRANCH   1  18
ATOM     18  C   UNL     1      -7.395   1.015 125.650  0.00  0.00    +0.000 C 
BRANCH  18  20
ATOM     19  O   UNL     1      -9.547   1.355 126.874  0.00  0.00    +0.000 OA
ATOM     20  C   UNL     1      -8.829   1.572 125.892  0.00  0.00    +0.000 C 
ATOM     21  N   UNL     1      -9.401   2.404 124.983  0.00  0.00    +0.000 N 
ATOM     22  H   UNL     1     -10.350   2.686 125.209  0.00  0.00    +0.000 HD
BRANCH  21  23
ATOM     23  N   UNL     1      -8.687   3.052 124.061  0.00  0.00    +0.000 NA
ATOM     24  C   UNL     1      -8.939   2.715 122.839  0.00  0.00    +0.000 C 
BRANCH  24  25
ATOM     25  C   UNL     1      -8.153   3.295 121.747  0.00  0.00    +0.000 A 
ATOM     26  C   UNL     1      -8.802   3.760 120.601  0.00  0.00    +0.000 A 
ATOM     27  C   UNL     1      -8.037   4.224 119.530  0.00  0.00    +0.000 A 
ATOM     28  C   UNL     1      -6.644   4.274 119.635  0.00  0.00    +0.000 A 
ATOM     29  C   UNL     1      -6.003   3.828 120.792  0.00  0.00    +0.000 A 
ATOM     30  C   UNL     1      -6.758   3.327 121.843  0.00  0.00    +0.000 A 
BRANCH  30  31
ATOM     31  O   UNL     1      -6.135   2.818 122.947  0.00  0.00    +0.000 OA
ATOM     32  H   UNL     1      -6.007   3.510 123.612  0.00  0.00    +0.000 HD
ENDBRANCH  30  31
ENDBRANCH  24  25
ENDBRANCH  21  23
ENDBRANCH  18  20
ENDBRANCH   1  18
TORSDOF 8
ENDMDL
MODEL 5
REMARK VINA RESULT:      -7.7      4.056      5.522
REMARK  Name = CHEMBL200792
REMARK  8 active torsions:
REMARK  status: ('A' for Active; 'I' for Inactive)
REMARK    1  A    between atoms: C_2  and  C_3
REMARK    2  A    between atoms: C_3  and  N_4
REMARK    3  A    between atoms: N_4  and  C_5
REMARK    4  A    between atoms: N_4  and  S_12
REMARK    5  A    between atoms: S_12  and  C_15
REMARK    6  A    between atoms: N_21  and  N_22
REMARK    7  A    between atoms: C_23  and  C_24
REMARK    8  A    between atoms: C_29  and  O_30
REMARK                            x       y       z     vdW  Elec       q    Type
REMARK                         _______ _______ _______ _____ _____    ______ ____
ROOT
ATOM      1  N   UNL     1      -8.082   3.030 124.901  0.00  0.00    +0.000 N 
ENDROOT
BRANCH   1   2
ATOM      2  C   UNL     1      -7.349   3.347 123.723  0.00  0.00    +0.000 A 
ATOM      3  C   UNL     1      -8.012   3.253 122.487  0.00  0.00    +0.000 A 
ATOM      4  C   UNL     1      -7.334   3.533 121.304  0.00  0.00    +0.000 A 
ATOM      5  C   UNL     1      -6.060   4.083 121.367  0.00  0.00    +0.000 A 
ATOM      6 CL   UNL     1      -5.284   4.596 119.922  0.00  0.00    +0.000 Cl
ATOM      7  C   UNL     1      -5.419   4.246 122.596  0.00  0.00    +0.000 A 
ATOM      8  C   UNL     1      -6.017   3.769 123.769  0.00  0.00    +0.000 A 
ENDBRANCH   1   2
BRANCH   1   9
ATOM      9  S   UNL     1      -8.841   1.510 125.157  0.00  0.00    +0.000 S 
ATOM     10  O   UNL     1      -8.548   1.110 126.528  0.00  0.00    +0.000 OA
ATOM     11  O   UNL     1     -10.218   1.663 124.738  0.00  0.00    +0.000 OA
BRANCH   9  12
ATOM     12  C   UNL     1      -8.152   0.191 124.115  0.00  0.00    +0.000 A 
ATOM     13  C   UNL     1      -8.917  -0.529 123.212  0.00  0.00    +0.000 A 
ATOM     14  C   UNL     1      -8.567  -1.804 122.783  0.00  0.00    +0.000 A 
ATOM     15  C   UNL     1      -7.256  -2.198 122.914  0.00  0.00    +0.000 A 
ATOM     16  C   UNL     1      -6.365  -1.362 123.590  0.00  0.00    +0.000 A 
ATOM     17  C   UNL     1      -6.821  -0.205 124.256  0.00  0.00    +0.000 A 
ENDBRANCH   9  12
ENDBRANCH   1   9
BRANCH   1  18
ATOM     18  C   UNL     1      -8.325   4.138 125.904  0.00  0.00    +0.000 C 
BRANCH  18  20
ATOM     19  O   UNL     1      -6.433   3.567 127.434  0.00  0.00    +0.000 OA
ATOM     20  C   UNL     1      -7.560   4.041 127.257  0.00  0.00    +0.000 C 
ATOM     21  N   UNL     1      -8.123   4.526 128.395  0.00  0.00    +0.000 N 
ATOM     22  H   UNL     1      -7.567   4.385 129.233  0.00  0.00    +0.000 HD
BRANCH  21  23
ATOM     23  N   UNL     1      -9.140   5.389 128.376  0.00  0.00    +0.000 NA
ATOM     24  C   UNL     1      -9.462   5.881 129.527  0.00  0.00    +0.000 C 
BRANCH  24  25
ATOM     25  C   UNL     1     -10.620   6.770 129.641  0.00  0.00    +0.000 A 
ATOM     26  C   UNL     1     -10.746   7.855 128.770  0.00  0.00    +0.000 A 
ATOM     27  C   UNL     1     -11.802   8.748 128.948  0.00  0.00    +0.000 A 
ATOM     28  C   UNL     1     -12.751   8.520 129.949  0.00  0.00    +0.000 A 
ATOM     29  C   UNL     1     -12.632   7.422 130.802  0.00  0.00    +0.000 A 
ATOM     30  C   UNL     1     -11.558   6.554 130.656  0.00  0.00    +0.000 A 
BRANCH  30  31
ATOM     31  O   UNL     1     -11.392   5.522 131.534  0.00  0.00    +0.000 OA
ATOM     32  H   UNL     1     -10.481   5.195 131.505  0.00  0.00    +0.000 HD
ENDBRANCH  30  31
ENDBRANCH  24  25
ENDBRANCH  21  23
ENDBRANCH  18  20
ENDBRANCH   1  18
TORSDOF 8
ENDMDL
MODEL 6
REMARK VINA RESULT:      -7.7      3.379      6.057
REMARK  Name = CHEMBL200792
REMARK  8 active torsions:
REMARK  status: ('A' for Active; 'I' for Inactive)
REMARK    1  A    between atoms: C_2  and  C_3
REMARK    2  A    between atoms: C_3  and  N_4
REMARK    3  A    between atoms: N_4  and  C_5
REMARK    4  A    between atoms: N_4  and  S_12
REMARK    5  A    between atoms: S_12  and  C_15
REMARK    6  A    between atoms: N_21  and  N_22
REMARK    7  A    between atoms: C_23  and  C_24
REMARK    8  A    between atoms: C_29  and  O_30
REMARK                            x       y       z     vdW  Elec       q    Type
REMARK                         _______ _______ _______ _____ _____    ______ ____
ROOT
ATOM      1  N   UNL     1      -7.161   2.924 125.236  0.00  0.00    +0.000 N 
ENDROOT
BRANCH   1   2
ATOM      2  C   UNL     1      -6.848   1.710 125.908  0.00  0.00    +0.000 A 
ATOM      3  C   UNL     1      -7.706   1.284 126.936  0.00  0.00    +0.000 A 
ATOM      4  C   UNL     1      -7.434   0.113 127.638  0.00  0.00    +0.000 A 
ATOM      5  C   UNL     1      -6.418  -0.724 127.193  0.00  0.00    +0.000 A 
ATOM      6 CL   UNL     1      -6.188  -2.252 127.943  0.00  0.00    +0.000 Cl
ATOM      7  C   UNL     1      -5.602  -0.341 126.127  0.00  0.00    +0.000 A 
ATOM      8  C   UNL     1      -5.741   0.931 125.557  0.00  0.00    +0.000 A 
ENDBRANCH   1   2
BRANCH   1   9
ATOM      9  S   UNL     1      -6.082   4.259 125.152  0.00  0.00    +0.000 S 
ATOM     10  O   UNL     1      -5.380   4.165 123.878  0.00  0.00    +0.000 OA
ATOM     11  O   UNL     1      -6.866   5.439 125.448  0.00  0.00    +0.000 OA
BRANCH   9  12
ATOM     12  C   UNL     1      -4.784   4.199 126.421  0.00  0.00    +0.000 A 
ATOM     13  C   UNL     1      -4.973   4.666 127.711  0.00  0.00    +0.000 A 
ATOM     14  C   UNL     1      -3.921   5.077 128.521  0.00  0.00    +0.000 A 
ATOM     15  C   UNL     1      -2.654   4.634 128.218  0.00  0.00    +0.000 A 
ATOM     16  C   UNL     1      -2.458   3.907 127.043  0.00  0.00    +0.000 A 
ATOM     17  C   UNL     1      -3.500   3.751 126.105  0.00  0.00    +0.000 A 
ENDBRANCH   9  12
ENDBRANCH   1   9
BRANCH   1  18
ATOM     18  C   UNL     1      -8.566   3.095 124.698  0.00  0.00    +0.000 C 
BRANCH  18  20
ATOM     19  O   UNL     1      -8.492   3.586 122.249  0.00  0.00    +0.000 OA
ATOM     20  C   UNL     1      -8.776   2.824 123.179  0.00  0.00    +0.000 C 
ATOM     21  N   UNL     1      -9.299   1.641 122.762  0.00  0.00    +0.000 N 
ATOM     22  H   UNL     1      -9.433   1.570 121.758  0.00  0.00    +0.000 HD
BRANCH  21  23
ATOM     23  N   UNL     1      -9.329   0.560 123.543  0.00  0.00    +0.000 NA
ATOM     24  C   UNL     1      -8.395  -0.304 123.317  0.00  0.00    +0.000 C 
BRANCH  24  25
ATOM     25  C   UNL     1      -8.382  -1.570 124.053  0.00  0.00    +0.000 A 
ATOM     26  C   UNL     1      -9.302  -1.780 125.083  0.00  0.00    +0.000 A 
ATOM     27  C   UNL     1      -9.218  -2.950 125.839  0.00  0.00    +0.000 A 
ATOM     28  C   UNL     1      -8.261  -3.920 125.524  0.00  0.00    +0.000 A 
ATOM     29  C   UNL     1      -7.359  -3.714 124.480  0.00  0.00    +0.000 A 
ATOM     30  C   UNL     1      -7.411  -2.532 123.752  0.00  0.00    +0.000 A 
BRANCH  30  31
ATOM     31  O   UNL     1      -6.484  -2.290 122.780  0.00  0.00    +0.000 OA
ATOM     32  H   UNL     1      -6.814  -2.582 121.917  0.00  0.00    +0.000 HD
ENDBRANCH  30  31
ENDBRANCH  24  25
ENDBRANCH  21  23
ENDBRANCH  18  20
ENDBRANCH   1  18
TORSDOF 8
ENDMDL
MODEL 7
REMARK VINA RESULT:      -7.6      1.833      3.755
REMARK  Name = CHEMBL200792
REMARK  8 active torsions:
REMARK  status: ('A' for Active; 'I' for Inactive)
REMARK    1  A    between atoms: C_2  and  C_3
REMARK    2  A    between atoms: C_3  and  N_4
REMARK    3  A    between atoms: N_4  and  C_5
REMARK    4  A    between atoms: N_4  and  S_12
REMARK    5  A    between atoms: S_12  and  C_15
REMARK    6  A    between atoms: N_21  and  N_22
REMARK    7  A    between atoms: C_23  and  C_24
REMARK    8  A    between atoms: C_29  and  O_30
REMARK                            x       y       z     vdW  Elec       q    Type
REMARK                         _______ _______ _______ _____ _____    ______ ____
ROOT
ATOM      1  N   UNL     1      -8.033   1.803 123.636  0.00  0.00    +0.000 N 
ENDROOT
BRANCH   1   2
ATOM      2  C   UNL     1      -7.751   2.629 122.512  0.00  0.00    +0.000 A 
ATOM      3  C   UNL     1      -6.404   2.901 122.213  0.00  0.00    +0.000 A 
ATOM      4  C   UNL     1      -6.076   3.718 121.136  0.00  0.00    +0.000 A 
ATOM      5  C   UNL     1      -7.074   4.109 120.251  0.00  0.00    +0.000 A 
ATOM      6 CL   UNL     1      -6.656   4.969 118.825  0.00  0.00    +0.000 Cl
ATOM      7  C   UNL     1      -8.409   3.785 120.502  0.00  0.00    +0.000 A 
ATOM      8  C   UNL     1      -8.763   3.144 121.696  0.00  0.00    +0.000 A 
ENDBRANCH   1   2
BRANCH   1   9
ATOM      9  S   UNL     1      -8.798   2.383 125.061  0.00  0.00    +0.000 S 
ATOM     10  O   UNL     1      -8.821   3.837 124.975  0.00  0.00    +0.000 OA
ATOM     11  O   UNL     1     -10.044   1.656 125.181  0.00  0.00    +0.000 OA
BRANCH   9  12
ATOM     12  C   UNL     1      -7.860   2.005 126.570  0.00  0.00    +0.000 A 
ATOM     13  C   UNL     1      -6.484   2.139 126.652  0.00  0.00    +0.000 A 
ATOM     14  C   UNL     1      -5.715   1.429 127.567  0.00  0.00    +0.000 A 
ATOM     15  C   UNL     1      -6.338   0.908 128.676  0.00  0.00    +0.000 A 
ATOM     16  C   UNL     1      -7.729   0.995 128.771  0.00  0.00    +0.000 A 
ATOM     17  C   UNL     1      -8.500   1.473 127.691  0.00  0.00    +0.000 A 
ENDBRANCH   9  12
ENDBRANCH   1   9
BRANCH   1  18
ATOM     18  C   UNL     1      -7.499   0.387 123.627  0.00  0.00    +0.000 C 
BRANCH  18  20
ATOM     19  O   UNL     1      -9.075  -1.188 122.494  0.00  0.00    +0.000 OA
ATOM     20  C   UNL     1      -8.548  -0.760 123.527  0.00  0.00    +0.000 C 
ATOM     21  N   UNL     1      -8.955  -1.412 124.647  0.00  0.00    +0.000 N 
ATOM     22  H   UNL     1      -9.668  -2.118 124.488  0.00  0.00    +0.000 HD
BRANCH  21  23
ATOM     23  N   UNL     1      -8.263  -1.370 125.787  0.00  0.00    +0.000 NA
ATOM     24  C   UNL     1      -7.557  -2.424 126.037  0.00  0.00    +0.000 C 
BRANCH  24  25
ATOM     25  C   UNL     1      -6.827  -2.526 127.303  0.00  0.00    +0.000 A 
ATOM     26  C   UNL     1      -5.459  -2.244 127.337  0.00  0.00    +0.000 A 
ATOM     27  C   UNL     1      -4.756  -2.436 128.526  0.00  0.00    +0.000 A 
ATOM     28  C   UNL     1      -5.430  -2.849 129.679  0.00  0.00    +0.000 A 
ATOM     29  C   UNL     1      -6.801  -3.109 129.644  0.00  0.00    +0.000 A 
ATOM     30  C   UNL     1      -7.497  -2.959 128.452  0.00  0.00    +0.000 A 
BRANCH  30  31
ATOM     31  O   UNL     1      -8.822  -3.285 128.391  0.00  0.00    +0.000 OA
ATOM     32  H   UNL     1      -8.965  -4.004 127.758  0.00  0.00    +0.000 HD
ENDBRANCH  30  31
ENDBRANCH  24  25
ENDBRANCH  21  23
ENDBRANCH  18  20
ENDBRANCH   1  18
TORSDOF 8
ENDMDL
MODEL 8
REMARK VINA RESULT:      -7.6      1.604      2.233
REMARK  Name = CHEMBL200792
REMARK  8 active torsions:
REMARK  status: ('A' for Active; 'I' for Inactive)
REMARK    1  A    between atoms: C_2  and  C_3
REMARK    2  A    between atoms: C_3  and  N_4
REMARK    3  A    between atoms: N_4  and  C_5
REMARK    4  A    between atoms: N_4  and  S_12
REMARK    5  A    between atoms: S_12  and  C_15
REMARK    6  A    between atoms: N_21  and  N_22
REMARK    7  A    between atoms: C_23  and  C_24
REMARK    8  A    between atoms: C_29  and  O_30
REMARK                            x       y       z     vdW  Elec       q    Type
REMARK                         _______ _______ _______ _____ _____    ______ ____
ROOT
ATOM      1  N   UNL     1      -7.948   1.657 123.768  0.00  0.00    +0.000 N 
ENDROOT
BRANCH   1   2
ATOM      2  C   UNL     1      -7.754   2.488 122.629  0.00  0.00    +0.000 A 
ATOM      3  C   UNL     1      -6.442   2.663 122.155  0.00  0.00    +0.000 A 
ATOM      4  C   UNL     1      -6.197   3.481 121.057  0.00  0.00    +0.000 A 
ATOM      5  C   UNL     1      -7.269   3.971 120.322  0.00  0.00    +0.000 A 
ATOM      6 CL   UNL     1      -6.978   4.834 118.865  0.00  0.00    +0.000 Cl
ATOM      7  C   UNL     1      -8.580   3.744 120.746  0.00  0.00    +0.000 A 
ATOM      8  C   UNL     1      -8.821   3.101 121.966  0.00  0.00    +0.000 A 
ENDBRANCH   1   2
BRANCH   1   9
ATOM      9  S   UNL     1      -9.097   0.381 123.817  0.00  0.00    +0.000 S 
ATOM     10  O   UNL     1     -10.031   0.685 124.894  0.00  0.00    +0.000 OA
ATOM     11  O   UNL     1      -9.594   0.225 122.466  0.00  0.00    +0.000 OA
BRANCH   9  12
ATOM     12  C   UNL     1      -8.359  -1.218 124.259  0.00  0.00    +0.000 A 
ATOM     13  C   UNL     1      -6.991  -1.439 124.261  0.00  0.00    +0.000 A 
ATOM     14  C   UNL     1      -6.436  -2.705 124.113  0.00  0.00    +0.000 A 
ATOM     15  C   UNL     1      -7.225  -3.798 124.386  0.00  0.00    +0.000 A 
ATOM     16  C   UNL     1      -8.578  -3.599 124.668  0.00  0.00    +0.000 A 
ATOM     17  C   UNL     1      -9.166  -2.323 124.532  0.00  0.00    +0.000 A 
ENDBRANCH   9  12
ENDBRANCH   1   9
BRANCH   1  18
ATOM     18  C   UNL     1      -7.209   2.015 125.041  0.00  0.00    +0.000 C 
BRANCH  18  20
ATOM     19  O   UNL     1      -8.395   4.014 125.959  0.00  0.00    +0.000 OA
ATOM     20  C   UNL     1      -7.990   2.855 126.095  0.00  0.00    +0.000 C 
ATOM     21  N   UNL     1      -8.309   2.312 127.299  0.00  0.00    +0.000 N 
ATOM     22  H   UNL     1      -8.784   2.947 127.934  0.00  0.00    +0.000 HD
BRANCH  21  23
ATOM     23  N   UNL     1      -8.300   0.996 127.513  0.00  0.00    +0.000 NA
ATOM     24  C   UNL     1      -7.835   0.632 128.663  0.00  0.00    +0.000 C 
BRANCH  24  25
ATOM     25  C   UNL     1      -7.695  -0.793 128.973  0.00  0.00    +0.000 A 
ATOM     26  C   UNL     1      -7.711  -1.730 127.938  0.00  0.00    +0.000 A 
ATOM     27  C   UNL     1      -7.671  -3.089 128.252  0.00  0.00    +0.000 A 
ATOM     28  C   UNL     1      -7.558  -3.496 129.585  0.00  0.00    +0.000 A 
ATOM     29  C   UNL     1      -7.521  -2.554 130.614  0.00  0.00    +0.000 A 
ATOM     30  C   UNL     1      -7.602  -1.202 130.308  0.00  0.00    +0.000 A 
BRANCH  30  31
ATOM     31  O   UNL     1      -7.644  -0.278 131.313  0.00  0.00    +0.000 OA
ATOM     32  H   UNL     1      -7.563  -0.712 132.175  0.00  0.00    +0.000 HD
ENDBRANCH  30  31
ENDBRANCH  24  25
ENDBRANCH  21  23
ENDBRANCH  18  20
ENDBRANCH   1  18
TORSDOF 8
ENDMDL
MODEL 9
REMARK VINA RESULT:      -7.6      6.517      9.346
REMARK  Name = CHEMBL200792
REMARK  8 active torsions:
REMARK  status: ('A' for Active; 'I' for Inactive)
REMARK    1  A    between atoms: C_2  and  C_3
REMARK    2  A    between atoms: C_3  and  N_4
REMARK    3  A    between atoms: N_4  and  C_5
REMARK    4  A    between atoms: N_4  and  S_12
REMARK    5  A    between atoms: S_12  and  C_15
REMARK    6  A    between atoms: N_21  and  N_22
REMARK    7  A    between atoms: C_23  and  C_24
REMARK    8  A    between atoms: C_29  and  O_30
REMARK                            x       y       z     vdW  Elec       q    Type
REMARK                         _______ _______ _______ _____ _____    ______ ____
ROOT
ATOM      1  N   UNL     1      -7.996   3.585 131.072  0.00  0.00    +0.000 N 
ENDROOT
BRANCH   1   2
ATOM      2  C   UNL     1      -7.900   2.241 131.530  0.00  0.00    +0.000 A 
ATOM      3  C   UNL     1      -9.057   1.444 131.485  0.00  0.00    +0.000 A 
ATOM      4  C   UNL     1      -9.021   0.129 131.939  0.00  0.00    +0.000 A 
ATOM      5  C   UNL     1      -7.797  -0.446 132.259  0.00  0.00    +0.000 A 
ATOM      6 CL   UNL     1      -7.719  -2.116 132.650  0.00  0.00    +0.000 Cl
ATOM      7  C   UNL     1      -6.630   0.320 132.239  0.00  0.00    +0.000 A 
ATOM      8  C   UNL     1      -6.697   1.696 131.988  0.00  0.00    +0.000 A 
ENDBRANCH   1   2
BRANCH   1   9
ATOM      9  S   UNL     1      -8.070   4.010 129.409  0.00  0.00    +0.000 S 
ATOM     10  O   UNL     1      -9.472   4.241 129.087  0.00  0.00    +0.000 OA
ATOM     11  O   UNL     1      -7.109   5.075 129.215  0.00  0.00    +0.000 OA
BRANCH   9  12
ATOM     12  C   UNL     1      -7.540   2.663 128.311  0.00  0.00    +0.000 A 
ATOM     13  C   UNL     1      -8.409   1.690 127.844  0.00  0.00    +0.000 A 
ATOM     14  C   UNL     1      -7.977   0.434 127.435  0.00  0.00    +0.000 A 
ATOM     15  C   UNL     1      -6.655   0.281 127.089  0.00  0.00    +0.000 A 
ATOM     16  C   UNL     1      -5.778   1.348 127.289  0.00  0.00    +0.000 A 
ATOM     17  C   UNL     1      -6.196   2.513 127.967  0.00  0.00    +0.000 A 
ENDBRANCH   9  12
ENDBRANCH   1   9
BRANCH   1  18
ATOM     18  C   UNL     1      -7.877   4.692 132.098  0.00  0.00    +0.000 C 
BRANCH  18  20
ATOM     19  O   UNL     1      -8.736   4.085 134.365  0.00  0.00    +0.000 OA
ATOM     20  C   UNL     1      -8.887   4.663 133.284  0.00  0.00    +0.000 C 
ATOM     21  N   UNL     1     -10.063   5.338 133.196  0.00  0.00    +0.000 N 
ATOM     22  H   UNL     1     -10.672   5.231 134.001  0.00  0.00    +0.000 HD
BRANCH  21  23
ATOM     23  N   UNL     1     -10.265   6.306 132.299  0.00  0.00    +0.000 NA
ATOM     24  C   UNL     1     -11.226   6.086 131.464  0.00  0.00    +0.000 C 
BRANCH  24  25
ATOM     25  C   UNL     1     -11.481   7.038 130.380  0.00  0.00    +0.000 A 
ATOM     26  C   UNL     1     -12.795   7.392 130.067  0.00  0.00    +0.000 A 
ATOM     27  C   UNL     1     -13.030   8.226 128.973  0.00  0.00    +0.000 A 
ATOM     28  C   UNL     1     -11.955   8.742 128.243  0.00  0.00    +0.000 A 
ATOM     29  C   UNL     1     -10.643   8.401 128.574  0.00  0.00    +0.000 A 
ATOM     30  C   UNL     1     -10.407   7.538 129.636  0.00  0.00    +0.000 A 
BRANCH  30  31
ATOM     31  O   UNL     1      -9.132   7.139 129.919  0.00  0.00    +0.000 OA
ATOM     32  H   UNL     1      -9.096   6.709 130.786  0.00  0.00    +0.000 HD
ENDBRANCH  30  31
ENDBRANCH  24  25
ENDBRANCH  21  23
ENDBRANCH  18  20
ENDBRANCH   1  18
TORSDOF 8
ENDMDL
