MODEL 1
REMARK VINA RESULT:      -8.2      0.000      0.000
REMARK  Name = CHEMBL563905
REMARK  8 active torsions:
REMARK  status: ('A' for Active; 'I' for Inactive)
REMARK    1  A    between atoms: C_1  and  O_2
REMARK    2  A    between atoms: O_2  and  C_3
REMARK    3  A    between atoms: C_6  and  N_7
REMARK    4  A    between atoms: C_8  and  C_9
REMARK    5  A    between atoms: C_12  and  C_13
REMARK    6  A    between atoms: C_16  and  O_17
REMARK    7  A    between atoms: O_17  and  C_18
REMARK    8  A    between atoms: C_23  and  C_24
REMARK                            x       y       z     vdW  Elec       q    Type
REMARK                         _______ _______ _______ _____ _____    ______ ____
ROOT
ATOM      1  N   UNL     1      -8.272  -2.053 126.761  0.00  0.00    +0.000 N 
ATOM      2  C   UNL     1      -9.006  -3.229 126.893  0.00  0.00    +0.000 A 
ATOM      3  C   UNL     1      -8.978  -4.232 127.989  0.00  0.00    +0.000 C 
ATOM      4  N   UNL     1      -9.887  -3.292 125.911  0.00  0.00    +0.000 NA
ATOM      5  N   UNL     1      -9.757  -2.183 125.131  0.00  0.00    +0.000 NA
ATOM      6  C   UNL     1      -8.780  -1.435 125.618  0.00  0.00    +0.000 A 
ENDROOT
BRANCH   1  10
ATOM      7  C   UNL     1      -5.277  -0.645 129.322  0.00  0.00    +0.000 A 
ATOM      8  C   UNL     1      -4.944  -1.599 128.372  0.00  0.00    +0.000 A 
ATOM      9  C   UNL     1      -5.937  -2.062 127.499  0.00  0.00    +0.000 A 
ATOM     10  C   UNL     1      -7.231  -1.541 127.582  0.00  0.00    +0.000 A 
ATOM     11  C   UNL     1      -7.489  -0.621 128.586  0.00  0.00    +0.000 A 
ATOM     12  N   UNL     1      -6.540  -0.176 129.455  0.00  0.00    +0.000 NA
BRANCH   7  14
ATOM     13  C   UNL     1      -3.727  -1.200 131.018  0.00  0.00    +0.000 C 
ATOM     14  O   UNL     1      -4.393  -0.188 130.264  0.00  0.00    +0.000 OA
ENDBRANCH   7  14
ENDBRANCH   1  10
BRANCH   6  15
ATOM     15  C   UNL     1      -8.238  -0.244 124.972  0.00  0.00    +0.000 A 
ATOM     16  C   UNL     1      -8.541   1.040 125.419  0.00  0.00    +0.000 A 
ATOM     17  N   UNL     1      -8.082   2.162 124.814  0.00  0.00    +0.000 NA
ATOM     18  C   UNL     1      -7.221   1.973 123.791  0.00  0.00    +0.000 A 
ATOM     19  C   UNL     1      -6.900   0.693 123.349  0.00  0.00    +0.000 A 
ATOM     20  N   UNL     1      -7.414  -0.437 123.912  0.00  0.00    +0.000 NA
BRANCH  18  21
ATOM     21  O   UNL     1      -6.592   3.049 123.172  0.00  0.00    +0.000 OA
BRANCH  21  22
ATOM     22  C   UNL     1      -7.076   3.465 121.946  0.00  0.00    +0.000 A 
ATOM     23  C   UNL     1      -8.461   3.354 121.754  0.00  0.00    +0.000 A 
ATOM     24  C   UNL     1      -9.038   3.717 120.534  0.00  0.00    +0.000 A 
ATOM     25  C   UNL     1      -8.235   4.180 119.498  0.00  0.00    +0.000 A 
ATOM     26  C   UNL     1      -6.851   4.249 119.668  0.00  0.00    +0.000 A 
ATOM     27  C   UNL     1      -6.250   3.869 120.882  0.00  0.00    +0.000 A 
ATOM     28  C   UNL     1      -4.750   3.882 120.976  0.00  0.00    +0.000 C 
ENDBRANCH  21  22
ENDBRANCH  18  21
ENDBRANCH   6  15
TORSDOF 5
ENDMDL
MODEL 2
REMARK VINA RESULT:      -8.1      4.214      8.147
REMARK  Name = CHEMBL563905
REMARK  8 active torsions:
REMARK  status: ('A' for Active; 'I' for Inactive)
REMARK    1  A    between atoms: C_1  and  O_2
REMARK    2  A    between atoms: O_2  and  C_3
REMARK    3  A    between atoms: C_6  and  N_7
REMARK    4  A    between atoms: C_8  and  C_9
REMARK    5  A    between atoms: C_12  and  C_13
REMARK    6  A    between atoms: C_16  and  O_17
REMARK    7  A    between atoms: O_17  and  C_18
REMARK    8  A    between atoms: C_23  and  C_24
REMARK                            x       y       z     vdW  Elec       q    Type
REMARK                         _______ _______ _______ _____ _____    ______ ____
ROOT
ATOM      1  N   UNL     1      -6.536   3.228 123.045  0.00  0.00    +0.000 N 
ATOM      2  C   UNL     1      -5.749   3.724 122.009  0.00  0.00    +0.000 A 
ATOM      3  C   UNL     1      -5.667   3.271 120.596  0.00  0.00    +0.000 C 
ATOM      4  N   UNL     1      -5.124   4.808 122.432  0.00  0.00    +0.000 NA
ATOM      5  N   UNL     1      -5.481   5.045 123.725  0.00  0.00    +0.000 NA
ATOM      6  C   UNL     1      -6.317   4.095 124.115  0.00  0.00    +0.000 A 
ENDROOT
BRANCH   1  10
ATOM      7  C   UNL     1      -9.061  -0.099 123.288  0.00  0.00    +0.000 A 
ATOM      8  C   UNL     1      -9.616   1.133 122.979  0.00  0.00    +0.000 A 
ATOM      9  C   UNL     1      -8.774   2.249 122.878  0.00  0.00    +0.000 A 
ATOM     10  C   UNL     1      -7.397   2.098 123.063  0.00  0.00    +0.000 A 
ATOM     11  C   UNL     1      -6.931   0.839 123.409  0.00  0.00    +0.000 A 
ATOM     12  N   UNL     1      -7.738  -0.251 123.531  0.00  0.00    +0.000 NA
BRANCH   7  14
ATOM     13  C   UNL     1      -9.124  -2.462 123.267  0.00  0.00    +0.000 C 
ATOM     14  O   UNL     1      -9.812  -1.230 123.480  0.00  0.00    +0.000 OA
ENDBRANCH   7  14
ENDBRANCH   1  10
BRANCH   6  15
ATOM     15  C   UNL     1      -6.800   3.917 125.481  0.00  0.00    +0.000 A 
ATOM     16  C   UNL     1      -7.913   4.600 125.964  0.00  0.00    +0.000 A 
ATOM     17  N   UNL     1      -8.359   4.480 127.238  0.00  0.00    +0.000 NA
ATOM     18  C   UNL     1      -7.716   3.576 128.008  0.00  0.00    +0.000 A 
ATOM     19  C   UNL     1      -6.613   2.877 127.527  0.00  0.00    +0.000 A 
ATOM     20  N   UNL     1      -6.119   3.045 126.267  0.00  0.00    +0.000 NA
BRANCH  18  21
ATOM     21  O   UNL     1      -8.160   3.280 129.293  0.00  0.00    +0.000 OA
BRANCH  21  22
ATOM     22  C   UNL     1      -8.444   4.336 130.140  0.00  0.00    +0.000 A 
ATOM     23  C   UNL     1      -7.356   5.136 130.520  0.00  0.00    +0.000 A 
ATOM     24  C   UNL     1      -7.538   6.206 131.401  0.00  0.00    +0.000 A 
ATOM     25  C   UNL     1      -8.802   6.472 131.915  0.00  0.00    +0.000 A 
ATOM     26  C   UNL     1      -9.879   5.650 131.576  0.00  0.00    +0.000 A 
ATOM     27  C   UNL     1      -9.711   4.557 130.707  0.00  0.00    +0.000 A 
ATOM     28  C   UNL     1     -10.886   3.658 130.448  0.00  0.00    +0.000 C 
ENDBRANCH  21  22
ENDBRANCH  18  21
ENDBRANCH   6  15
TORSDOF 5
ENDMDL
MODEL 3
REMARK VINA RESULT:      -8.1      6.995      9.271
REMARK  Name = CHEMBL563905
REMARK  8 active torsions:
REMARK  status: ('A' for Active; 'I' for Inactive)
REMARK    1  A    between atoms: C_1  and  O_2
REMARK    2  A    between atoms: O_2  and  C_3
REMARK    3  A    between atoms: C_6  and  N_7
REMARK    4  A    between atoms: C_8  and  C_9
REMARK    5  A    between atoms: C_12  and  C_13
REMARK    6  A    between atoms: C_16  and  O_17
REMARK    7  A    between atoms: O_17  and  C_18
REMARK    8  A    between atoms: C_23  and  C_24
REMARK                            x       y       z     vdW  Elec       q    Type
REMARK                         _______ _______ _______ _____ _____    ______ ____
ROOT
ATOM      1  N   UNL     1      -4.198   4.794 131.764  0.00  0.00    +0.000 N 
ATOM      2  C   UNL     1      -3.356   4.678 132.867  0.00  0.00    +0.000 A 
ATOM      3  C   UNL     1      -1.928   4.268 132.916  0.00  0.00    +0.000 C 
ATOM      4  N   UNL     1      -3.991   5.127 133.935  0.00  0.00    +0.000 NA
ATOM      5  N   UNL     1      -5.234   5.542 133.565  0.00  0.00    +0.000 NA
ATOM      6  C   UNL     1      -5.382   5.335 132.266  0.00  0.00    +0.000 A 
ENDROOT
BRANCH   1  10
ATOM      7  C   UNL     1      -3.301   3.820 127.795  0.00  0.00    +0.000 A 
ATOM      8  C   UNL     1      -3.769   2.820 128.634  0.00  0.00    +0.000 A 
ATOM      9  C   UNL     1      -4.089   3.143 129.959  0.00  0.00    +0.000 A 
ATOM     10  C   UNL     1      -3.956   4.461 130.404  0.00  0.00    +0.000 A 
ATOM     11  C   UNL     1      -3.442   5.389 129.512  0.00  0.00    +0.000 A 
ATOM     12  N   UNL     1      -3.107   5.088 128.227  0.00  0.00    +0.000 NA
BRANCH   7  14
ATOM     13  C   UNL     1      -1.588   3.024 126.373  0.00  0.00    +0.000 C 
ATOM     14  O   UNL     1      -2.893   3.585 126.507  0.00  0.00    +0.000 OA
ENDBRANCH   7  14
ENDBRANCH   1  10
BRANCH   6  15
ATOM     15  C   UNL     1      -6.629   5.507 131.529  0.00  0.00    +0.000 A 
ATOM     16  C   UNL     1      -7.066   6.759 131.101  0.00  0.00    +0.000 A 
ATOM     17  N   UNL     1      -8.238   6.951 130.448  0.00  0.00    +0.000 NA
ATOM     18  C   UNL     1      -8.934   5.835 130.142  0.00  0.00    +0.000 A 
ATOM     19  C   UNL     1      -8.496   4.579 130.551  0.00  0.00    +0.000 A 
ATOM     20  N   UNL     1      -7.352   4.389 131.267  0.00  0.00    +0.000 NA
BRANCH  18  21
ATOM     21  O   UNL     1     -10.090   5.898 129.370  0.00  0.00    +0.000 OA
BRANCH  21  22
ATOM     22  C   UNL     1     -11.039   6.848 129.700  0.00  0.00    +0.000 A 
ATOM     23  C   UNL     1     -11.794   6.595 130.855  0.00  0.00    +0.000 A 
ATOM     24  C   UNL     1     -12.801   7.480 131.250  0.00  0.00    +0.000 A 
ATOM     25  C   UNL     1     -13.066   8.613 130.488  0.00  0.00    +0.000 A 
ATOM     26  C   UNL     1     -12.349   8.844 129.312  0.00  0.00    +0.000 A 
ATOM     27  C   UNL     1     -11.345   7.954 128.888  0.00  0.00    +0.000 A 
ATOM     28  C   UNL     1     -10.669   8.209 127.571  0.00  0.00    +0.000 C 
ENDBRANCH  21  22
ENDBRANCH  18  21
ENDBRANCH   6  15
TORSDOF 5
ENDMDL
MODEL 4
REMARK VINA RESULT:      -7.8      2.445      7.927
REMARK  Name = CHEMBL563905
REMARK  8 active torsions:
REMARK  status: ('A' for Active; 'I' for Inactive)
REMARK    1  A    between atoms: C_1  and  O_2
REMARK    2  A    between atoms: O_2  and  C_3
REMARK    3  A    between atoms: C_6  and  N_7
REMARK    4  A    between atoms: C_8  and  C_9
REMARK    5  A    between atoms: C_12  and  C_13
REMARK    6  A    between atoms: C_16  and  O_17
REMARK    7  A    between atoms: O_17  and  C_18
REMARK    8  A    between atoms: C_23  and  C_24
REMARK                            x       y       z     vdW  Elec       q    Type
REMARK                         _______ _______ _______ _____ _____    ______ ____
ROOT
ATOM      1  N   UNL     1      -6.764   2.572 123.763  0.00  0.00    +0.000 N 
ATOM      2  C   UNL     1      -6.405   3.483 122.772  0.00  0.00    +0.000 A 
ATOM      3  C   UNL     1      -6.802   3.512 121.340  0.00  0.00    +0.000 C 
ATOM      4  N   UNL     1      -5.715   4.463 123.326  0.00  0.00    +0.000 NA
ATOM      5  N   UNL     1      -5.609   4.226 124.663  0.00  0.00    +0.000 NA
ATOM      6  C   UNL     1      -6.220   3.085 124.941  0.00  0.00    +0.000 A 
ENDROOT
BRANCH   1  10
ATOM      7  C   UNL     1      -9.050  -0.899 123.283  0.00  0.00    +0.000 A 
ATOM      8  C   UNL     1      -7.671  -0.992 123.169  0.00  0.00    +0.000 A 
ATOM      9  C   UNL     1      -6.897   0.163 123.346  0.00  0.00    +0.000 A 
ATOM     10  C   UNL     1      -7.521   1.374 123.658  0.00  0.00    +0.000 A 
ATOM     11  C   UNL     1      -8.906   1.387 123.714  0.00  0.00    +0.000 A 
ATOM     12  N   UNL     1      -9.673   0.278 123.524  0.00  0.00    +0.000 NA
BRANCH   7  14
ATOM     13  C   UNL     1      -9.443  -3.214 123.560  0.00  0.00    +0.000 C 
ATOM     14  O   UNL     1      -9.892  -1.957 123.054  0.00  0.00    +0.000 OA
ENDBRANCH   7  14
ENDBRANCH   1  10
BRANCH   6  15
ATOM     15  C   UNL     1      -6.191   2.416 126.238  0.00  0.00    +0.000 A 
ATOM     16  C   UNL     1      -7.160   2.650 127.210  0.00  0.00    +0.000 A 
ATOM     17  N   UNL     1      -7.135   2.071 128.435  0.00  0.00    +0.000 NA
ATOM     18  C   UNL     1      -6.156   1.163 128.641  0.00  0.00    +0.000 A 
ATOM     19  C   UNL     1      -5.194   0.912 127.668  0.00  0.00    +0.000 A 
ATOM     20  N   UNL     1      -5.176   1.543 126.460  0.00  0.00    +0.000 NA
BRANCH  18  21
ATOM     21  O   UNL     1      -6.102   0.418 129.815  0.00  0.00    +0.000 OA
BRANCH  21  22
ATOM     22  C   UNL     1      -6.348  -0.940 129.733  0.00  0.00    +0.000 A 
ATOM     23  C   UNL     1      -7.688  -1.319 129.571  0.00  0.00    +0.000 A 
ATOM     24  C   UNL     1      -8.040  -2.671 129.513  0.00  0.00    +0.000 A 
ATOM     25  C   UNL     1      -7.057  -3.647 129.629  0.00  0.00    +0.000 A 
ATOM     26  C   UNL     1      -5.727  -3.275 129.836  0.00  0.00    +0.000 A 
ATOM     27  C   UNL     1      -5.358  -1.920 129.917  0.00  0.00    +0.000 A 
ATOM     28  C   UNL     1      -3.927  -1.583 130.229  0.00  0.00    +0.000 C 
ENDBRANCH  21  22
ENDBRANCH  18  21
ENDBRANCH   6  15
TORSDOF 5
ENDMDL
MODEL 5
REMARK VINA RESULT:      -7.8      5.246      7.531
REMARK  Name = CHEMBL563905
REMARK  8 active torsions:
REMARK  status: ('A' for Active; 'I' for Inactive)
REMARK    1  A    between atoms: C_1  and  O_2
REMARK    2  A    between atoms: O_2  and  C_3
REMARK    3  A    between atoms: C_6  and  N_7
REMARK    4  A    between atoms: C_8  and  C_9
REMARK    5  A    between atoms: C_12  and  C_13
REMARK    6  A    between atoms: C_16  and  O_17
REMARK    7  A    between atoms: O_17  and  C_18
REMARK    8  A    between atoms: C_23  and  C_24
REMARK                            x       y       z     vdW  Elec       q    Type
REMARK                         _______ _______ _______ _____ _____    ______ ____
ROOT
ATOM      1  N   UNL     1      -7.823   0.719 128.331  0.00  0.00    +0.000 N 
ATOM      2  C   UNL     1      -7.530  -0.603 128.658  0.00  0.00    +0.000 A 
ATOM      3  C   UNL     1      -7.181  -1.734 127.760  0.00  0.00    +0.000 C 
ATOM      4  N   UNL     1      -7.476  -0.712 129.974  0.00  0.00    +0.000 NA
ATOM      5  N   UNL     1      -7.723   0.507 130.527  0.00  0.00    +0.000 NA
ATOM      6  C   UNL     1      -7.951   1.376 129.554  0.00  0.00    +0.000 A 
ENDROOT
BRANCH   1  10
ATOM      7  C   UNL     1      -8.354   2.627 124.645  0.00  0.00    +0.000 A 
ATOM      8  C   UNL     1      -7.141   2.775 125.300  0.00  0.00    +0.000 A 
ATOM      9  C   UNL     1      -6.950   2.124 126.526  0.00  0.00    +0.000 A 
ATOM     10  C   UNL     1      -7.966   1.322 127.052  0.00  0.00    +0.000 A 
ATOM     11  C   UNL     1      -9.161   1.262 126.353  0.00  0.00    +0.000 A 
ATOM     12  N   UNL     1      -9.371   1.904 125.171  0.00  0.00    +0.000 NA
BRANCH   7  14
ATOM     13  C   UNL     1      -7.729   3.100 122.415  0.00  0.00    +0.000 C 
ATOM     14  O   UNL     1      -8.661   3.282 123.480  0.00  0.00    +0.000 OA
ENDBRANCH   7  14
ENDBRANCH   1  10
BRANCH   6  15
ATOM     15  C   UNL     1      -8.403   2.750 129.750  0.00  0.00    +0.000 A 
ATOM     16  C   UNL     1      -9.746   3.063 129.943  0.00  0.00    +0.000 A 
ATOM     17  N   UNL     1     -10.197   4.333 130.090  0.00  0.00    +0.000 NA
ATOM     18  C   UNL     1      -9.250   5.295 130.136  0.00  0.00    +0.000 A 
ATOM     19  C   UNL     1      -7.905   4.988 129.960  0.00  0.00    +0.000 A 
ATOM     20  N   UNL     1      -7.454   3.719 129.745  0.00  0.00    +0.000 NA
BRANCH  18  21
ATOM     21  O   UNL     1      -9.584   6.619 130.402  0.00  0.00    +0.000 OA
BRANCH  21  22
ATOM     22  C   UNL     1     -10.612   7.189 129.674  0.00  0.00    +0.000 A 
ATOM     23  C   UNL     1     -10.272   7.686 128.407  0.00  0.00    +0.000 A 
ATOM     24  C   UNL     1     -11.236   8.311 127.610  0.00  0.00    +0.000 A 
ATOM     25  C   UNL     1     -12.537   8.452 128.080  0.00  0.00    +0.000 A 
ATOM     26  C   UNL     1     -12.868   7.999 129.358  0.00  0.00    +0.000 A 
ATOM     27  C   UNL     1     -11.907   7.386 130.182  0.00  0.00    +0.000 A 
ATOM     28  C   UNL     1     -12.300   7.000 131.580  0.00  0.00    +0.000 C 
ENDBRANCH  21  22
ENDBRANCH  18  21
ENDBRANCH   6  15
TORSDOF 5
ENDMDL
MODEL 6
REMARK VINA RESULT:      -7.7      4.620      7.305
REMARK  Name = CHEMBL563905
REMARK  8 active torsions:
REMARK  status: ('A' for Active; 'I' for Inactive)
REMARK    1  A    between atoms: C_1  and  O_2
REMARK    2  A    between atoms: O_2  and  C_3
REMARK    3  A    between atoms: C_6  and  N_7
REMARK    4  A    between atoms: C_8  and  C_9
REMARK    5  A    between atoms: C_12  and  C_13
REMARK    6  A    between atoms: C_16  and  O_17
REMARK    7  A    between atoms: O_17  and  C_18
REMARK    8  A    between atoms: C_23  and  C_24
REMARK                            x       y       z     vdW  Elec       q    Type
REMARK                         _______ _______ _______ _____ _____    ______ ____
ROOT
ATOM      1  N   UNL     1      -8.390   4.410 130.301  0.00  0.00    +0.000 N 
ATOM      2  C   UNL     1      -8.967   5.673 130.406  0.00  0.00    +0.000 A 
ATOM      3  C   UNL     1      -9.203   6.496 131.621  0.00  0.00    +0.000 C 
ATOM      4  N   UNL     1      -9.187   6.141 129.191  0.00  0.00    +0.000 NA
ATOM      5  N   UNL     1      -8.766   5.219 128.281  0.00  0.00    +0.000 NA
ATOM      6  C   UNL     1      -8.299   4.165 128.931  0.00  0.00    +0.000 A 
ENDROOT
BRANCH   1  10
ATOM      7  C   UNL     1      -7.119   1.666 133.193  0.00  0.00    +0.000 A 
ATOM      8  C   UNL     1      -6.213   2.608 132.730  0.00  0.00    +0.000 A 
ATOM      9  C   UNL     1      -6.637   3.542 131.774  0.00  0.00    +0.000 A 
ATOM     10  C   UNL     1      -7.961   3.525 131.327  0.00  0.00    +0.000 A 
ATOM     11  C   UNL     1      -8.788   2.524 131.812  0.00  0.00    +0.000 A 
ATOM     12  N   UNL     1      -8.387   1.597 132.724  0.00  0.00    +0.000 NA
BRANCH   7  14
ATOM     13  C   UNL     1      -6.478  -0.592 133.472  0.00  0.00    +0.000 C 
ATOM     14  O   UNL     1      -6.777   0.668 134.070  0.00  0.00    +0.000 OA
ENDBRANCH   7  14
ENDBRANCH   1  10
BRANCH   6  15
ATOM     15  C   UNL     1      -7.899   2.908 128.307  0.00  0.00    +0.000 A 
ATOM     16  C   UNL     1      -6.563   2.530 128.201  0.00  0.00    +0.000 A 
ATOM     17  N   UNL     1      -6.163   1.387 127.593  0.00  0.00    +0.000 NA
ATOM     18  C   UNL     1      -7.148   0.567 127.167  0.00  0.00    +0.000 A 
ATOM     19  C   UNL     1      -8.486   0.931 127.284  0.00  0.00    +0.000 A 
ATOM     20  N   UNL     1      -8.890   2.111 127.834  0.00  0.00    +0.000 NA
BRANCH  18  21
ATOM     21  O   UNL     1      -6.861  -0.687 126.636  0.00  0.00    +0.000 OA
BRANCH  21  22
ATOM     22  C   UNL     1      -7.585  -1.769 127.100  0.00  0.00    +0.000 A 
ATOM     23  C   UNL     1      -7.305  -2.188 128.409  0.00  0.00    +0.000 A 
ATOM     24  C   UNL     1      -7.961  -3.295 128.954  0.00  0.00    +0.000 A 
ATOM     25  C   UNL     1      -8.889  -3.995 128.191  0.00  0.00    +0.000 A 
ATOM     26  C   UNL     1      -9.138  -3.610 126.872  0.00  0.00    +0.000 A 
ATOM     27  C   UNL     1      -8.472  -2.510 126.300  0.00  0.00    +0.000 A 
ATOM     28  C   UNL     1      -8.715  -2.198 124.851  0.00  0.00    +0.000 C 
ENDBRANCH  21  22
ENDBRANCH  18  21
ENDBRANCH   6  15
TORSDOF 5
ENDMDL
MODEL 7
REMARK VINA RESULT:      -7.6      6.705      8.184
REMARK  Name = CHEMBL563905
REMARK  8 active torsions:
REMARK  status: ('A' for Active; 'I' for Inactive)
REMARK    1  A    between atoms: C_1  and  O_2
REMARK    2  A    between atoms: O_2  and  C_3
REMARK    3  A    between atoms: C_6  and  N_7
REMARK    4  A    between atoms: C_8  and  C_9
REMARK    5  A    between atoms: C_12  and  C_13
REMARK    6  A    between atoms: C_16  and  O_17
REMARK    7  A    between atoms: O_17  and  C_18
REMARK    8  A    between atoms: C_23  and  C_24
REMARK                            x       y       z     vdW  Elec       q    Type
REMARK                         _______ _______ _______ _____ _____    ______ ____
ROOT
ATOM      1  N   UNL     1      -6.237   2.904 131.899  0.00  0.00    +0.000 N 
ATOM      2  C   UNL     1      -6.152   1.766 132.697  0.00  0.00    +0.000 A 
ATOM      3  C   UNL     1      -4.994   0.859 132.911  0.00  0.00    +0.000 C 
ATOM      4  N   UNL     1      -7.270   1.647 133.389  0.00  0.00    +0.000 NA
ATOM      5  N   UNL     1      -8.096   2.682 133.071  0.00  0.00    +0.000 NA
ATOM      6  C   UNL     1      -7.498   3.439 132.165  0.00  0.00    +0.000 A 
ENDROOT
BRANCH   1  10
ATOM      7  C   UNL     1      -3.288   4.453 129.367  0.00  0.00    +0.000 A 
ATOM      8  C   UNL     1      -3.979   3.319 128.965  0.00  0.00    +0.000 A 
ATOM      9  C   UNL     1      -4.980   2.806 129.800  0.00  0.00    +0.000 A 
ATOM     10  C   UNL     1      -5.282   3.453 131.001  0.00  0.00    +0.000 A 
ATOM     11  C   UNL     1      -4.516   4.555 131.345  0.00  0.00    +0.000 A 
ATOM     12  N   UNL     1      -3.526   5.055 130.556  0.00  0.00    +0.000 NA
BRANCH   7  14
ATOM     13  C   UNL     1      -2.197   6.410 128.613  0.00  0.00    +0.000 C 
ATOM     14  O   UNL     1      -2.244   4.984 128.654  0.00  0.00    +0.000 OA
ENDBRANCH   7  14
ENDBRANCH   1  10
BRANCH   6  15
ATOM     15  C   UNL     1      -8.125   4.555 131.463  0.00  0.00    +0.000 A 
ATOM     16  C   UNL     1      -8.241   5.817 132.041  0.00  0.00    +0.000 A 
ATOM     17  N   UNL     1      -8.851   6.859 131.426  0.00  0.00    +0.000 NA
ATOM     18  C   UNL     1      -9.268   6.638 130.160  0.00  0.00    +0.000 A 
ATOM     19  C   UNL     1      -9.140   5.384 129.571  0.00  0.00    +0.000 A 
ATOM     20  N   UNL     1      -8.588   4.315 130.211  0.00  0.00    +0.000 NA
BRANCH  18  21
ATOM     21  O   UNL     1      -9.800   7.667 129.389  0.00  0.00    +0.000 OA
BRANCH  21  22
ATOM     22  C   UNL     1     -11.105   7.541 128.950  0.00  0.00    +0.000 A 
ATOM     23  C   UNL     1     -12.091   7.482 129.945  0.00  0.00    +0.000 A 
ATOM     24  C   UNL     1     -13.436   7.320 129.601  0.00  0.00    +0.000 A 
ATOM     25  C   UNL     1     -13.799   7.204 128.263  0.00  0.00    +0.000 A 
ATOM     26  C   UNL     1     -12.816   7.215 127.272  0.00  0.00    +0.000 A 
ATOM     27  C   UNL     1     -11.456   7.358 127.601  0.00  0.00    +0.000 A 
ATOM     28  C   UNL     1     -10.437   7.274 126.500  0.00  0.00    +0.000 C 
ENDBRANCH  21  22
ENDBRANCH  18  21
ENDBRANCH   6  15
TORSDOF 5
ENDMDL
MODEL 8
REMARK VINA RESULT:      -7.5      3.083      4.839
REMARK  Name = CHEMBL563905
REMARK  8 active torsions:
REMARK  status: ('A' for Active; 'I' for Inactive)
REMARK    1  A    between atoms: C_1  and  O_2
REMARK    2  A    between atoms: O_2  and  C_3
REMARK    3  A    between atoms: C_6  and  N_7
REMARK    4  A    between atoms: C_8  and  C_9
REMARK    5  A    between atoms: C_12  and  C_13
REMARK    6  A    between atoms: C_16  and  O_17
REMARK    7  A    between atoms: O_17  and  C_18
REMARK    8  A    between atoms: C_23  and  C_24
REMARK                            x       y       z     vdW  Elec       q    Type
REMARK                         _______ _______ _______ _____ _____    ______ ____
ROOT
ATOM      1  N   UNL     1      -8.597  -1.045 124.356  0.00  0.00    +0.000 N 
ATOM      2  C   UNL     1      -9.341  -1.790 123.444  0.00  0.00    +0.000 A 
ATOM      3  C   UNL     1      -9.473  -3.266 123.328  0.00  0.00    +0.000 C 
ATOM      4  N   UNL     1     -10.069  -0.964 122.715  0.00  0.00    +0.000 NA
ATOM      5  N   UNL     1      -9.827   0.313 123.123  0.00  0.00    +0.000 NA
ATOM      6  C   UNL     1      -8.932   0.285 124.098  0.00  0.00    +0.000 A 
ENDROOT
BRANCH   1  10
ATOM      7  C   UNL     1      -5.858  -2.166 127.314  0.00  0.00    +0.000 A 
ATOM      8  C   UNL     1      -7.202  -2.095 127.647  0.00  0.00    +0.000 A 
ATOM      9  C   UNL     1      -8.127  -1.737 126.657  0.00  0.00    +0.000 A 
ATOM     10  C   UNL     1      -7.687  -1.486 125.355  0.00  0.00    +0.000 A 
ATOM     11  C   UNL     1      -6.323  -1.541 125.117  0.00  0.00    +0.000 A 
ATOM     12  N   UNL     1      -5.409  -1.866 126.072  0.00  0.00    +0.000 NA
BRANCH   7  14
ATOM     13  C   UNL     1      -5.204  -2.132 129.585  0.00  0.00    +0.000 C 
ATOM     14  O   UNL     1      -4.874  -2.435 128.230  0.00  0.00    +0.000 OA
ENDBRANCH   7  14
ENDBRANCH   1  10
BRANCH   6  15
ATOM     15  C   UNL     1      -8.303   1.461 124.689  0.00  0.00    +0.000 A 
ATOM     16  C   UNL     1      -8.638   1.915 125.962  0.00  0.00    +0.000 A 
ATOM     17  N   UNL     1      -8.096   3.025 126.519  0.00  0.00    +0.000 NA
ATOM     18  C   UNL     1      -7.126   3.633 125.803  0.00  0.00    +0.000 A 
ATOM     19  C   UNL     1      -6.774   3.176 124.537  0.00  0.00    +0.000 A 
ATOM     20  N   UNL     1      -7.365   2.098 123.945  0.00  0.00    +0.000 NA
BRANCH  18  21
ATOM     21  O   UNL     1      -6.415   4.709 126.324  0.00  0.00    +0.000 OA
BRANCH  21  22
ATOM     22  C   UNL     1      -5.216   4.448 126.961  0.00  0.00    +0.000 A 
ATOM     23  C   UNL     1      -4.127   4.141 126.133  0.00  0.00    +0.000 A 
ATOM     24  C   UNL     1      -2.882   3.828 126.687  0.00  0.00    +0.000 A 
ATOM     25  C   UNL     1      -2.724   3.808 128.068  0.00  0.00    +0.000 A 
ATOM     26  C   UNL     1      -3.817   4.067 128.897  0.00  0.00    +0.000 A 
ATOM     27  C   UNL     1      -5.082   4.364 128.358  0.00  0.00    +0.000 A 
ATOM     28  C   UNL     1      -6.239   4.547 129.299  0.00  0.00    +0.000 C 
ENDBRANCH  21  22
ENDBRANCH  18  21
ENDBRANCH   6  15
TORSDOF 5
ENDMDL
MODEL 9
REMARK VINA RESULT:      -7.5      5.437      7.851
REMARK  Name = CHEMBL563905
REMARK  8 active torsions:
REMARK  status: ('A' for Active; 'I' for Inactive)
REMARK    1  A    between atoms: C_1  and  O_2
REMARK    2  A    between atoms: O_2  and  C_3
REMARK    3  A    between atoms: C_6  and  N_7
REMARK    4  A    between atoms: C_8  and  C_9
REMARK    5  A    between atoms: C_12  and  C_13
REMARK    6  A    between atoms: C_16  and  O_17
REMARK    7  A    between atoms: O_17  and  C_18
REMARK    8  A    between atoms: C_23  and  C_24
REMARK                            x       y       z     vdW  Elec       q    Type
REMARK                         _______ _______ _______ _____ _____    ______ ____
ROOT
ATOM      1  N   UNL     1      -8.606   4.944 130.996  0.00  0.00    +0.000 N 
ATOM      2  C   UNL     1      -8.124   5.049 132.298  0.00  0.00    +0.000 A 
ATOM      3  C   UNL     1      -8.639   5.873 133.422  0.00  0.00    +0.000 C 
ATOM      4  N   UNL     1      -7.152   4.170 132.463  0.00  0.00    +0.000 NA
ATOM      5  N   UNL     1      -6.980   3.481 131.301  0.00  0.00    +0.000 NA
ATOM      6  C   UNL     1      -7.835   3.944 130.403  0.00  0.00    +0.000 A 
ENDROOT
BRANCH   1  10
ATOM      7  C   UNL     1     -11.779   7.070 129.288  0.00  0.00    +0.000 A 
ATOM      8  C   UNL     1     -10.577   7.728 129.499  0.00  0.00    +0.000 A 
ATOM      9  C   UNL     1      -9.504   7.018 130.053  0.00  0.00    +0.000 A 
ATOM     10  C   UNL     1      -9.654   5.663 130.359  0.00  0.00    +0.000 A 
ATOM     11  C   UNL     1     -10.901   5.093 130.154  0.00  0.00    +0.000 A 
ATOM     12  N   UNL     1     -11.959   5.774 129.636  0.00  0.00    +0.000 NA
BRANCH   7  14
ATOM     13  C   UNL     1     -12.904   9.121 128.947  0.00  0.00    +0.000 C 
ATOM     14  O   UNL     1     -12.904   7.700 128.820  0.00  0.00    +0.000 OA
ENDBRANCH   7  14
ENDBRANCH   1  10
BRANCH   6  15
ATOM     15  C   UNL     1      -7.852   3.565 128.994  0.00  0.00    +0.000 A 
ATOM     16  C   UNL     1      -8.556   2.454 128.537  0.00  0.00    +0.000 A 
ATOM     17  N   UNL     1      -8.558   2.060 127.240  0.00  0.00    +0.000 NA
ATOM     18  C   UNL     1      -7.906   2.867 126.375  0.00  0.00    +0.000 A 
ATOM     19  C   UNL     1      -7.215   3.989 126.822  0.00  0.00    +0.000 A 
ATOM     20  N   UNL     1      -7.155   4.351 128.135  0.00  0.00    +0.000 NA
BRANCH  18  21
ATOM     21  O   UNL     1      -7.941   2.629 125.005  0.00  0.00    +0.000 OA
BRANCH  21  22
ATOM     22  C   UNL     1      -7.923   1.316 124.574  0.00  0.00    +0.000 A 
ATOM     23  C   UNL     1      -6.688   0.656 124.647  0.00  0.00    +0.000 A 
ATOM     24  C   UNL     1      -6.562  -0.663 124.201  0.00  0.00    +0.000 A 
ATOM     25  C   UNL     1      -7.665  -1.323 123.671  0.00  0.00    +0.000 A 
ATOM     26  C   UNL     1      -8.886  -0.655 123.554  0.00  0.00    +0.000 A 
ATOM     27  C   UNL     1      -9.026   0.679 123.979  0.00  0.00    +0.000 A 
ATOM     28  C   UNL     1     -10.338   1.373 123.747  0.00  0.00    +0.000 C 
ENDBRANCH  21  22
ENDBRANCH  18  21
ENDBRANCH   6  15
TORSDOF 5
ENDMDL
