MODEL 1
REMARK VINA RESULT:      -9.5      0.000      0.000
REMARK  Name = CHEMBL2369845
REMARK  20 active torsions:
REMARK  status: ('A' for Active; 'I' for Inactive)
REMARK    1  A    between atoms: C_1  and  C_2
REMARK    2  A    between atoms: C_2  and  C_3
REMARK    3  A    between atoms: C_3  and  C_4
REMARK    4  A    between atoms: C_8  and  C_9
REMARK    5  A    between atoms: C_9  and  C_10
REMARK    6  A    between atoms: C_19  and  C_20
REMARK    7  A    between atoms: C_20  and  C_21
REMARK    8  A    between atoms: C_24  and  O_25
REMARK    9  A    between atoms: C_36  and  C_37
REMARK   10  A    between atoms: C_43  and  C_44
REMARK   11  A    between atoms: N_46  and  C_47
REMARK   12  A    between atoms: C_47  and  C_48
REMARK   13  A    between atoms: C_47  and  C_55
REMARK   14  A    between atoms: C_48  and  C_49
REMARK   15  A    between atoms: C_49  and  C_50
REMARK   16  A    between atoms: C_50  and  N_51
REMARK   17  A    between atoms: N_57  and  C_58
REMARK   18  A    between atoms: C_58  and  C_59
REMARK   19  A    between atoms: C_65  and  C_66
REMARK   20  A    between atoms: C_66  and  C_67
REMARK                            x       y       z     vdW  Elec       q    Type
REMARK                         _______ _______ _______ _____ _____    ______ ____
ROOT
ATOM      1  C   UNL     1      -6.863   2.918 125.851  0.00  0.00    +0.000 C 
ATOM      2  N   UNL     1      -8.024   1.984 125.714  0.00  0.00    +0.000 N 
ATOM      3  C   UNL     1      -8.177   0.691 126.183  0.00  0.00    +0.000 C 
ATOM      4  O   UNL     1      -9.247   0.287 126.653  0.00  0.00    +0.000 OA
ATOM      5  C   UNL     1      -7.036  -0.237 125.880  0.00  0.00    +0.000 C 
ATOM      6  N   UNL     1      -6.031  -0.231 126.894  0.00  0.00    +0.000 N 
ATOM      7  C   UNL     1      -5.990  -1.155 127.913  0.00  0.00    +0.000 C 
ATOM      8  O   UNL     1      -4.860  -1.654 128.059  0.00  0.00    +0.000 OA
ATOM      9  C   UNL     1      -7.385  -1.561 128.865  0.00  0.00    +0.000 C 
ATOM     10  N   UNL     1      -7.067  -2.923 129.300  0.00  0.00    +0.000 N 
ATOM     11  C   UNL     1      -6.216  -3.399 130.259  0.00  0.00    +0.000 C 
ATOM     12  O   UNL     1      -6.172  -4.635 130.347  0.00  0.00    +0.000 OA
ATOM     13  C   UNL     1      -5.311  -2.577 131.240  0.00  0.00    +0.000 C 
ATOM     14  C   UNL     1      -5.356  -1.098 131.174  0.00  0.00    +0.000 C 
ATOM     15  S   UNL     1      -4.030   0.081 131.969  0.00  0.00    +0.000 S 
ATOM     16  S   UNL     1      -4.901   1.975 132.323  0.00  0.00    +0.000 S 
ATOM     17  C   UNL     1      -4.174   3.561 131.553  0.00  0.00    +0.000 C 
ATOM     18  C   UNL     1      -4.748   4.968 131.130  0.00  0.00    +0.000 C 
ATOM     19  N   UNL     1      -4.447   5.260 129.703  0.00  0.00    +0.000 N 
ATOM     20  C   UNL     1      -4.908   4.652 128.590  0.00  0.00    +0.000 C 
ATOM     21  O   UNL     1      -4.406   4.784 127.477  0.00  0.00    +0.000 OA
ATOM     22  C   UNL     1      -6.086   3.790 128.758  0.00  0.00    +0.000 C 
ATOM     23  N   UNL     1      -7.064   4.425 127.728  0.00  0.00    +0.000 N 
ATOM     24  C   UNL     1      -7.512   4.074 126.500  0.00  0.00    +0.000 C 
ATOM     25  O   UNL     1      -8.691   4.371 126.247  0.00  0.00    +0.000 OA
ATOM     26  H   UNL     1      -8.935   2.433 125.869  0.00  0.00    +0.000 HD
ATOM     27  H   UNL     1      -5.099   0.033 126.569  0.00  0.00    +0.000 HD
ATOM     28  H   UNL     1      -7.524  -3.652 128.759  0.00  0.00    +0.000 HD
ATOM     29  H   UNL     1      -3.776   5.996 129.497  0.00  0.00    +0.000 HD
ATOM     30  H   UNL     1      -8.025   4.445 128.018  0.00  0.00    +0.000 HD
ENDROOT
BRANCH  18  31
ATOM     31  C   UNL     1      -4.123   6.150 131.987  0.00  0.00    +0.000 C 
ATOM     32  O   UNL     1      -4.817   6.664 132.872  0.00  0.00    +0.000 OA
ATOM     33  N   UNL     1      -2.761   6.431 131.854  0.00  0.00    +0.000 N 
ATOM     34  C   UNL     1      -1.978   6.590 130.634  0.00  0.00    +0.000 C 
ATOM     35  C   UNL     1      -0.598   6.232 131.096  0.00  0.00    +0.000 C 
ATOM     36  C   UNL     1      -0.503   6.989 132.398  0.00  0.00    +0.000 C 
ATOM     37  C   UNL     1      -1.948   7.027 132.951  0.00  0.00    +0.000 C 
BRANCH  37  38
ATOM     38  C   UNL     1      -2.218   8.525 133.173  0.00  0.00    +0.000 C 
ATOM     39  O   UNL     1      -2.588   9.231 132.233  0.00  0.00    +0.000 OA
ATOM     40  N   UNL     1      -1.922   9.049 134.428  0.00  0.00    +0.000 N 
ATOM     41  H   UNL     1      -1.321   8.548 135.076  0.00  0.00    +0.000 HD
BRANCH  40  42
ATOM     42  C   UNL     1      -2.311  10.421 134.829  0.00  0.00    +0.000 C 
BRANCH  42  43
ATOM     43  C   UNL     1      -1.188  11.451 134.458  0.00  0.00    +0.000 C 
ATOM     44  O   UNL     1      -0.769  12.274 135.272  0.00  0.00    +0.000 OA
ATOM     45  N   UNL     1      -0.692  11.377 133.168  0.00  0.00    +0.000 N 
ATOM     46  H   UNL     1      -1.053  10.674 132.548  0.00  0.00    +0.000 HD
BRANCH  45  47
ATOM     47  C   UNL     1       0.343  12.287 132.667  0.00  0.00    +0.000 C 
BRANCH  47  48
ATOM     48  C   UNL     1       0.039  13.005 131.338  0.00  0.00    +0.000 C 
ATOM     49  N   UNL     1      -1.191  13.580 131.182  0.00  0.00    +0.000 N 
ATOM     50  O   UNL     1       0.857  13.079 130.424  0.00  0.00    +0.000 OA
ATOM     51  H   UNL     1      -1.935  13.577 131.855  0.00  0.00    +0.000 HD
ATOM     52  H   UNL     1      -1.374  14.042 130.299  0.00  0.00    +0.000 HD
ENDBRANCH  47  48
ENDBRANCH  45  47
ENDBRANCH  42  43
BRANCH  42  53
ATOM     53  C   UNL     1      -2.577  10.485 136.350  0.00  0.00    +0.000 C 
BRANCH  53  54
ATOM     54  C   UNL     1      -2.023   9.272 137.087  0.00  0.00    +0.000 C 
BRANCH  54  55
ATOM     55  C   UNL     1      -3.045   8.256 137.498  0.00  0.00    +0.000 C 
BRANCH  55  56
ATOM     56  N   UNL     1      -2.677   6.978 136.888  0.00  0.00    +0.000 NA
ATOM     57  C   UNL     1      -3.570   6.422 136.155  0.00  0.00    +0.000 C 
ATOM     58  N   UNL     1      -4.788   6.920 135.888  0.00  0.00    +0.000 N 
ATOM     59  N   UNL     1      -3.323   5.242 135.565  0.00  0.00    +0.000 N 
ATOM     60  H   UNL     1      -5.057   7.798 136.305  0.00  0.00    +0.000 HD
ATOM     61  H   UNL     1      -5.457   6.465 135.295  0.00  0.00    +0.000 HD
ATOM     62  H   UNL     1      -2.427   4.811 135.750  0.00  0.00    +0.000 HD
ATOM     63  H   UNL     1      -3.973   4.757 134.972  0.00  0.00    +0.000 HD
ENDBRANCH  55  56
ENDBRANCH  54  55
ENDBRANCH  53  54
ENDBRANCH  42  53
ENDBRANCH  40  42
ENDBRANCH  37  38
ENDBRANCH  18  31
BRANCH  22  64
ATOM     64  C   UNL     1      -5.475   2.426 128.676  0.00  0.00    +0.000 C 
BRANCH  64  65
ATOM     65  C   UNL     1      -4.116   2.246 128.237  0.00  0.00    +0.000 C 
ATOM     66  N   UNL     1      -3.722   2.114 126.954  0.00  0.00    +0.000 N 
ATOM     67  O   UNL     1      -3.434   2.212 129.176  0.00  0.00    +0.000 OA
ATOM     68  H   UNL     1      -4.337   2.208 126.189  0.00  0.00    +0.000 HD
ATOM     69  H   UNL     1      -2.767   2.077 126.627  0.00  0.00    +0.000 HD
ENDBRANCH  64  65
ENDBRANCH  22  64
BRANCH   9  70
ATOM     70  C   UNL     1      -8.449  -0.909 130.007  0.00  0.00    +0.000 C 
BRANCH  70  71
ATOM     71  C   UNL     1      -8.447   0.560 130.471  0.00  0.00    +0.000 A 
ATOM     72  C   UNL     1      -8.774   0.647 131.759  0.00  0.00    +0.000 A 
ATOM     73  C   UNL     1      -9.259   1.793 132.350  0.00  0.00    +0.000 A 
ATOM     74  C   UNL     1      -9.544   3.002 131.744  0.00  0.00    +0.000 A 
ATOM     75  C   UNL     1      -9.306   2.960 130.399  0.00  0.00    +0.000 A 
ATOM     76  C   UNL     1      -8.722   1.773 129.777  0.00  0.00    +0.000 A 
BRANCH  74  77
ATOM     77  O   UNL     1     -10.343   4.033 132.184  0.00  0.00    +0.000 OA
ATOM     78  H   UNL     1     -10.109   4.901 132.585  0.00  0.00    +0.000 HD
ENDBRANCH  74  77
ENDBRANCH  70  71
ENDBRANCH   9  70
BRANCH   5  79
ATOM     79  C   UNL     1      -7.529  -1.626 125.516  0.00  0.00    +0.000 C 
BRANCH  79  80
ATOM     80  C   UNL     1      -6.649  -2.306 124.502  0.00  0.00    +0.000 A 
ATOM     81  C   UNL     1      -5.799  -3.395 124.796  0.00  0.00    +0.000 A 
ATOM     82  C   UNL     1      -4.698  -3.704 124.040  0.00  0.00    +0.000 A 
ATOM     83  C   UNL     1      -4.674  -3.195 122.769  0.00  0.00    +0.000 A 
ATOM     84  C   UNL     1      -5.604  -2.221 122.377  0.00  0.00    +0.000 A 
ATOM     85  C   UNL     1      -6.543  -1.716 123.264  0.00  0.00    +0.000 A 
ENDBRANCH  79  80
ENDBRANCH   5  79
BRANCH   1  86
ATOM     86  C   UNL     1      -5.817   3.389 124.886  0.00  0.00    +0.000 C 
BRANCH  86  88
ATOM     87  C   UNL     1      -5.542   4.155 122.579  0.00  0.00    +0.000 C 
ATOM     88  C   UNL     1      -6.438   3.438 123.545  0.00  0.00    +0.000 C 
ENDBRANCH  86  88
ENDBRANCH   1  86
TORSDOF 19
ENDMDL
MODEL 2
REMARK VINA RESULT:      -9.4      1.756      2.960
REMARK  Name = CHEMBL2369845
REMARK  20 active torsions:
REMARK  status: ('A' for Active; 'I' for Inactive)
REMARK    1  A    between atoms: C_1  and  C_2
REMARK    2  A    between atoms: C_2  and  C_3
REMARK    3  A    between atoms: C_3  and  C_4
REMARK    4  A    between atoms: C_8  and  C_9
REMARK    5  A    between atoms: C_9  and  C_10
REMARK    6  A    between atoms: C_19  and  C_20
REMARK    7  A    between atoms: C_20  and  C_21
REMARK    8  A    between atoms: C_24  and  O_25
REMARK    9  A    between atoms: C_36  and  C_37
REMARK   10  A    between atoms: C_43  and  C_44
REMARK   11  A    between atoms: N_46  and  C_47
REMARK   12  A    between atoms: C_47  and  C_48
REMARK   13  A    between atoms: C_47  and  C_55
REMARK   14  A    between atoms: C_48  and  C_49
REMARK   15  A    between atoms: C_49  and  C_50
REMARK   16  A    between atoms: C_50  and  N_51
REMARK   17  A    between atoms: N_57  and  C_58
REMARK   18  A    between atoms: C_58  and  C_59
REMARK   19  A    between atoms: C_65  and  C_66
REMARK   20  A    between atoms: C_66  and  C_67
REMARK                            x       y       z     vdW  Elec       q    Type
REMARK                         _______ _______ _______ _____ _____    ______ ____
ROOT
ATOM      1  C   UNL     1      -7.068   3.148 125.303  0.00  0.00    +0.000 C 
ATOM      2  N   UNL     1      -8.267   2.253 125.290  0.00  0.00    +0.000 N 
ATOM      3  C   UNL     1      -8.425   0.980 125.809  0.00  0.00    +0.000 C 
ATOM      4  O   UNL     1      -9.464   0.627 126.376  0.00  0.00    +0.000 OA
ATOM      5  C   UNL     1      -7.344   0.003 125.440  0.00  0.00    +0.000 C 
ATOM      6  N   UNL     1      -6.259   0.001 126.368  0.00  0.00    +0.000 N 
ATOM      7  C   UNL     1      -6.164  -0.897 127.408  0.00  0.00    +0.000 C 
ATOM      8  O   UNL     1      -5.043  -1.432 127.475  0.00  0.00    +0.000 OA
ATOM      9  C   UNL     1      -7.488  -1.226 128.482  0.00  0.00    +0.000 C 
ATOM     10  N   UNL     1      -7.181  -2.587 128.930  0.00  0.00    +0.000 N 
ATOM     11  C   UNL     1      -6.269  -3.067 129.830  0.00  0.00    +0.000 C 
ATOM     12  O   UNL     1      -6.260  -4.300 129.951  0.00  0.00    +0.000 OA
ATOM     13  C   UNL     1      -5.259  -2.251 130.709  0.00  0.00    +0.000 C 
ATOM     14  C   UNL     1      -5.260  -0.774 130.602  0.00  0.00    +0.000 C 
ATOM     15  S   UNL     1      -3.834   0.378 131.250  0.00  0.00    +0.000 S 
ATOM     16  S   UNL     1      -4.609   2.311 131.617  0.00  0.00    +0.000 S 
ATOM     17  C   UNL     1      -3.895   3.848 130.743  0.00  0.00    +0.000 C 
ATOM     18  C   UNL     1      -4.454   5.263 130.326  0.00  0.00    +0.000 C 
ATOM     19  N   UNL     1      -4.263   5.506 128.872  0.00  0.00    +0.000 N 
ATOM     20  C   UNL     1      -4.836   4.885 127.819  0.00  0.00    +0.000 C 
ATOM     21  O   UNL     1      -4.424   4.968 126.665  0.00  0.00    +0.000 OA
ATOM     22  C   UNL     1      -6.024   4.070 128.108  0.00  0.00    +0.000 C 
ATOM     23  N   UNL     1      -7.062   4.712 127.144  0.00  0.00    +0.000 N 
ATOM     24  C   UNL     1      -7.622   4.344 125.968  0.00  0.00    +0.000 C 
ATOM     25  O   UNL     1      -8.807   4.676 125.803  0.00  0.00    +0.000 OA
ATOM     26  H   UNL     1      -9.147   2.739 125.505  0.00  0.00    +0.000 HD
ATOM     27  H   UNL     1      -5.348   0.222 125.960  0.00  0.00    +0.000 HD
ATOM     28  H   UNL     1      -7.705  -3.312 128.451  0.00  0.00    +0.000 HD
ATOM     29  H   UNL     1      -3.588   6.211 128.589  0.00  0.00    +0.000 HD
ATOM     30  H   UNL     1      -7.994   4.774 127.511  0.00  0.00    +0.000 HD
ENDROOT
BRANCH  18  31
ATOM     31  C   UNL     1      -3.721   6.445 131.094  0.00  0.00    +0.000 C 
ATOM     32  O   UNL     1      -3.642   7.546 130.538  0.00  0.00    +0.000 OA
ATOM     33  N   UNL     1      -3.373   6.263 132.435  0.00  0.00    +0.000 N 
ATOM     34  C   UNL     1      -2.699   5.129 133.056  0.00  0.00    +0.000 C 
ATOM     35  C   UNL     1      -3.180   5.213 134.473  0.00  0.00    +0.000 C 
ATOM     36  C   UNL     1      -3.034   6.688 134.760  0.00  0.00    +0.000 C 
ATOM     37  C   UNL     1      -3.268   7.391 133.402  0.00  0.00    +0.000 C 
BRANCH  37  38
ATOM     38  C   UNL     1      -2.007   8.251 133.210  0.00  0.00    +0.000 C 
ATOM     39  O   UNL     1      -0.932   7.715 132.936  0.00  0.00    +0.000 OA
ATOM     40  N   UNL     1      -2.119   9.614 133.466  0.00  0.00    +0.000 N 
ATOM     41  H   UNL     1      -2.900   9.986 133.998  0.00  0.00    +0.000 HD
BRANCH  40  42
ATOM     42  C   UNL     1      -1.039  10.576 133.137  0.00  0.00    +0.000 C 
BRANCH  42  43
ATOM     43  C   UNL     1      -0.210  10.944 134.416  0.00  0.00    +0.000 C 
ATOM     44  O   UNL     1      -0.365  10.349 135.481  0.00  0.00    +0.000 OA
ATOM     45  N   UNL     1       0.708  11.971 134.275  0.00  0.00    +0.000 N 
ATOM     46  H   UNL     1       0.810  12.411 133.378  0.00  0.00    +0.000 HD
BRANCH  45  47
ATOM     47  C   UNL     1       1.540  12.443 135.386  0.00  0.00    +0.000 C 
BRANCH  47  48
ATOM     48  C   UNL     1       2.134  13.858 135.242  0.00  0.00    +0.000 C 
ATOM     49  N   UNL     1       2.675  14.211 134.038  0.00  0.00    +0.000 N 
ATOM     50  O   UNL     1       2.135  14.672 136.163  0.00  0.00    +0.000 OA
ATOM     51  H   UNL     1       2.734  13.630 133.222  0.00  0.00    +0.000 HD
ATOM     52  H   UNL     1       3.065  15.143 133.965  0.00  0.00    +0.000 HD
ENDBRANCH  47  48
ENDBRANCH  45  47
ENDBRANCH  42  43
BRANCH  42  53
ATOM     53  C   UNL     1      -1.633  11.865 132.527  0.00  0.00    +0.000 C 
BRANCH  53  54
ATOM     54  C   UNL     1      -2.670  12.513 133.435  0.00  0.00    +0.000 C 
BRANCH  54  55
ATOM     55  C   UNL     1      -2.493  13.985 133.655  0.00  0.00    +0.000 C 
BRANCH  55  56
ATOM     56  N   UNL     1      -1.603  14.162 134.803  0.00  0.00    +0.000 NA
ATOM     57  C   UNL     1      -1.613  15.320 135.353  0.00  0.00    +0.000 C 
ATOM     58  N   UNL     1      -2.377  16.360 134.981  0.00  0.00    +0.000 N 
ATOM     59  N   UNL     1      -0.820  15.577 136.404  0.00  0.00    +0.000 N 
ATOM     60  H   UNL     1      -2.992  16.253 134.190  0.00  0.00    +0.000 HD
ATOM     61  H   UNL     1      -2.372  17.248 135.447  0.00  0.00    +0.000 HD
ATOM     62  H   UNL     1      -0.206  14.834 136.713  0.00  0.00    +0.000 HD
ATOM     63  H   UNL     1      -0.784  16.457 136.888  0.00  0.00    +0.000 HD
ENDBRANCH  55  56
ENDBRANCH  54  55
ENDBRANCH  53  54
ENDBRANCH  42  53
ENDBRANCH  40  42
ENDBRANCH  37  38
ENDBRANCH  18  31
BRANCH  22  64
ATOM     64  C   UNL     1      -5.468   2.683 128.018  0.00  0.00    +0.000 C 
BRANCH  64  65
ATOM     65  C   UNL     1      -4.183   2.436 127.419  0.00  0.00    +0.000 C 
ATOM     66  N   UNL     1      -2.991   2.648 128.015  0.00  0.00    +0.000 N 
ATOM     67  O   UNL     1      -4.355   2.050 126.338  0.00  0.00    +0.000 OA
ATOM     68  H   UNL     1      -2.902   2.924 128.957  0.00  0.00    +0.000 HD
ATOM     69  H   UNL     1      -2.087   2.396 127.641  0.00  0.00    +0.000 HD
ENDBRANCH  64  65
ENDBRANCH  22  64
BRANCH   9  70
ATOM     70  C   UNL     1      -8.431  -0.506 129.687  0.00  0.00    +0.000 C 
BRANCH  70  71
ATOM     71  C   UNL     1      -8.386   0.988 130.063  0.00  0.00    +0.000 A 
ATOM     72  C   UNL     1      -8.465   1.144 131.383  0.00  0.00    +0.000 A 
ATOM     73  C   UNL     1      -8.864   2.314 131.992  0.00  0.00    +0.000 A 
ATOM     74  C   UNL     1      -9.296   3.479 131.388  0.00  0.00    +0.000 A 
ATOM     75  C   UNL     1      -9.318   3.362 130.026  0.00  0.00    +0.000 A 
ATOM     76  C   UNL     1      -8.826   2.152 129.369  0.00  0.00    +0.000 A 
BRANCH  74  77
ATOM     77  O   UNL     1     -10.029   4.518 131.916  0.00  0.00    +0.000 OA
ATOM     78  H   UNL     1     -10.945   4.542 132.272  0.00  0.00    +0.000 HD
ENDBRANCH  74  77
ENDBRANCH  70  71
ENDBRANCH   9  70
BRANCH   5  79
ATOM     79  C   UNL     1      -7.912  -1.377 125.160  0.00  0.00    +0.000 C 
BRANCH  79  80
ATOM     80  C   UNL     1      -6.998  -2.218 124.312  0.00  0.00    +0.000 A 
ATOM     81  C   UNL     1      -6.422  -3.436 124.737  0.00  0.00    +0.000 A 
ATOM     82  C   UNL     1      -5.274  -3.947 124.188  0.00  0.00    +0.000 A 
ATOM     83  C   UNL     1      -4.930  -3.471 122.952  0.00  0.00    +0.000 A 
ATOM     84  C   UNL     1      -5.585  -2.355 122.414  0.00  0.00    +0.000 A 
ATOM     85  C   UNL     1      -6.565  -1.677 123.123  0.00  0.00    +0.000 A 
ENDBRANCH  79  80
ENDBRANCH   5  79
BRANCH   1  86
ATOM     86  C   UNL     1      -6.091   3.555 124.242  0.00  0.00    +0.000 C 
BRANCH  86  88
ATOM     87  C   UNL     1      -5.908   3.693 121.806  0.00  0.00    +0.000 C 
ATOM     88  C   UNL     1      -6.568   2.996 122.959  0.00  0.00    +0.000 C 
ENDBRANCH  86  88
ENDBRANCH   1  86
TORSDOF 19
ENDMDL
MODEL 3
REMARK VINA RESULT:      -9.3      2.071      3.515
REMARK  Name = CHEMBL2369845
REMARK  20 active torsions:
REMARK  status: ('A' for Active; 'I' for Inactive)
REMARK    1  A    between atoms: C_1  and  C_2
REMARK    2  A    between atoms: C_2  and  C_3
REMARK    3  A    between atoms: C_3  and  C_4
REMARK    4  A    between atoms: C_8  and  C_9
REMARK    5  A    between atoms: C_9  and  C_10
REMARK    6  A    between atoms: C_19  and  C_20
REMARK    7  A    between atoms: C_20  and  C_21
REMARK    8  A    between atoms: C_24  and  O_25
REMARK    9  A    between atoms: C_36  and  C_37
REMARK   10  A    between atoms: C_43  and  C_44
REMARK   11  A    between atoms: N_46  and  C_47
REMARK   12  A    between atoms: C_47  and  C_48
REMARK   13  A    between atoms: C_47  and  C_55
REMARK   14  A    between atoms: C_48  and  C_49
REMARK   15  A    between atoms: C_49  and  C_50
REMARK   16  A    between atoms: C_50  and  N_51
REMARK   17  A    between atoms: N_57  and  C_58
REMARK   18  A    between atoms: C_58  and  C_59
REMARK   19  A    between atoms: C_65  and  C_66
REMARK   20  A    between atoms: C_66  and  C_67
REMARK                            x       y       z     vdW  Elec       q    Type
REMARK                         _______ _______ _______ _____ _____    ______ ____
ROOT
ATOM      1  C   UNL     1      -6.826   3.436 125.295  0.00  0.00    +0.000 C 
ATOM      2  N   UNL     1      -8.119   2.681 125.280  0.00  0.00    +0.000 N 
ATOM      3  C   UNL     1      -8.404   1.410 125.744  0.00  0.00    +0.000 C 
ATOM      4  O   UNL     1      -9.461   1.147 126.330  0.00  0.00    +0.000 OA
ATOM      5  C   UNL     1      -7.451   0.338 125.295  0.00  0.00    +0.000 C 
ATOM      6  N   UNL     1      -6.348   0.169 126.185  0.00  0.00    +0.000 N 
ATOM      7  C   UNL     1      -6.326  -0.785 127.178  0.00  0.00    +0.000 C 
ATOM      8  O   UNL     1      -5.271  -1.444 127.182  0.00  0.00    +0.000 OA
ATOM      9  C   UNL     1      -7.648  -1.018 128.280  0.00  0.00    +0.000 C 
ATOM     10  N   UNL     1      -7.484  -2.425 128.653  0.00  0.00    +0.000 N 
ATOM     11  C   UNL     1      -6.608  -3.048 129.499  0.00  0.00    +0.000 C 
ATOM     12  O   UNL     1      -6.735  -4.279 129.562  0.00  0.00    +0.000 OA
ATOM     13  C   UNL     1      -5.488  -2.395 130.380  0.00  0.00    +0.000 C 
ATOM     14  C   UNL     1      -5.324  -0.923 130.342  0.00  0.00    +0.000 C 
ATOM     15  S   UNL     1      -3.760   0.028 130.995  0.00  0.00    +0.000 S 
ATOM     16  S   UNL     1      -4.300   2.016 131.477  0.00  0.00    +0.000 S 
ATOM     17  C   UNL     1      -3.442   3.505 130.652  0.00  0.00    +0.000 C 
ATOM     18  C   UNL     1      -3.850   4.992 130.321  0.00  0.00    +0.000 C 
ATOM     19  N   UNL     1      -3.674   5.285 128.873  0.00  0.00    +0.000 N 
ATOM     20  C   UNL     1      -4.342   4.785 127.812  0.00  0.00    +0.000 C 
ATOM     21  O   UNL     1      -3.956   4.879 126.651  0.00  0.00    +0.000 OA
ATOM     22  C   UNL     1      -5.606   4.094 128.104  0.00  0.00    +0.000 C 
ATOM     23  N   UNL     1      -6.592   4.895 127.205  0.00  0.00    +0.000 N 
ATOM     24  C   UNL     1      -7.222   4.651 126.033  0.00  0.00    +0.000 C 
ATOM     25  O   UNL     1      -8.367   5.121 125.924  0.00  0.00    +0.000 OA
ATOM     26  H   UNL     1      -8.932   3.251 125.547  0.00  0.00    +0.000 HD
ATOM     27  H   UNL     1      -5.430   0.307 125.757  0.00  0.00    +0.000 HD
ATOM     28  H   UNL     1      -8.100  -3.063 128.159  0.00  0.00    +0.000 HD
ATOM     29  H   UNL     1      -2.931   5.923 128.601  0.00  0.00    +0.000 HD
ATOM     30  H   UNL     1      -7.500   5.042 127.606  0.00  0.00    +0.000 HD
ENDROOT
BRANCH  18  31
ATOM     31  C   UNL     1      -2.967   6.045 131.117  0.00  0.00    +0.000 C 
ATOM     32  O   UNL     1      -2.211   6.782 130.475  0.00  0.00    +0.000 OA
ATOM     33  N   UNL     1      -3.218   6.242 132.478  0.00  0.00    +0.000 N 
ATOM     34  C   UNL     1      -3.392   5.244 133.527  0.00  0.00    +0.000 C 
ATOM     35  C   UNL     1      -4.229   5.980 134.528  0.00  0.00    +0.000 C 
ATOM     36  C   UNL     1      -3.532   7.318 134.586  0.00  0.00    +0.000 C 
ATOM     37  C   UNL     1      -2.943   7.532 133.171  0.00  0.00    +0.000 C 
BRANCH  37  38
ATOM     38  C   UNL     1      -1.448   7.786 133.428  0.00  0.00    +0.000 C 
ATOM     39  O   UNL     1      -0.613   6.944 133.092  0.00  0.00    +0.000 OA
ATOM     40  N   UNL     1      -1.109   8.931 134.143  0.00  0.00    +0.000 N 
ATOM     41  H   UNL     1      -1.802   9.432 134.690  0.00  0.00    +0.000 HD
BRANCH  40  42
ATOM     42  C   UNL     1       0.293   9.389 134.291  0.00  0.00    +0.000 C 
BRANCH  42  43
ATOM     43  C   UNL     1       0.936   8.807 135.598  0.00  0.00    +0.000 C 
ATOM     44  O   UNL     1       1.246   9.531 136.544  0.00  0.00    +0.000 OA
ATOM     45  N   UNL     1       1.127   7.436 135.629  0.00  0.00    +0.000 N 
ATOM     46  H   UNL     1       0.837   6.888 134.838  0.00  0.00    +0.000 HD
BRANCH  45  47
ATOM     47  C   UNL     1       1.737   6.750 136.772  0.00  0.00    +0.000 C 
BRANCH  47  48
ATOM     48  C   UNL     1       3.276   6.755 136.830  0.00  0.00    +0.000 C 
ATOM     49  N   UNL     1       3.896   7.821 137.419  0.00  0.00    +0.000 N 
ATOM     50  O   UNL     1       3.959   5.841 136.373  0.00  0.00    +0.000 OA
ATOM     51  H   UNL     1       3.444   8.622 137.819  0.00  0.00    +0.000 HD
ATOM     52  H   UNL     1       4.909   7.809 137.443  0.00  0.00    +0.000 HD
ENDBRANCH  47  48
ENDBRANCH  45  47
ENDBRANCH  42  43
BRANCH  42  53
ATOM     53  C   UNL     1       0.355  10.932 134.337  0.00  0.00    +0.000 C 
BRANCH  53  54
ATOM     54  C   UNL     1       1.083  11.519 133.134  0.00  0.00    +0.000 C 
BRANCH  54  55
ATOM     55  C   UNL     1       0.728  12.939 132.808  0.00  0.00    +0.000 C 
BRANCH  55  56
ATOM     56  N   UNL     1      -0.585  13.218 133.391  0.00  0.00    +0.000 NA
ATOM     57  C   UNL     1      -1.539  13.430 132.562  0.00  0.00    +0.000 C 
ATOM     58  N   UNL     1      -1.438  13.397 131.223  0.00  0.00    +0.000 N 
ATOM     59  N   UNL     1      -2.774  13.705 133.008  0.00  0.00    +0.000 N 
ATOM     60  H   UNL     1      -0.539  13.211 130.807  0.00  0.00    +0.000 HD
ATOM     61  H   UNL     1      -2.211  13.552 130.603  0.00  0.00    +0.000 HD
ATOM     62  H   UNL     1      -2.902  13.764 134.010  0.00  0.00    +0.000 HD
ATOM     63  H   UNL     1      -3.568  13.873 132.414  0.00  0.00    +0.000 HD
ENDBRANCH  55  56
ENDBRANCH  54  55
ENDBRANCH  53  54
ENDBRANCH  42  53
ENDBRANCH  40  42
ENDBRANCH  37  38
ENDBRANCH  18  31
BRANCH  22  64
ATOM     64  C   UNL     1      -5.213   2.660 127.930  0.00  0.00    +0.000 C 
BRANCH  64  65
ATOM     65  C   UNL     1      -3.976   2.302 127.288  0.00  0.00    +0.000 C 
ATOM     66  N   UNL     1      -2.751   2.403 127.844  0.00  0.00    +0.000 N 
ATOM     67  O   UNL     1      -4.218   1.938 126.213  0.00  0.00    +0.000 OA
ATOM     68  H   UNL     1      -2.606   2.665 128.783  0.00  0.00    +0.000 HD
ATOM     69  H   UNL     1      -1.886   2.073 127.440  0.00  0.00    +0.000 HD
ENDBRANCH  64  65
ENDBRANCH  22  64
BRANCH   9  70
ATOM     70  C   UNL     1      -8.469  -0.258 129.548  0.00  0.00    +0.000 C 
BRANCH  70  71
ATOM     71  C   UNL     1      -8.295   1.221 129.946  0.00  0.00    +0.000 A 
ATOM     72  C   UNL     1      -8.244   1.348 131.271  0.00  0.00    +0.000 A 
ATOM     73  C   UNL     1      -8.511   2.524 131.937  0.00  0.00    +0.000 A 
ATOM     74  C   UNL     1      -8.921   3.728 131.398  0.00  0.00    +0.000 A 
ATOM     75  C   UNL     1      -9.073   3.648 130.042  0.00  0.00    +0.000 A 
ATOM     76  C   UNL     1      -8.721   2.426 129.319  0.00  0.00    +0.000 A 
BRANCH  74  77
ATOM     77  O   UNL     1      -9.535   4.797 132.012  0.00  0.00    +0.000 OA
ATOM     78  H   UNL     1     -10.483   4.964 132.214  0.00  0.00    +0.000 HD
ENDBRANCH  74  77
ENDBRANCH  70  71
ENDBRANCH   9  70
BRANCH   5  79
ATOM     79  C   UNL     1      -8.179  -0.954 124.970  0.00  0.00    +0.000 C 
BRANCH  79  80
ATOM     80  C   UNL     1      -7.324  -1.923 124.200  0.00  0.00    +0.000 A 
ATOM     81  C   UNL     1      -7.031  -3.236 124.632  0.00  0.00    +0.000 A 
ATOM     82  C   UNL     1      -5.929  -3.930 124.204  0.00  0.00    +0.000 A 
ATOM     83  C   UNL     1      -5.349  -3.490 123.044  0.00  0.00    +0.000 A 
ATOM     84  C   UNL     1      -5.722  -2.260 122.486  0.00  0.00    +0.000 A 
ATOM     85  C   UNL     1      -6.653  -1.436 123.103  0.00  0.00    +0.000 A 
ENDBRANCH  79  80
ENDBRANCH   5  79
BRANCH   1  86
ATOM     86  C   UNL     1      -5.839   3.783 124.222  0.00  0.00    +0.000 C 
BRANCH  86  88
ATOM     87  C   UNL     1      -5.583   3.782 121.788  0.00  0.00    +0.000 C 
ATOM     88  C   UNL     1      -6.557   3.750 122.929  0.00  0.00    +0.000 C 
ENDBRANCH  86  88
ENDBRANCH   1  86
TORSDOF 19
ENDMDL
MODEL 4
REMARK VINA RESULT:      -8.6      5.052      9.688
REMARK  Name = CHEMBL2369845
REMARK  20 active torsions:
REMARK  status: ('A' for Active; 'I' for Inactive)
REMARK    1  A    between atoms: C_1  and  C_2
REMARK    2  A    between atoms: C_2  and  C_3
REMARK    3  A    between atoms: C_3  and  C_4
REMARK    4  A    between atoms: C_8  and  C_9
REMARK    5  A    between atoms: C_9  and  C_10
REMARK    6  A    between atoms: C_19  and  C_20
REMARK    7  A    between atoms: C_20  and  C_21
REMARK    8  A    between atoms: C_24  and  O_25
REMARK    9  A    between atoms: C_36  and  C_37
REMARK   10  A    between atoms: C_43  and  C_44
REMARK   11  A    between atoms: N_46  and  C_47
REMARK   12  A    between atoms: C_47  and  C_48
REMARK   13  A    between atoms: C_47  and  C_55
REMARK   14  A    between atoms: C_48  and  C_49
REMARK   15  A    between atoms: C_49  and  C_50
REMARK   16  A    between atoms: C_50  and  N_51
REMARK   17  A    between atoms: N_57  and  C_58
REMARK   18  A    between atoms: C_58  and  C_59
REMARK   19  A    between atoms: C_65  and  C_66
REMARK   20  A    between atoms: C_66  and  C_67
REMARK                            x       y       z     vdW  Elec       q    Type
REMARK                         _______ _______ _______ _____ _____    ______ ____
ROOT
ATOM      1  C   UNL     1      -6.158  -2.609 129.309  0.00  0.00    +0.000 C 
ATOM      2  N   UNL     1      -5.899  -1.865 128.036  0.00  0.00    +0.000 N 
ATOM      3  C   UNL     1      -6.300  -0.597 127.658  0.00  0.00    +0.000 C 
ATOM      4  O   UNL     1      -5.555   0.168 127.035  0.00  0.00    +0.000 OA
ATOM      5  C   UNL     1      -7.759  -0.303 127.859  0.00  0.00    +0.000 C 
ATOM      6  N   UNL     1      -8.043   0.239 129.149  0.00  0.00    +0.000 N 
ATOM      7  C   UNL     1      -8.147   1.591 129.387  0.00  0.00    +0.000 C 
ATOM      8  O   UNL     1      -9.170   1.885 130.030  0.00  0.00    +0.000 OA
ATOM      9  C   UNL     1      -6.963   2.733 128.827  0.00  0.00    +0.000 C 
ATOM     10  N   UNL     1      -7.756   3.960 128.720  0.00  0.00    +0.000 N 
ATOM     11  C   UNL     1      -8.219   4.833 129.666  0.00  0.00    +0.000 C 
ATOM     12  O   UNL     1      -8.893   5.772 129.220  0.00  0.00    +0.000 OA
ATOM     13  C   UNL     1      -7.996   4.782 131.217  0.00  0.00    +0.000 C 
ATOM     14  C   UNL     1      -7.178   3.682 131.780  0.00  0.00    +0.000 C 
ATOM     15  S   UNL     1      -7.140   3.188 133.659  0.00  0.00    +0.000 S 
ATOM     16  S   UNL     1      -5.321   2.197 134.085  0.00  0.00    +0.000 S 
ATOM     17  C   UNL     1      -5.299   0.430 134.802  0.00  0.00    +0.000 C 
ATOM     18  C   UNL     1      -4.293  -0.784 134.761  0.00  0.00    +0.000 C 
ATOM     19  N   UNL     1      -4.957  -2.011 134.244  0.00  0.00    +0.000 N 
ATOM     20  C   UNL     1      -5.436  -2.267 133.009  0.00  0.00    +0.000 C 
ATOM     21  O   UNL     1      -6.199  -3.193 132.747  0.00  0.00    +0.000 OA
ATOM     22  C   UNL     1      -4.994  -1.365 131.937  0.00  0.00    +0.000 C 
ATOM     23  N   UNL     1      -4.383  -2.381 130.930  0.00  0.00    +0.000 N 
ATOM     24  C   UNL     1      -4.779  -2.902 129.746  0.00  0.00    +0.000 C 
ATOM     25  O   UNL     1      -3.878  -3.118 128.919  0.00  0.00    +0.000 OA
ATOM     26  H   UNL     1      -4.931  -1.950 127.699  0.00  0.00    +0.000 HD
ATOM     27  H   UNL     1      -8.706  -0.306 129.704  0.00  0.00    +0.000 HD
ATOM     28  H   UNL     1      -8.060   4.179 127.776  0.00  0.00    +0.000 HD
ATOM     29  H   UNL     1      -5.121  -2.775 134.893  0.00  0.00    +0.000 HD
ATOM     30  H   UNL     1      -3.559  -2.059 130.456  0.00  0.00    +0.000 HD
ENDROOT
BRANCH  18  31
ATOM     31  C   UNL     1      -3.723  -1.137 136.201  0.00  0.00    +0.000 C 
ATOM     32  O   UNL     1      -2.505  -1.048 136.389  0.00  0.00    +0.000 OA
ATOM     33  N   UNL     1      -4.625  -1.339 137.251  0.00  0.00    +0.000 N 
ATOM     34  C   UNL     1      -5.832  -2.155 137.271  0.00  0.00    +0.000 C 
ATOM     35  C   UNL     1      -6.647  -1.487 138.336  0.00  0.00    +0.000 C 
ATOM     36  C   UNL     1      -5.620  -1.272 139.421  0.00  0.00    +0.000 C 
ATOM     37  C   UNL     1      -4.279  -1.070 138.674  0.00  0.00    +0.000 C 
BRANCH  37  38
ATOM     38  C   UNL     1      -3.350  -2.129 139.292  0.00  0.00    +0.000 C 
ATOM     39  O   UNL     1      -3.026  -2.048 140.478  0.00  0.00    +0.000 OA
ATOM     40  N   UNL     1      -2.819  -3.090 138.437  0.00  0.00    +0.000 N 
ATOM     41  H   UNL     1      -2.823  -2.955 137.430  0.00  0.00    +0.000 HD
BRANCH  40  42
ATOM     42  C   UNL     1      -2.071  -4.269 138.933  0.00  0.00    +0.000 C 
BRANCH  42  43
ATOM     43  C   UNL     1      -0.672  -4.378 138.234  0.00  0.00    +0.000 C 
ATOM     44  O   UNL     1       0.216  -5.110 138.671  0.00  0.00    +0.000 OA
ATOM     45  N   UNL     1      -0.495  -3.610 137.095  0.00  0.00    +0.000 N 
ATOM     46  H   UNL     1      -1.259  -3.045 136.768  0.00  0.00    +0.000 HD
BRANCH  45  47
ATOM     47  C   UNL     1       0.765  -3.589 136.346  0.00  0.00    +0.000 C 
BRANCH  47  48
ATOM     48  C   UNL     1       0.661  -3.269 134.842  0.00  0.00    +0.000 C 
ATOM     49  N   UNL     1       1.709  -3.612 134.035  0.00  0.00    +0.000 N 
ATOM     50  O   UNL     1      -0.324  -2.723 134.348  0.00  0.00    +0.000 OA
ATOM     51  H   UNL     1       2.561  -4.054 134.327  0.00  0.00    +0.000 HD
ATOM     52  H   UNL     1       1.624  -3.389 133.050  0.00  0.00    +0.000 HD
ENDBRANCH  47  48
ENDBRANCH  45  47
ENDBRANCH  42  43
BRANCH  42  53
ATOM     53  C   UNL     1      -2.872  -5.565 138.672  0.00  0.00    +0.000 C 
BRANCH  53  54
ATOM     54  C   UNL     1      -3.931  -5.385 137.593  0.00  0.00    +0.000 C 
BRANCH  54  55
ATOM     55  C   UNL     1      -3.666  -6.117 136.312  0.00  0.00    +0.000 C 
BRANCH  55  56
ATOM     56  N   UNL     1      -2.823  -5.263 135.474  0.00  0.00    +0.000 NA
ATOM     57  C   UNL     1      -3.198  -5.117 134.257  0.00  0.00    +0.000 C 
ATOM     58  N   UNL     1      -4.294  -5.660 133.702  0.00  0.00    +0.000 N 
ATOM     59  N   UNL     1      -2.479  -4.361 133.413  0.00  0.00    +0.000 N 
ATOM     60  H   UNL     1      -4.881  -6.254 134.267  0.00  0.00    +0.000 HD
ATOM     61  H   UNL     1      -4.567  -5.511 132.749  0.00  0.00    +0.000 HD
ATOM     62  H   UNL     1      -1.629  -3.945 133.773  0.00  0.00    +0.000 HD
ATOM     63  H   UNL     1      -2.719  -4.198 132.451  0.00  0.00    +0.000 HD
ENDBRANCH  55  56
ENDBRANCH  54  55
ENDBRANCH  53  54
ENDBRANCH  42  53
ENDBRANCH  40  42
ENDBRANCH  37  38
ENDBRANCH  18  31
BRANCH  22  64
ATOM     64  C   UNL     1      -6.219  -0.531 131.722  0.00  0.00    +0.000 C 
BRANCH  64  65
ATOM     65  C   UNL     1      -7.456  -0.842 132.387  0.00  0.00    +0.000 C 
ATOM     66  N   UNL     1      -8.404  -1.680 131.919  0.00  0.00    +0.000 N 
ATOM     67  O   UNL     1      -7.499  -0.233 133.374  0.00  0.00    +0.000 OA
ATOM     68  H   UNL     1      -8.291  -2.217 131.100  0.00  0.00    +0.000 HD
ATOM     69  H   UNL     1      -9.233  -1.975 132.415  0.00  0.00    +0.000 HD
ENDBRANCH  64  65
ENDBRANCH  22  64
BRANCH   9  70
ATOM     70  C   UNL     1      -5.354   3.198 129.059  0.00  0.00    +0.000 C 
BRANCH  70  71
ATOM     71  C   UNL     1      -4.760   4.553 128.629  0.00  0.00    +0.000 A 
ATOM     72  C   UNL     1      -3.823   4.382 127.699  0.00  0.00    +0.000 A 
ATOM     73  C   UNL     1      -2.841   5.308 127.422  0.00  0.00    +0.000 A 
ATOM     74  C   UNL     1      -2.608   6.511 128.061  0.00  0.00    +0.000 A 
ATOM     75  C   UNL     1      -3.488   6.716 129.087  0.00  0.00    +0.000 A 
ATOM     76  C   UNL     1      -4.578   5.774 129.339  0.00  0.00    +0.000 A 
BRANCH  74  77
ATOM     77  O   UNL     1      -1.470   7.286 128.079  0.00  0.00    +0.000 OA
ATOM     78  H   UNL     1      -0.769   7.413 127.400  0.00  0.00    +0.000 HD
ENDBRANCH  74  77
ENDBRANCH  70  71
ENDBRANCH   9  70
BRANCH   5  79
ATOM     79  C   UNL     1      -8.326   0.516 126.713  0.00  0.00    +0.000 C 
BRANCH  79  80
ATOM     80  C   UNL     1      -8.784  -0.338 125.562  0.00  0.00    +0.000 A 
ATOM     81  C   UNL     1      -9.080  -1.715 125.667  0.00  0.00    +0.000 A 
ATOM     82  C   UNL     1      -9.040  -2.567 124.594  0.00  0.00    +0.000 A 
ATOM     83  C   UNL     1      -9.113  -1.987 123.356  0.00  0.00    +0.000 A 
ATOM     84  C   UNL     1      -8.983  -0.598 123.214  0.00  0.00    +0.000 A 
ATOM     85  C   UNL     1      -8.739   0.222 124.306  0.00  0.00    +0.000 A 
ENDBRANCH  79  80
ENDBRANCH   5  79
BRANCH   1  86
ATOM     86  C   UNL     1      -7.061  -3.756 129.650  0.00  0.00    +0.000 C 
BRANCH  86  88
ATOM     87  C   UNL     1      -8.761  -4.281 127.971  0.00  0.00    +0.000 C 
ATOM     88  C   UNL     1      -8.413  -3.423 129.151  0.00  0.00    +0.000 C 
ENDBRANCH  86  88
ENDBRANCH   1  86
TORSDOF 19
ENDMDL
MODEL 5
REMARK VINA RESULT:      -8.4      4.320     10.011
REMARK  Name = CHEMBL2369845
REMARK  20 active torsions:
REMARK  status: ('A' for Active; 'I' for Inactive)
REMARK    1  A    between atoms: C_1  and  C_2
REMARK    2  A    between atoms: C_2  and  C_3
REMARK    3  A    between atoms: C_3  and  C_4
REMARK    4  A    between atoms: C_8  and  C_9
REMARK    5  A    between atoms: C_9  and  C_10
REMARK    6  A    between atoms: C_19  and  C_20
REMARK    7  A    between atoms: C_20  and  C_21
REMARK    8  A    between atoms: C_24  and  O_25
REMARK    9  A    between atoms: C_36  and  C_37
REMARK   10  A    between atoms: C_43  and  C_44
REMARK   11  A    between atoms: N_46  and  C_47
REMARK   12  A    between atoms: C_47  and  C_48
REMARK   13  A    between atoms: C_47  and  C_55
REMARK   14  A    between atoms: C_48  and  C_49
REMARK   15  A    between atoms: C_49  and  C_50
REMARK   16  A    between atoms: C_50  and  N_51
REMARK   17  A    between atoms: N_57  and  C_58
REMARK   18  A    between atoms: C_58  and  C_59
REMARK   19  A    between atoms: C_65  and  C_66
REMARK   20  A    between atoms: C_66  and  C_67
REMARK                            x       y       z     vdW  Elec       q    Type
REMARK                         _______ _______ _______ _____ _____    ______ ____
ROOT
ATOM      1  C   UNL     1      -6.741  -0.424 127.200  0.00  0.00    +0.000 C 
ATOM      2  N   UNL     1      -5.786   0.452 126.451  0.00  0.00    +0.000 N 
ATOM      3  C   UNL     1      -5.481   1.788 126.638  0.00  0.00    +0.000 C 
ATOM      4  O   UNL     1      -4.327   2.218 126.536  0.00  0.00    +0.000 OA
ATOM      5  C   UNL     1      -6.668   2.703 126.750  0.00  0.00    +0.000 C 
ATOM      6  N   UNL     1      -7.126   2.855 128.093  0.00  0.00    +0.000 N 
ATOM      7  C   UNL     1      -6.744   3.902 128.902  0.00  0.00    +0.000 C 
ATOM      8  O   UNL     1      -7.711   4.448 129.463  0.00  0.00    +0.000 OA
ATOM      9  C   UNL     1      -5.086   4.385 129.086  0.00  0.00    +0.000 C 
ATOM     10  N   UNL     1      -5.222   5.800 129.440  0.00  0.00    +0.000 N 
ATOM     11  C   UNL     1      -5.581   6.418 130.606  0.00  0.00    +0.000 C 
ATOM     12  O   UNL     1      -5.619   7.656 130.547  0.00  0.00    +0.000 OA
ATOM     13  C   UNL     1      -5.940   5.753 131.980  0.00  0.00    +0.000 C 
ATOM     14  C   UNL     1      -5.884   4.277 132.089  0.00  0.00    +0.000 C 
ATOM     15  S   UNL     1      -6.692   3.248 133.526  0.00  0.00    +0.000 S 
ATOM     16  S   UNL     1      -5.697   1.389 133.699  0.00  0.00    +0.000 S 
ATOM     17  C   UNL     1      -6.641  -0.260 133.534  0.00  0.00    +0.000 C 
ATOM     18  C   UNL     1      -6.268  -1.725 133.084  0.00  0.00    +0.000 C 
ATOM     19  N   UNL     1      -7.155  -2.188 131.983  0.00  0.00    +0.000 N 
ATOM     20  C   UNL     1      -7.246  -1.739 130.713  0.00  0.00    +0.000 C 
ATOM     21  O   UNL     1      -8.181  -1.996 129.960  0.00  0.00    +0.000 OA
ATOM     22  C   UNL     1      -6.140  -0.897 130.237  0.00  0.00    +0.000 C 
ATOM     23  N   UNL     1      -5.693  -1.686 128.973  0.00  0.00    +0.000 N 
ATOM     24  C   UNL     1      -5.839  -1.506 127.639  0.00  0.00    +0.000 C 
ATOM     25  O   UNL     1      -4.882  -1.867 126.935  0.00  0.00    +0.000 OA
ATOM     26  H   UNL     1      -4.886  -0.001 126.246  0.00  0.00    +0.000 HD
ATOM     27  H   UNL     1      -8.098   2.579 128.246  0.00  0.00    +0.000 HD
ATOM     28  H   UNL     1      -5.071   6.440 128.666  0.00  0.00    +0.000 HD
ATOM     29  H   UNL     1      -7.825  -2.924 132.187  0.00  0.00    +0.000 HD
ATOM     30  H   UNL     1      -4.702  -1.696 128.812  0.00  0.00    +0.000 HD
ENDROOT
BRANCH  18  31
ATOM     31  C   UNL     1      -6.418  -2.770 134.271  0.00  0.00    +0.000 C 
ATOM     32  O   UNL     1      -7.406  -2.684 135.008  0.00  0.00    +0.000 OA
ATOM     33  N   UNL     1      -5.548  -3.863 134.319  0.00  0.00    +0.000 N 
ATOM     34  C   UNL     1      -4.097  -3.881 134.176  0.00  0.00    +0.000 C 
ATOM     35  C   UNL     1      -3.845  -5.273 133.685  0.00  0.00    +0.000 C 
ATOM     36  C   UNL     1      -4.726  -6.088 134.601  0.00  0.00    +0.000 C 
ATOM     37  C   UNL     1      -5.922  -5.165 134.939  0.00  0.00    +0.000 C 
BRANCH  37  38
ATOM     38  C   UNL     1      -5.939  -5.132 136.477  0.00  0.00    +0.000 C 
ATOM     39  O   UNL     1      -5.077  -5.738 137.116  0.00  0.00    +0.000 OA
ATOM     40  N   UNL     1      -7.014  -4.496 137.090  0.00  0.00    +0.000 N 
ATOM     41  H   UNL     1      -7.867  -4.296 136.577  0.00  0.00    +0.000 HD
BRANCH  40  42
ATOM     42  C   UNL     1      -7.052  -4.228 138.548  0.00  0.00    +0.000 C 
BRANCH  42  43
ATOM     43  C   UNL     1      -8.510  -3.888 139.014  0.00  0.00    +0.000 C 
ATOM     44  O   UNL     1      -8.761  -3.573 140.177  0.00  0.00    +0.000 OA
ATOM     45  N   UNL     1      -9.495  -3.955 138.043  0.00  0.00    +0.000 N 
ATOM     46  H   UNL     1      -9.234  -4.197 137.104  0.00  0.00    +0.000 HD
BRANCH  45  47
ATOM     47  C   UNL     1     -10.907  -3.686 138.332  0.00  0.00    +0.000 C 
BRANCH  47  48
ATOM     48  C   UNL     1     -11.391  -2.242 138.098  0.00  0.00    +0.000 C 
ATOM     49  N   UNL     1     -12.570  -2.056 137.433  0.00  0.00    +0.000 N 
ATOM     50  O   UNL     1     -10.760  -1.262 138.488  0.00  0.00    +0.000 OA
ATOM     51  H   UNL     1     -13.163  -2.777 137.067  0.00  0.00    +0.000 HD
ATOM     52  H   UNL     1     -12.869  -1.099 137.285  0.00  0.00    +0.000 HD
ENDBRANCH  47  48
ENDBRANCH  45  47
ENDBRANCH  42  43
BRANCH  42  53
ATOM     53  C   UNL     1      -6.117  -3.052 138.906  0.00  0.00    +0.000 C 
BRANCH  53  54
ATOM     54  C   UNL     1      -6.459  -1.783 138.135  0.00  0.00    +0.000 C 
BRANCH  54  55
ATOM     55  C   UNL     1      -5.339  -0.796 138.006  0.00  0.00    +0.000 C 
BRANCH  55  56
ATOM     56  N   UNL     1      -4.567  -1.149 136.813  0.00  0.00    +0.000 NA
ATOM     57  C   UNL     1      -3.628  -0.339 136.487  0.00  0.00    +0.000 C 
ATOM     58  N   UNL     1      -3.287   0.777 137.151  0.00  0.00    +0.000 N 
ATOM     59  N   UNL     1      -2.877  -0.576 135.400  0.00  0.00    +0.000 N 
ATOM     60  H   UNL     1      -3.813   1.034 137.972  0.00  0.00    +0.000 HD
ATOM     61  H   UNL     1      -2.534   1.380 136.876  0.00  0.00    +0.000 HD
ATOM     62  H   UNL     1      -3.105  -1.394 134.849  0.00  0.00    +0.000 HD
ATOM     63  H   UNL     1      -2.122   0.010 135.093  0.00  0.00    +0.000 HD
ENDBRANCH  55  56
ENDBRANCH  54  55
ENDBRANCH  53  54
ENDBRANCH  42  53
ENDBRANCH  40  42
ENDBRANCH  37  38
ENDBRANCH  18  31
BRANCH  22  64
ATOM     64  C   UNL     1      -6.766   0.463 130.259  0.00  0.00    +0.000 C 
BRANCH  64  65
ATOM     65  C   UNL     1      -8.187   0.624 130.416  0.00  0.00    +0.000 C 
ATOM     66  N   UNL     1      -8.873   0.429 131.561  0.00  0.00    +0.000 N 
ATOM     67  O   UNL     1      -8.633   0.923 129.386  0.00  0.00    +0.000 OA
ATOM     68  H   UNL     1      -8.437   0.230 132.423  0.00  0.00    +0.000 HD
ATOM     69  H   UNL     1      -9.853   0.624 131.706  0.00  0.00    +0.000 HD
ENDBRANCH  64  65
ENDBRANCH  22  64
BRANCH   9  70
ATOM     70  C   UNL     1      -3.611   3.853 129.719  0.00  0.00    +0.000 C 
BRANCH  70  71
ATOM     71  C   UNL     1      -2.587   4.752 130.438  0.00  0.00    +0.000 A 
ATOM     72  C   UNL     1      -2.468   4.400 131.717  0.00  0.00    +0.000 A 
ATOM     73  C   UNL     1      -1.977   5.234 132.697  0.00  0.00    +0.000 A 
ATOM     74  C   UNL     1      -1.588   6.553 132.570  0.00  0.00    +0.000 A 
ATOM     75  C   UNL     1      -1.760   7.009 131.293  0.00  0.00    +0.000 A 
ATOM     76  C   UNL     1      -2.209   6.110 130.230  0.00  0.00    +0.000 A 
BRANCH  74  77
ATOM     77  O   UNL     1      -1.439   7.519 133.540  0.00  0.00    +0.000 OA
ATOM     78  H   UNL     1      -0.633   7.965 133.884  0.00  0.00    +0.000 HD
ENDBRANCH  74  77
ENDBRANCH  70  71
ENDBRANCH   9  70
BRANCH   5  79
ATOM     79  C   UNL     1      -6.426   4.020 126.034  0.00  0.00    +0.000 C 
BRANCH  79  80
ATOM     80  C   UNL     1      -6.686   3.931 124.555  0.00  0.00    +0.000 A 
ATOM     81  C   UNL     1      -7.872   3.413 123.989  0.00  0.00    +0.000 A 
ATOM     82  C   UNL     1      -7.930   2.911 122.715  0.00  0.00    +0.000 A 
ATOM     83  C   UNL     1      -6.930   3.299 121.865  0.00  0.00    +0.000 A 
ATOM     84  C   UNL     1      -5.797   3.963 122.358  0.00  0.00    +0.000 A 
ATOM     85  C   UNL     1      -5.634   4.211 123.713  0.00  0.00    +0.000 A 
ENDBRANCH  79  80
ENDBRANCH   5  79
BRANCH   1  86
ATOM     86  C   UNL     1      -8.090  -0.983 126.859  0.00  0.00    +0.000 C 
BRANCH  86  88
ATOM     87  C   UNL     1      -9.598   0.646 125.831  0.00  0.00    +0.000 C 
ATOM     88  C   UNL     1      -8.518  -0.366 125.585  0.00  0.00    +0.000 C 
ENDBRANCH  86  88
ENDBRANCH   1  86
TORSDOF 19
ENDMDL
MODEL 6
REMARK VINA RESULT:      -8.1      4.673      9.470
REMARK  Name = CHEMBL2369845
REMARK  20 active torsions:
REMARK  status: ('A' for Active; 'I' for Inactive)
REMARK    1  A    between atoms: C_1  and  C_2
REMARK    2  A    between atoms: C_2  and  C_3
REMARK    3  A    between atoms: C_3  and  C_4
REMARK    4  A    between atoms: C_8  and  C_9
REMARK    5  A    between atoms: C_9  and  C_10
REMARK    6  A    between atoms: C_19  and  C_20
REMARK    7  A    between atoms: C_20  and  C_21
REMARK    8  A    between atoms: C_24  and  O_25
REMARK    9  A    between atoms: C_36  and  C_37
REMARK   10  A    between atoms: C_43  and  C_44
REMARK   11  A    between atoms: N_46  and  C_47
REMARK   12  A    between atoms: C_47  and  C_48
REMARK   13  A    between atoms: C_47  and  C_55
REMARK   14  A    between atoms: C_48  and  C_49
REMARK   15  A    between atoms: C_49  and  C_50
REMARK   16  A    between atoms: C_50  and  N_51
REMARK   17  A    between atoms: N_57  and  C_58
REMARK   18  A    between atoms: C_58  and  C_59
REMARK   19  A    between atoms: C_65  and  C_66
REMARK   20  A    between atoms: C_66  and  C_67
REMARK                            x       y       z     vdW  Elec       q    Type
REMARK                         _______ _______ _______ _____ _____    ______ ____
ROOT
ATOM      1  C   UNL     1      -6.649  -1.575 128.333  0.00  0.00    +0.000 C 
ATOM      2  N   UNL     1      -6.078  -0.601 127.350  0.00  0.00    +0.000 N 
ATOM      3  C   UNL     1      -6.078   0.782 127.377  0.00  0.00    +0.000 C 
ATOM      4  O   UNL     1      -5.097   1.445 127.021  0.00  0.00    +0.000 OA
ATOM      5  C   UNL     1      -7.413   1.415 127.651  0.00  0.00    +0.000 C 
ATOM      6  N   UNL     1      -7.655   1.615 129.044  0.00  0.00    +0.000 N 
ATOM      7  C   UNL     1      -7.405   2.808 129.684  0.00  0.00    +0.000 C 
ATOM      8  O   UNL     1      -8.363   3.185 130.382  0.00  0.00    +0.000 OA
ATOM      9  C   UNL     1      -5.906   3.669 129.505  0.00  0.00    +0.000 C 
ATOM     10  N   UNL     1      -6.318   5.048 129.775  0.00  0.00    +0.000 N 
ATOM     11  C   UNL     1      -6.609   5.702 130.941  0.00  0.00    +0.000 C 
ATOM     12  O   UNL     1      -6.955   6.884 130.800  0.00  0.00    +0.000 OA
ATOM     13  C   UNL     1      -6.553   5.139 132.403  0.00  0.00    +0.000 C 
ATOM     14  C   UNL     1      -6.125   3.736 132.606  0.00  0.00    +0.000 C 
ATOM     15  S   UNL     1      -6.399   2.726 134.244  0.00  0.00    +0.000 S 
ATOM     16  S   UNL     1      -4.970   1.171 134.355  0.00  0.00    +0.000 S 
ATOM     17  C   UNL     1      -5.500  -0.655 134.497  0.00  0.00    +0.000 C 
ATOM     18  C   UNL     1      -4.867  -2.042 134.090  0.00  0.00    +0.000 C 
ATOM     19  N   UNL     1      -5.792  -2.816 133.220  0.00  0.00    +0.000 N 
ATOM     20  C   UNL     1      -6.207  -2.551 131.964  0.00  0.00    +0.000 C 
ATOM     21  O   UNL     1      -7.167  -3.097 131.427  0.00  0.00    +0.000 OA
ATOM     22  C   UNL     1      -5.436  -1.544 131.221  0.00  0.00    +0.000 C 
ATOM     23  N   UNL     1      -5.037  -2.354 129.955  0.00  0.00    +0.000 N 
ATOM     24  C   UNL     1      -5.450  -2.369 128.665  0.00  0.00    +0.000 C 
ATOM     25  O   UNL     1      -4.570  -2.585 127.816  0.00  0.00    +0.000 OA
ATOM     26  H   UNL     1      -5.144  -0.861 127.008  0.00  0.00    +0.000 HD
ATOM     27  H   UNL     1      -8.490   1.148 129.403  0.00  0.00    +0.000 HD
ATOM     28  H   UNL     1      -6.461   5.612 128.943  0.00  0.00    +0.000 HD
ATOM     29  H   UNL     1      -6.219  -3.655 133.603  0.00  0.00    +0.000 HD
ATOM     30  H   UNL     1      -4.116  -2.161 129.605  0.00  0.00    +0.000 HD
ENDROOT
BRANCH  18  31
ATOM     31  C   UNL     1      -4.553  -2.949 135.356  0.00  0.00    +0.000 C 
ATOM     32  O   UNL     1      -4.796  -2.493 136.479  0.00  0.00    +0.000 OA
ATOM     33  N   UNL     1      -4.209  -4.288 135.156  0.00  0.00    +0.000 N 
ATOM     34  C   UNL     1      -3.242  -4.851 134.221  0.00  0.00    +0.000 C 
ATOM     35  C   UNL     1      -3.770  -6.238 134.017  0.00  0.00    +0.000 C 
ATOM     36  C   UNL     1      -4.088  -6.657 135.432  0.00  0.00    +0.000 C 
ATOM     37  C   UNL     1      -4.483  -5.351 136.163  0.00  0.00    +0.000 C 
BRANCH  37  38
ATOM     38  C   UNL     1      -3.538  -5.308 137.376  0.00  0.00    +0.000 C 
ATOM     39  O   UNL     1      -3.518  -6.244 138.176  0.00  0.00    +0.000 OA
ATOM     40  N   UNL     1      -2.811  -4.138 137.577  0.00  0.00    +0.000 N 
ATOM     41  H   UNL     1      -3.074  -3.272 137.118  0.00  0.00    +0.000 HD
BRANCH  40  42
ATOM     42  C   UNL     1      -1.732  -4.037 138.588  0.00  0.00    +0.000 C 
BRANCH  42  43
ATOM     43  C   UNL     1      -1.505  -2.546 139.016  0.00  0.00    +0.000 C 
ATOM     44  O   UNL     1      -0.825  -2.250 139.999  0.00  0.00    +0.000 OA
ATOM     45  N   UNL     1      -2.106  -1.584 138.223  0.00  0.00    +0.000 N 
ATOM     46  H   UNL     1      -2.634  -1.877 137.420  0.00  0.00    +0.000 HD
BRANCH  45  47
ATOM     47  C   UNL     1      -2.005  -0.149 138.509  0.00  0.00    +0.000 C 
BRANCH  47  48
ATOM     48  C   UNL     1      -3.303   0.669 138.375  0.00  0.00    +0.000 C 
ATOM     49  N   UNL     1      -4.442   0.015 137.995  0.00  0.00    +0.000 N 
ATOM     50  O   UNL     1      -3.351   1.877 138.598  0.00  0.00    +0.000 OA
ATOM     51  H   UNL     1      -4.520  -0.962 137.783  0.00  0.00    +0.000 HD
ATOM     52  H   UNL     1      -5.284   0.571 137.908  0.00  0.00    +0.000 HD
ENDBRANCH  47  48
ENDBRANCH  45  47
ENDBRANCH  42  43
BRANCH  42  53
ATOM     53  C   UNL     1      -0.411  -4.611 138.027  0.00  0.00    +0.000 C 
BRANCH  53  54
ATOM     54  C   UNL     1       0.376  -3.580 137.229  0.00  0.00    +0.000 C 
BRANCH  54  55
ATOM     55  C   UNL     1       0.138  -3.605 135.749  0.00  0.00    +0.000 C 
BRANCH  55  56
ATOM     56  N   UNL     1      -0.847  -2.568 135.437  0.00  0.00    +0.000 NA
ATOM     57  C   UNL     1      -0.522  -1.738 134.516  0.00  0.00    +0.000 C 
ATOM     58  N   UNL     1       0.621  -1.753 133.812  0.00  0.00    +0.000 N 
ATOM     59  N   UNL     1      -1.360  -0.747 134.172  0.00  0.00    +0.000 N 
ATOM     60  H   UNL     1       1.310  -2.459 134.019  0.00  0.00    +0.000 HD
ATOM     61  H   UNL     1       0.835  -1.096 133.085  0.00  0.00    +0.000 HD
ATOM     62  H   UNL     1      -2.228  -0.676 134.687  0.00  0.00    +0.000 HD
ATOM     63  H   UNL     1      -1.173  -0.069 133.455  0.00  0.00    +0.000 HD
ENDBRANCH  55  56
ENDBRANCH  54  55
ENDBRANCH  53  54
ENDBRANCH  42  53
ENDBRANCH  40  42
ENDBRANCH  37  38
ENDBRANCH  18  31
BRANCH  22  64
ATOM     64  C   UNL     1      -6.359  -0.366 131.266  0.00  0.00    +0.000 C 
BRANCH  64  65
ATOM     65  C   UNL     1      -7.715  -0.502 131.728  0.00  0.00    +0.000 C 
ATOM     66  N   UNL     1      -8.771  -0.839 130.959  0.00  0.00    +0.000 N 
ATOM     67  O   UNL     1      -7.738  -0.249 132.861  0.00  0.00    +0.000 OA
ATOM     68  H   UNL     1      -8.686  -1.100 130.012  0.00  0.00    +0.000 HD
ATOM     69  H   UNL     1      -9.708  -1.025 131.287  0.00  0.00    +0.000 HD
ENDBRANCH  64  65
ENDBRANCH  22  64
BRANCH   9  70
ATOM     70  C   UNL     1      -4.260   3.558 129.875  0.00  0.00    +0.000 C 
BRANCH  70  71
ATOM     71  C   UNL     1      -3.495   4.543 130.781  0.00  0.00    +0.000 A 
ATOM     72  C   UNL     1      -3.042   5.577 130.074  0.00  0.00    +0.000 A 
ATOM     73  C   UNL     1      -2.002   6.383 130.480  0.00  0.00    +0.000 A 
ATOM     74  C   UNL     1      -1.220   6.252 131.612  0.00  0.00    +0.000 A 
ATOM     75  C   UNL     1      -1.578   5.158 132.348  0.00  0.00    +0.000 A 
ATOM     76  C   UNL     1      -2.729   4.340 131.965  0.00  0.00    +0.000 A 
BRANCH  74  77
ATOM     77  O   UNL     1       0.021   6.783 131.884  0.00  0.00    +0.000 OA
ATOM     78  H   UNL     1       0.922   6.440 131.689  0.00  0.00    +0.000 HD
ENDBRANCH  74  77
ENDBRANCH  70  71
ENDBRANCH   9  70
BRANCH   5  79
ATOM     79  C   UNL     1      -7.623   2.660 126.808  0.00  0.00    +0.000 C 
BRANCH  79  80
ATOM     80  C   UNL     1      -8.393   2.381 125.545  0.00  0.00    +0.000 A 
ATOM     81  C   UNL     1      -9.280   1.293 125.383  0.00  0.00    +0.000 A 
ATOM     82  C   UNL     1      -9.606   0.778 124.156  0.00  0.00    +0.000 A 
ATOM     83  C   UNL     1      -9.385   1.592 123.078  0.00  0.00    +0.000 A 
ATOM     84  C   UNL     1      -8.640   2.772 123.221  0.00  0.00    +0.000 A 
ATOM     85  C   UNL     1      -8.075   3.130 124.436  0.00  0.00    +0.000 A 
ENDBRANCH  79  80
ENDBRANCH   5  79
BRANCH   1  86
ATOM     86  C   UNL     1      -7.860  -2.458 128.303  0.00  0.00    +0.000 C 
BRANCH  86  88
ATOM     87  C   UNL     1      -9.049  -2.324 126.170  0.00  0.00    +0.000 C 
ATOM     88  C   UNL     1      -7.967  -3.021 126.940  0.00  0.00    +0.000 C 
ENDBRANCH  86  88
ENDBRANCH   1  86
TORSDOF 19
ENDMDL
MODEL 7
REMARK VINA RESULT:      -7.6      3.029     13.674
REMARK  Name = CHEMBL2369845
REMARK  20 active torsions:
REMARK  status: ('A' for Active; 'I' for Inactive)
REMARK    1  A    between atoms: C_1  and  C_2
REMARK    2  A    between atoms: C_2  and  C_3
REMARK    3  A    between atoms: C_3  and  C_4
REMARK    4  A    between atoms: C_8  and  C_9
REMARK    5  A    between atoms: C_9  and  C_10
REMARK    6  A    between atoms: C_19  and  C_20
REMARK    7  A    between atoms: C_20  and  C_21
REMARK    8  A    between atoms: C_24  and  O_25
REMARK    9  A    between atoms: C_36  and  C_37
REMARK   10  A    between atoms: C_43  and  C_44
REMARK   11  A    between atoms: N_46  and  C_47
REMARK   12  A    between atoms: C_47  and  C_48
REMARK   13  A    between atoms: C_47  and  C_55
REMARK   14  A    between atoms: C_48  and  C_49
REMARK   15  A    between atoms: C_49  and  C_50
REMARK   16  A    between atoms: C_50  and  N_51
REMARK   17  A    between atoms: N_57  and  C_58
REMARK   18  A    between atoms: C_58  and  C_59
REMARK   19  A    between atoms: C_65  and  C_66
REMARK   20  A    between atoms: C_66  and  C_67
REMARK                            x       y       z     vdW  Elec       q    Type
REMARK                         _______ _______ _______ _____ _____    ______ ____
ROOT
ATOM      1  C   UNL     1      -6.053   6.431 137.829  0.00  0.00    +0.000 C 
ATOM      2  N   UNL     1      -5.877   7.845 138.285  0.00  0.00    +0.000 N 
ATOM      3  C   UNL     1      -4.788   8.688 138.151  0.00  0.00    +0.000 C 
ATOM      4  O   UNL     1      -4.917   9.889 137.887  0.00  0.00    +0.000 OA
ATOM      5  C   UNL     1      -3.470   8.097 138.564  0.00  0.00    +0.000 C 
ATOM      6  N   UNL     1      -2.800   7.433 137.493  0.00  0.00    +0.000 N 
ATOM      7  C   UNL     1      -1.834   8.040 136.722  0.00  0.00    +0.000 C 
ATOM      8  O   UNL     1      -0.813   7.340 136.600  0.00  0.00    +0.000 OA
ATOM      9  C   UNL     1      -2.050   9.614 136.020  0.00  0.00    +0.000 C 
ATOM     10  N   UNL     1      -0.668  10.080 135.894  0.00  0.00    +0.000 N 
ATOM     11  C   UNL     1       0.323   9.767 135.004  0.00  0.00    +0.000 C 
ATOM     12  O   UNL     1       1.403  10.340 135.208  0.00  0.00    +0.000 OA
ATOM     13  C   UNL     1       0.247   8.791 133.780  0.00  0.00    +0.000 C 
ATOM     14  C   UNL     1      -1.036   8.107 133.498  0.00  0.00    +0.000 C 
ATOM     15  S   UNL     1      -1.228   6.564 132.332  0.00  0.00    +0.000 S 
ATOM     16  S   UNL     1      -3.217   6.470 131.618  0.00  0.00    +0.000 S 
ATOM     17  C   UNL     1      -4.309   4.937 131.923  0.00  0.00    +0.000 C 
ATOM     18  C   UNL     1      -5.859   4.670 132.049  0.00  0.00    +0.000 C 
ATOM     19  N   UNL     1      -6.181   3.994 133.334  0.00  0.00    +0.000 N 
ATOM     20  C   UNL     1      -6.081   4.462 134.595  0.00  0.00    +0.000 C 
ATOM     21  O   UNL     1      -6.115   3.752 135.597  0.00  0.00    +0.000 OA
ATOM     22  C   UNL     1      -5.927   5.916 134.741  0.00  0.00    +0.000 C 
ATOM     23  N   UNL     1      -7.128   6.247 135.673  0.00  0.00    +0.000 N 
ATOM     24  C   UNL     1      -7.256   6.559 136.984  0.00  0.00    +0.000 C 
ATOM     25  O   UNL     1      -8.150   7.376 137.263  0.00  0.00    +0.000 OA
ATOM     26  H   UNL     1      -6.697   8.440 138.109  0.00  0.00    +0.000 HD
ATOM     27  H   UNL     1      -2.600   6.445 137.662  0.00  0.00    +0.000 HD
ATOM     28  H   UNL     1      -0.372  10.714 136.631  0.00  0.00    +0.000 HD
ATOM     29  H   UNL     1      -6.494   3.027 133.300  0.00  0.00    +0.000 HD
ATOM     30  H   UNL     1      -7.588   7.117 135.473  0.00  0.00    +0.000 HD
ENDROOT
BRANCH  18  31
ATOM     31  C   UNL     1      -6.402   3.737 130.884  0.00  0.00    +0.000 C 
ATOM     32  O   UNL     1      -5.706   3.596 129.873  0.00  0.00    +0.000 OA
ATOM     33  N   UNL     1      -7.536   2.956 131.121  0.00  0.00    +0.000 N 
ATOM     34  C   UNL     1      -8.808   3.351 131.714  0.00  0.00    +0.000 C 
ATOM     35  C   UNL     1      -9.313   2.055 132.272  0.00  0.00    +0.000 C 
ATOM     36  C   UNL     1      -9.044   1.104 131.131  0.00  0.00    +0.000 C 
ATOM     37  C   UNL     1      -7.784   1.662 130.426  0.00  0.00    +0.000 C 
BRANCH  37  38
ATOM     38  C   UNL     1      -8.224   1.825 128.961  0.00  0.00    +0.000 C 
ATOM     39  O   UNL     1      -9.038   2.698 128.655  0.00  0.00    +0.000 OA
ATOM     40  N   UNL     1      -7.754   0.889 128.045  0.00  0.00    +0.000 N 
ATOM     41  H   UNL     1      -7.365   0.003 128.353  0.00  0.00    +0.000 HD
BRANCH  40  42
ATOM     42  C   UNL     1      -7.945   1.042 126.583  0.00  0.00    +0.000 C 
BRANCH  42  43
ATOM     43  C   UNL     1      -8.940  -0.039 126.033  0.00  0.00    +0.000 C 
ATOM     44  O   UNL     1      -9.977   0.273 125.449  0.00  0.00    +0.000 OA
ATOM     45  N   UNL     1      -8.581  -1.361 126.237  0.00  0.00    +0.000 N 
ATOM     46  H   UNL     1      -7.714  -1.562 126.702  0.00  0.00    +0.000 HD
BRANCH  45  47
ATOM     47  C   UNL     1      -9.420  -2.482 125.801  0.00  0.00    +0.000 C 
BRANCH  47  48
ATOM     48  C   UNL     1      -9.067  -3.110 124.439  0.00  0.00    +0.000 C 
ATOM     49  N   UNL     1      -7.800  -3.587 124.256  0.00  0.00    +0.000 N 
ATOM     50  O   UNL     1      -9.880  -3.198 123.521  0.00  0.00    +0.000 OA
ATOM     51  H   UNL     1      -7.057  -3.564 124.929  0.00  0.00    +0.000 HD
ATOM     52  H   UNL     1      -7.586  -3.992 123.352  0.00  0.00    +0.000 HD
ENDBRANCH  47  48
ENDBRANCH  45  47
ENDBRANCH  42  43
BRANCH  42  53
ATOM     53  C   UNL     1      -6.594   0.910 125.845  0.00  0.00    +0.000 C 
BRANCH  53  54
ATOM     54  C   UNL     1      -5.772   2.191 125.907  0.00  0.00    +0.000 C 
BRANCH  54  55
ATOM     55  C   UNL     1      -4.422   2.051 126.542  0.00  0.00    +0.000 C 
BRANCH  55  56
ATOM     56  N   UNL     1      -4.002   3.376 127.000  0.00  0.00    +0.000 NA
ATOM     57  C   UNL     1      -2.738   3.572 127.083  0.00  0.00    +0.000 C 
ATOM     58  N   UNL     1      -1.783   2.682 126.770  0.00  0.00    +0.000 N 
ATOM     59  N   UNL     1      -2.263   4.754 127.506  0.00  0.00    +0.000 N 
ATOM     60  H   UNL     1      -2.057   1.764 126.457  0.00  0.00    +0.000 HD
ATOM     61  H   UNL     1      -0.801   2.875 126.831  0.00  0.00    +0.000 HD
ATOM     62  H   UNL     1      -2.940   5.455 127.776  0.00  0.00    +0.000 HD
ATOM     63  H   UNL     1      -1.287   4.977 127.586  0.00  0.00    +0.000 HD
ENDBRANCH  55  56
ENDBRANCH  54  55
ENDBRANCH  53  54
ENDBRANCH  42  53
ENDBRANCH  40  42
ENDBRANCH  37  38
ENDBRANCH  18  31
BRANCH  22  64
ATOM     64  C   UNL     1      -4.475   6.031 135.090  0.00  0.00    +0.000 C 
BRANCH  64  65
ATOM     65  C   UNL     1      -3.691   4.865 135.398  0.00  0.00    +0.000 C 
ATOM     66  N   UNL     1      -3.523   4.341 136.629  0.00  0.00    +0.000 N 
ATOM     67  O   UNL     1      -3.217   4.477 134.412  0.00  0.00    +0.000 OA
ATOM     68  H   UNL     1      -3.995   4.677 137.427  0.00  0.00    +0.000 HD
ATOM     69  H   UNL     1      -3.050   3.475 136.846  0.00  0.00    +0.000 HD
ENDBRANCH  64  65
ENDBRANCH  22  64
BRANCH   9  70
ATOM     70  C   UNL     1      -2.961  10.435 134.855  0.00  0.00    +0.000 C 
BRANCH  70  71
ATOM     71  C   UNL     1      -2.437  11.595 133.987  0.00  0.00    +0.000 A 
ATOM     72  C   UNL     1      -2.320  11.217 132.716  0.00  0.00    +0.000 A 
ATOM     73  C   UNL     1      -1.513  11.854 131.799  0.00  0.00    +0.000 A 
ATOM     74  C   UNL     1      -0.661  12.920 132.018  0.00  0.00    +0.000 A 
ATOM     75  C   UNL     1      -0.669  13.312 133.327  0.00  0.00    +0.000 A 
ATOM     76  C   UNL     1      -1.578  12.691 134.290  0.00  0.00    +0.000 A 
BRANCH  74  77
ATOM     77  O   UNL     1       0.406  13.355 131.264  0.00  0.00    +0.000 OA
ATOM     78  H   UNL     1       1.359  13.439 131.490  0.00  0.00    +0.000 HD
ENDBRANCH  74  77
ENDBRANCH  70  71
ENDBRANCH   9  70
BRANCH   5  79
ATOM     79  C   UNL     1      -2.607   9.114 139.289  0.00  0.00    +0.000 C 
BRANCH  79  80
ATOM     80  C   UNL     1      -2.987   9.271 140.736  0.00  0.00    +0.000 A 
ATOM     81  C   UNL     1      -3.278   8.191 141.600  0.00  0.00    +0.000 A 
ATOM     82  C   UNL     1      -4.046   8.327 142.726  0.00  0.00    +0.000 A 
ATOM     83  C   UNL     1      -4.181   9.597 143.218  0.00  0.00    +0.000 A 
ATOM     84  C   UNL     1      -3.760  10.700 142.462  0.00  0.00    +0.000 A 
ATOM     85  C   UNL     1      -3.235  10.547 141.187  0.00  0.00    +0.000 A 
ENDBRANCH  79  80
ENDBRANCH   5  79
BRANCH   1  86
ATOM     86  C   UNL     1      -6.072   5.121 138.558  0.00  0.00    +0.000 C 
BRANCH  86  88
ATOM     87  C   UNL     1      -4.358   4.754 140.266  0.00  0.00    +0.000 C 
ATOM     88  C   UNL     1      -5.684   5.387 139.960  0.00  0.00    +0.000 C 
ENDBRANCH  86  88
ENDBRANCH   1  86
TORSDOF 19
ENDMDL
MODEL 8
REMARK VINA RESULT:      -7.6      3.839     13.368
REMARK  Name = CHEMBL2369845
REMARK  20 active torsions:
REMARK  status: ('A' for Active; 'I' for Inactive)
REMARK    1  A    between atoms: C_1  and  C_2
REMARK    2  A    between atoms: C_2  and  C_3
REMARK    3  A    between atoms: C_3  and  C_4
REMARK    4  A    between atoms: C_8  and  C_9
REMARK    5  A    between atoms: C_9  and  C_10
REMARK    6  A    between atoms: C_19  and  C_20
REMARK    7  A    between atoms: C_20  and  C_21
REMARK    8  A    between atoms: C_24  and  O_25
REMARK    9  A    between atoms: C_36  and  C_37
REMARK   10  A    between atoms: C_43  and  C_44
REMARK   11  A    between atoms: N_46  and  C_47
REMARK   12  A    between atoms: C_47  and  C_48
REMARK   13  A    between atoms: C_47  and  C_55
REMARK   14  A    between atoms: C_48  and  C_49
REMARK   15  A    between atoms: C_49  and  C_50
REMARK   16  A    between atoms: C_50  and  N_51
REMARK   17  A    between atoms: N_57  and  C_58
REMARK   18  A    between atoms: C_58  and  C_59
REMARK   19  A    between atoms: C_65  and  C_66
REMARK   20  A    between atoms: C_66  and  C_67
REMARK                            x       y       z     vdW  Elec       q    Type
REMARK                         _______ _______ _______ _____ _____    ______ ____
ROOT
ATOM      1  C   UNL     1      -5.682   6.110 138.437  0.00  0.00    +0.000 C 
ATOM      2  N   UNL     1      -5.422   7.377 139.190  0.00  0.00    +0.000 N 
ATOM      3  C   UNL     1      -4.308   8.199 139.177  0.00  0.00    +0.000 C 
ATOM      4  O   UNL     1      -4.402   9.431 139.202  0.00  0.00    +0.000 OA
ATOM      5  C   UNL     1      -2.994   7.493 139.356  0.00  0.00    +0.000 C 
ATOM      6  N   UNL     1      -2.417   7.074 138.119  0.00  0.00    +0.000 N 
ATOM      7  C   UNL     1      -1.474   7.815 137.443  0.00  0.00    +0.000 C 
ATOM      8  O   UNL     1      -0.491   7.135 137.097  0.00  0.00    +0.000 OA
ATOM      9  C   UNL     1      -1.665   9.514 137.133  0.00  0.00    +0.000 C 
ATOM     10  N   UNL     1      -0.274   9.958 137.023  0.00  0.00    +0.000 N 
ATOM     11  C   UNL     1       0.648   9.832 136.021  0.00  0.00    +0.000 C 
ATOM     12  O   UNL     1       1.761  10.312 136.276  0.00  0.00    +0.000 OA
ATOM     13  C   UNL     1       0.459   9.164 134.615  0.00  0.00    +0.000 C 
ATOM     14  C   UNL     1      -0.866   8.598 134.272  0.00  0.00    +0.000 C 
ATOM     15  S   UNL     1      -1.192   7.368 132.802  0.00  0.00    +0.000 S 
ATOM     16  S   UNL     1      -3.222   7.494 132.221  0.00  0.00    +0.000 S 
ATOM     17  C   UNL     1      -4.356   5.962 132.243  0.00  0.00    +0.000 C 
ATOM     18  C   UNL     1      -5.906   5.716 132.409  0.00  0.00    +0.000 C 
ATOM     19  N   UNL     1      -6.179   4.772 133.526  0.00  0.00    +0.000 N 
ATOM     20  C   UNL     1      -5.985   4.936 134.851  0.00  0.00    +0.000 C 
ATOM     21  O   UNL     1      -5.989   4.017 135.665  0.00  0.00    +0.000 OA
ATOM     22  C   UNL     1      -5.762   6.314 135.313  0.00  0.00    +0.000 C 
ATOM     23  N   UNL     1      -6.890   6.455 136.374  0.00  0.00    +0.000 N 
ATOM     24  C   UNL     1      -6.928   6.461 137.727  0.00  0.00    +0.000 C 
ATOM     25  O   UNL     1      -7.768   7.216 138.243  0.00  0.00    +0.000 OA
ATOM     26  H   UNL     1      -6.225   8.018 139.209  0.00  0.00    +0.000 HD
ATOM     27  H   UNL     1      -2.248   6.069 138.046  0.00  0.00    +0.000 HD
ATOM     28  H   UNL     1       0.091  10.399 137.863  0.00  0.00    +0.000 HD
ATOM     29  H   UNL     1      -6.533   3.848 133.294  0.00  0.00    +0.000 HD
ATOM     30  H   UNL     1      -7.325   7.359 136.408  0.00  0.00    +0.000 HD
ENDROOT
BRANCH  18  31
ATOM     31  C   UNL     1      -6.555   5.089 131.102  0.00  0.00    +0.000 C 
ATOM     32  O   UNL     1      -5.965   4.159 130.542  0.00  0.00    +0.000 OA
ATOM     33  N   UNL     1      -7.853   5.467 130.749  0.00  0.00    +0.000 N 
ATOM     34  C   UNL     1      -8.425   6.806 130.673  0.00  0.00    +0.000 C 
ATOM     35  C   UNL     1      -9.884   6.540 130.887  0.00  0.00    +0.000 C 
ATOM     36  C   UNL     1     -10.114   5.349 129.988  0.00  0.00    +0.000 C 
ATOM     37  C   UNL     1      -8.772   4.577 129.985  0.00  0.00    +0.000 C 
BRANCH  37  38
ATOM     38  C   UNL     1      -8.418   4.462 128.492  0.00  0.00    +0.000 C 
ATOM     39  O   UNL     1      -8.814   5.315 127.697  0.00  0.00    +0.000 OA
ATOM     40  N   UNL     1      -7.743   3.316 128.083  0.00  0.00    +0.000 N 
ATOM     41  H   UNL     1      -7.715   2.486 128.669  0.00  0.00    +0.000 HD
BRANCH  40  42
ATOM     42  C   UNL     1      -7.177   3.170 126.721  0.00  0.00    +0.000 C 
BRANCH  42  43
ATOM     43  C   UNL     1      -7.763   1.903 126.006  0.00  0.00    +0.000 C 
ATOM     44  O   UNL     1      -7.143   0.841 125.961  0.00  0.00    +0.000 OA
ATOM     45  N   UNL     1      -9.017   2.046 125.437  0.00  0.00    +0.000 N 
ATOM     46  H   UNL     1      -9.489   2.929 125.519  0.00  0.00    +0.000 HD
BRANCH  45  47
ATOM     47  C   UNL     1      -9.684   0.958 124.715  0.00  0.00    +0.000 C 
BRANCH  47  48
ATOM     48  C   UNL     1      -9.893   1.168 123.202  0.00  0.00    +0.000 C 
ATOM     49  N   UNL     1      -9.235   2.201 122.597  0.00  0.00    +0.000 N 
ATOM     50  O   UNL     1     -10.621   0.443 122.528  0.00  0.00    +0.000 OA
ATOM     51  H   UNL     1      -8.623   2.857 123.046  0.00  0.00    +0.000 HD
ATOM     52  H   UNL     1      -9.389   2.326 121.604  0.00  0.00    +0.000 HD
ENDBRANCH  47  48
ENDBRANCH  45  47
ENDBRANCH  42  43
BRANCH  42  53
ATOM     53  C   UNL     1      -5.638   3.051 126.785  0.00  0.00    +0.000 C 
BRANCH  53  54
ATOM     54  C   UNL     1      -4.941   4.368 126.465  0.00  0.00    +0.000 C 
BRANCH  54  55
ATOM     55  C   UNL     1      -3.928   4.813 127.475  0.00  0.00    +0.000 C 
BRANCH  55  56
ATOM     56  N   UNL     1      -4.356   6.111 127.998  0.00  0.00    +0.000 NA
ATOM     57  C   UNL     1      -3.424   6.950 128.263  0.00  0.00    +0.000 C 
ATOM     58  N   UNL     1      -2.109   6.746 128.083  0.00  0.00    +0.000 N 
ATOM     59  N   UNL     1      -3.724   8.161 128.757  0.00  0.00    +0.000 N 
ATOM     60  H   UNL     1      -1.799   5.855 127.728  0.00  0.00    +0.000 HD
ATOM     61  H   UNL     1      -1.407   7.433 128.286  0.00  0.00    +0.000 HD
ATOM     62  H   UNL     1      -4.701   8.360 128.933  0.00  0.00    +0.000 HD
ATOM     63  H   UNL     1      -3.045   8.868 128.978  0.00  0.00    +0.000 HD
ENDBRANCH  55  56
ENDBRANCH  54  55
ENDBRANCH  53  54
ENDBRANCH  42  53
ENDBRANCH  40  42
ENDBRANCH  37  38
ENDBRANCH  18  31
BRANCH  22  64
ATOM     64  C   UNL     1      -4.289   6.306 135.580  0.00  0.00    +0.000 C 
BRANCH  64  65
ATOM     65  C   UNL     1      -3.540   5.078 135.579  0.00  0.00    +0.000 C 
ATOM     66  N   UNL     1      -3.365   4.270 136.646  0.00  0.00    +0.000 N 
ATOM     67  O   UNL     1      -3.100   4.922 134.516  0.00  0.00    +0.000 OA
ATOM     68  H   UNL     1      -3.809   4.420 137.513  0.00  0.00    +0.000 HD
ATOM     69  H   UNL     1      -2.919   3.364 136.637  0.00  0.00    +0.000 HD
ENDBRANCH  64  65
ENDBRANCH  22  64
BRANCH   9  70
ATOM     70  C   UNL     1      -2.608  10.604 136.249  0.00  0.00    +0.000 C 
BRANCH  70  71
ATOM     71  C   UNL     1      -2.076  11.887 135.582  0.00  0.00    +0.000 A 
ATOM     72  C   UNL     1      -1.956  12.866 136.476  0.00  0.00    +0.000 A 
ATOM     73  C   UNL     1      -1.914  14.203 136.145  0.00  0.00    +0.000 A 
ATOM     74  C   UNL     1      -2.043  14.769 134.891  0.00  0.00    +0.000 A 
ATOM     75  C   UNL     1      -2.252  13.822 133.929  0.00  0.00    +0.000 A 
ATOM     76  C   UNL     1      -2.222  12.397 134.260  0.00  0.00    +0.000 A 
BRANCH  74  77
ATOM     77  O   UNL     1      -2.366  16.063 134.545  0.00  0.00    +0.000 OA
ATOM     78  H   UNL     1      -2.875  16.749 135.031  0.00  0.00    +0.000 HD
ENDBRANCH  74  77
ENDBRANCH  70  71
ENDBRANCH   9  70
BRANCH   5  79
ATOM     79  C   UNL     1      -2.047   8.293 140.233  0.00  0.00    +0.000 C 
BRANCH  79  80
ATOM     80  C   UNL     1      -1.170   7.419 141.087  0.00  0.00    +0.000 A 
ATOM     81  C   UNL     1      -1.614   6.745 142.247  0.00  0.00    +0.000 A 
ATOM     82  C   UNL     1      -0.765   6.351 143.248  0.00  0.00    +0.000 A 
ATOM     83  C   UNL     1       0.560   6.254 142.916  0.00  0.00    +0.000 A 
ATOM     84  C   UNL     1       1.026   6.768 141.698  0.00  0.00    +0.000 A 
ATOM     85  C   UNL     1       0.178   7.422 140.816  0.00  0.00    +0.000 A 
ENDBRANCH  79  80
ENDBRANCH   5  79
BRANCH   1  86
ATOM     86  C   UNL     1      -5.713   4.669 138.850  0.00  0.00    +0.000 C 
BRANCH  86  88
ATOM     87  C   UNL     1      -7.021   4.576 140.916  0.00  0.00    +0.000 C 
ATOM     88  C   UNL     1      -5.642   4.628 140.327  0.00  0.00    +0.000 C 
ENDBRANCH  86  88
ENDBRANCH   1  86
TORSDOF 19
ENDMDL
MODEL 9
REMARK VINA RESULT:      -7.4      2.853      4.689
REMARK  Name = CHEMBL2369845
REMARK  20 active torsions:
REMARK  status: ('A' for Active; 'I' for Inactive)
REMARK    1  A    between atoms: C_1  and  C_2
REMARK    2  A    between atoms: C_2  and  C_3
REMARK    3  A    between atoms: C_3  and  C_4
REMARK    4  A    between atoms: C_8  and  C_9
REMARK    5  A    between atoms: C_9  and  C_10
REMARK    6  A    between atoms: C_19  and  C_20
REMARK    7  A    between atoms: C_20  and  C_21
REMARK    8  A    between atoms: C_24  and  O_25
REMARK    9  A    between atoms: C_36  and  C_37
REMARK   10  A    between atoms: C_43  and  C_44
REMARK   11  A    between atoms: N_46  and  C_47
REMARK   12  A    between atoms: C_47  and  C_48
REMARK   13  A    between atoms: C_47  and  C_55
REMARK   14  A    between atoms: C_48  and  C_49
REMARK   15  A    between atoms: C_49  and  C_50
REMARK   16  A    between atoms: C_50  and  N_51
REMARK   17  A    between atoms: N_57  and  C_58
REMARK   18  A    between atoms: C_58  and  C_59
REMARK   19  A    between atoms: C_65  and  C_66
REMARK   20  A    between atoms: C_66  and  C_67
REMARK                            x       y       z     vdW  Elec       q    Type
REMARK                         _______ _______ _______ _____ _____    ______ ____
ROOT
ATOM      1  C   UNL     1      -7.315   2.282 128.842  0.00  0.00    +0.000 C 
ATOM      2  N   UNL     1      -8.175   1.057 128.820  0.00  0.00    +0.000 N 
ATOM      3  C   UNL     1      -7.880  -0.235 129.217  0.00  0.00    +0.000 C 
ATOM      4  O   UNL     1      -8.700  -0.940 129.816  0.00  0.00    +0.000 OA
ATOM      5  C   UNL     1      -6.591  -0.789 128.678  0.00  0.00    +0.000 C 
ATOM      6  N   UNL     1      -5.474  -0.517 129.524  0.00  0.00    +0.000 N 
ATOM      7  C   UNL     1      -5.006  -1.414 130.459  0.00  0.00    +0.000 C 
ATOM      8  O   UNL     1      -3.774  -1.570 130.394  0.00  0.00    +0.000 OA
ATOM      9  C   UNL     1      -6.053  -2.225 131.583  0.00  0.00    +0.000 C 
ATOM     10  N   UNL     1      -5.299  -3.447 131.869  0.00  0.00    +0.000 N 
ATOM     11  C   UNL     1      -4.201  -3.680 132.651  0.00  0.00    +0.000 C 
ATOM     12  O   UNL     1      -3.799  -4.853 132.645  0.00  0.00    +0.000 OA
ATOM     13  C   UNL     1      -3.412  -2.655 133.536  0.00  0.00    +0.000 C 
ATOM     14  C   UNL     1      -3.879  -1.250 133.580  0.00  0.00    +0.000 C 
ATOM     15  S   UNL     1      -2.823   0.242 134.242  0.00  0.00    +0.000 S 
ATOM     16  S   UNL     1      -4.118   1.798 134.855  0.00  0.00    +0.000 S 
ATOM     17  C   UNL     1      -4.002   3.543 134.094  0.00  0.00    +0.000 C 
ATOM     18  C   UNL     1      -5.009   4.734 133.862  0.00  0.00    +0.000 C 
ATOM     19  N   UNL     1      -5.044   5.133 132.430  0.00  0.00    +0.000 N 
ATOM     20  C   UNL     1      -5.496   4.443 131.361  0.00  0.00    +0.000 C 
ATOM     21  O   UNL     1      -5.243   4.738 130.196  0.00  0.00    +0.000 OA
ATOM     22  C   UNL     1      -6.340   3.275 131.648  0.00  0.00    +0.000 C 
ATOM     23  N   UNL     1      -7.614   3.626 130.827  0.00  0.00    +0.000 N 
ATOM     24  C   UNL     1      -8.144   3.188 129.660  0.00  0.00    +0.000 C 
ATOM     25  O   UNL     1      -9.384   3.140 129.612  0.00  0.00    +0.000 OA
ATOM     26  H   UNL     1      -9.136   1.222 129.143  0.00  0.00    +0.000 HD
ATOM     27  H   UNL     1      -4.721   0.010 129.079  0.00  0.00    +0.000 HD
ATOM     28  H   UNL     1      -5.617  -4.264 131.355  0.00  0.00    +0.000 HD
ATOM     29  H   UNL     1      -4.650   6.035 132.175  0.00  0.00    +0.000 HD
ATOM     30  H   UNL     1      -8.480   3.362 131.261  0.00  0.00    +0.000 HD
ENDROOT
BRANCH  18  31
ATOM     31  C   UNL     1      -4.606   6.027 134.693  0.00  0.00    +0.000 C 
ATOM     32  O   UNL     1      -3.992   6.929 134.114  0.00  0.00    +0.000 OA
ATOM     33  N   UNL     1      -5.128   6.190 135.979  0.00  0.00    +0.000 N 
ATOM     34  C   UNL     1      -5.188   5.222 137.069  0.00  0.00    +0.000 C 
ATOM     35  C   UNL     1      -6.355   5.718 137.868  0.00  0.00    +0.000 C 
ATOM     36  C   UNL     1      -6.084   7.202 137.920  0.00  0.00    +0.000 C 
ATOM     37  C   UNL     1      -5.350   7.527 136.597  0.00  0.00    +0.000 C 
BRANCH  37  38
ATOM     38  C   UNL     1      -4.052   8.215 137.055  0.00  0.00    +0.000 C 
ATOM     39  O   UNL     1      -3.672   8.101 138.222  0.00  0.00    +0.000 OA
ATOM     40  N   UNL     1      -3.411   9.044 136.139  0.00  0.00    +0.000 N 
ATOM     41  H   UNL     1      -3.895   9.388 135.315  0.00  0.00    +0.000 HD
BRANCH  40  42
ATOM     42  C   UNL     1      -2.063   9.609 136.387  0.00  0.00    +0.000 C 
BRANCH  42  43
ATOM     43  C   UNL     1      -2.165  11.066 136.958  0.00  0.00    +0.000 C 
ATOM     44  O   UNL     1      -3.248  11.577 137.239  0.00  0.00    +0.000 OA
ATOM     45  N   UNL     1      -0.968  11.738 137.135  0.00  0.00    +0.000 N 
ATOM     46  H   UNL     1      -0.109  11.268 136.910  0.00  0.00    +0.000 HD
BRANCH  45  47
ATOM     47  C   UNL     1      -0.902  13.114 137.639  0.00  0.00    +0.000 C 
BRANCH  47  48
ATOM     48  C   UNL     1      -1.053  14.234 136.591  0.00  0.00    +0.000 C 
ATOM     49  N   UNL     1      -0.062  14.386 135.662  0.00  0.00    +0.000 N 
ATOM     50  O   UNL     1      -2.025  14.986 136.561  0.00  0.00    +0.000 OA
ATOM     51  H   UNL     1       0.775  13.837 135.594  0.00  0.00    +0.000 HD
ATOM     52  H   UNL     1      -0.177  15.131 134.985  0.00  0.00    +0.000 HD
ENDBRANCH  47  48
ENDBRANCH  45  47
ENDBRANCH  42  43
BRANCH  42  53
ATOM     53  C   UNL     1      -1.239   9.633 135.080  0.00  0.00    +0.000 C 
BRANCH  53  54
ATOM     54  C   UNL     1      -1.886  10.493 134.002  0.00  0.00    +0.000 C 
BRANCH  54  55
ATOM     55  C   UNL     1      -1.024  11.597 133.468  0.00  0.00    +0.000 C 
BRANCH  55  56
ATOM     56  N   UNL     1      -1.806  12.834 133.507  0.00  0.00    +0.000 NA
ATOM     57  C   UNL     1      -1.891  13.485 132.406  0.00  0.00    +0.000 C 
ATOM     58  N   UNL     1      -1.348  13.120 131.233  0.00  0.00    +0.000 N 
ATOM     59  N   UNL     1      -2.578  14.637 132.352  0.00  0.00    +0.000 N 
ATOM     60  H   UNL     1      -0.804  12.272 131.192  0.00  0.00    +0.000 HD
ATOM     61  H   UNL     1      -1.450  13.646 130.385  0.00  0.00    +0.000 HD
ATOM     62  H   UNL     1      -2.990  14.971 133.214  0.00  0.00    +0.000 HD
ATOM     63  H   UNL     1      -2.692  15.191 131.522  0.00  0.00    +0.000 HD
ENDBRANCH  55  56
ENDBRANCH  54  55
ENDBRANCH  53  54
ENDBRANCH  42  53
ENDBRANCH  40  42
ENDBRANCH  37  38
ENDBRANCH  18  31
BRANCH  22  64
ATOM     64  C   UNL     1      -5.394   2.146 131.379  0.00  0.00    +0.000 C 
BRANCH  64  65
ATOM     65  C   UNL     1      -4.120   2.379 130.753  0.00  0.00    +0.000 C 
ATOM     66  N   UNL     1      -3.893   2.382 129.423  0.00  0.00    +0.000 N 
ATOM     67  O   UNL     1      -3.330   2.536 131.588  0.00  0.00    +0.000 OA
ATOM     68  H   UNL     1      -4.613   2.299 128.754  0.00  0.00    +0.000 HD
ATOM     69  H   UNL     1      -3.026   2.631 128.969  0.00  0.00    +0.000 HD
ENDBRANCH  64  65
ENDBRANCH  22  64
BRANCH   9  70
ATOM     70  C   UNL     1      -7.051  -1.931 132.917  0.00  0.00    +0.000 C 
BRANCH  70  71
ATOM     71  C   UNL     1      -7.116  -2.816 134.177  0.00  0.00    +0.000 A 
ATOM     72  C   UNL     1      -8.129  -3.676 134.096  0.00  0.00    +0.000 A 
ATOM     73  C   UNL     1      -8.699  -4.291 135.189  0.00  0.00    +0.000 A 
ATOM     74  C   UNL     1      -8.392  -4.102 136.523  0.00  0.00    +0.000 A 
ATOM     75  C   UNL     1      -7.410  -3.165 136.686  0.00  0.00    +0.000 A 
ATOM     76  C   UNL     1      -6.747  -2.564 135.530  0.00  0.00    +0.000 A 
BRANCH  74  77
ATOM     77  O   UNL     1      -9.139  -4.395 137.642  0.00  0.00    +0.000 OA
ATOM     78  H   UNL     1      -8.861  -4.649 138.550  0.00  0.00    +0.000 HD
ENDBRANCH  74  77
ENDBRANCH  70  71
ENDBRANCH   9  70
BRANCH   5  79
ATOM     79  C   UNL     1      -6.730  -2.253 128.299  0.00  0.00    +0.000 C 
BRANCH  79  80
ATOM     80  C   UNL     1      -7.070  -2.445 126.846  0.00  0.00    +0.000 A 
ATOM     81  C   UNL     1      -8.261  -3.051 126.386  0.00  0.00    +0.000 A 
ATOM     82  C   UNL     1      -8.368  -3.633 125.150  0.00  0.00    +0.000 A 
ATOM     83  C   UNL     1      -7.438  -3.256 124.219  0.00  0.00    +0.000 A 
ATOM     84  C   UNL     1      -6.312  -2.513 124.602  0.00  0.00    +0.000 A 
ATOM     85  C   UNL     1      -6.083  -2.174 125.927  0.00  0.00    +0.000 A 
ENDBRANCH  79  80
ENDBRANCH   5  79
BRANCH   1  86
ATOM     86  C   UNL     1      -6.619   3.056 127.762  0.00  0.00    +0.000 C 
BRANCH  86  88
ATOM     87  C   UNL     1      -5.370   1.630 126.215  0.00  0.00    +0.000 C 
ATOM     88  C   UNL     1      -6.698   2.257 126.521  0.00  0.00    +0.000 C 
ENDBRANCH  86  88
ENDBRANCH   1  86
TORSDOF 19
ENDMDL
