MODEL 1
REMARK VINA RESULT:      -8.2      0.000      0.000
REMARK  Name = CHEMBL563613
REMARK  7 active torsions:
REMARK  status: ('A' for Active; 'I' for Inactive)
REMARK    1  A    between atoms: C_1  and  O_2
REMARK    2  A    between atoms: O_2  and  C_3
REMARK    3  A    between atoms: C_6  and  N_7
REMARK    4  A    between atoms: C_8  and  C_9
REMARK    5  A    between atoms: C_12  and  C_13
REMARK    6  A    between atoms: C_16  and  O_17
REMARK    7  A    between atoms: O_17  and  C_18
REMARK                            x       y       z     vdW  Elec       q    Type
REMARK                         _______ _______ _______ _____ _____    ______ ____
ROOT
ATOM      1  C   UNL     1      -6.658   4.176 125.486  0.00  0.00    +0.000 A 
ATOM      2  C   UNL     1      -7.836   4.776 125.930  0.00  0.00    +0.000 A 
ATOM      3  N   UNL     1      -8.255   4.741 127.224  0.00  0.00    +0.000 NA
ATOM      4  C   UNL     1      -7.469   4.040 128.070  0.00  0.00    +0.000 A 
ATOM      5  C   UNL     1      -6.305   3.415 127.629  0.00  0.00    +0.000 A 
ATOM      6  N   UNL     1      -5.870   3.477 126.340  0.00  0.00    +0.000 NA
ENDROOT
BRANCH   1  12
ATOM      7  N   UNL     1      -6.530   3.364 123.069  0.00  0.00    +0.000 N 
ATOM      8  C   UNL     1      -5.765   3.780 121.981  0.00  0.00    +0.000 A 
ATOM      9  C   UNL     1      -5.808   3.287 120.576  0.00  0.00    +0.000 C 
ATOM     10  N   UNL     1      -5.031   4.814 122.345  0.00  0.00    +0.000 NA
ATOM     11  N   UNL     1      -5.315   5.114 123.644  0.00  0.00    +0.000 NA
ATOM     12  C   UNL     1      -6.213   4.254 124.097  0.00  0.00    +0.000 A 
BRANCH   7  16
ATOM     13  C   UNL     1      -9.054   0.059 123.406  0.00  0.00    +0.000 A 
ATOM     14  C   UNL     1      -9.622   1.289 123.112  0.00  0.00    +0.000 A 
ATOM     15  C   UNL     1      -8.790   2.406 122.982  0.00  0.00    +0.000 A 
ATOM     16  C   UNL     1      -7.413   2.256 123.156  0.00  0.00    +0.000 A 
ATOM     17  C   UNL     1      -6.939   1.002 123.512  0.00  0.00    +0.000 A 
ATOM     18  N   UNL     1      -7.733  -0.092 123.644  0.00  0.00    +0.000 NA
BRANCH  13  20
ATOM     19  C   UNL     1      -9.083  -2.277 123.255  0.00  0.00    +0.000 C 
ATOM     20  O   UNL     1      -9.805  -1.081 123.546  0.00  0.00    +0.000 OA
ENDBRANCH  13  20
ENDBRANCH   7  16
ENDBRANCH   1  12
BRANCH   4  21
ATOM     21  O   UNL     1      -7.766   3.940 129.423  0.00  0.00    +0.000 OA
BRANCH  21  22
ATOM     22  C   UNL     1      -8.821   4.666 129.934  0.00  0.00    +0.000 A 
ATOM     23  C   UNL     1     -10.134   4.185 129.879  0.00  0.00    +0.000 A 
ATOM     24  C   UNL     1     -11.166   4.886 130.513  0.00  0.00    +0.000 A 
ATOM     25  C   UNL     1     -10.884   6.054 131.221  0.00  0.00    +0.000 A 
ATOM     26 CL   UNL     1     -12.154   6.895 132.022  0.00  0.00    +0.000 Cl
ATOM     27  C   UNL     1      -9.579   6.534 131.297  0.00  0.00    +0.000 A 
ATOM     28  C   UNL     1      -8.549   5.837 130.657  0.00  0.00    +0.000 A 
ATOM     29 CL   UNL     1      -6.940   6.451 130.793  0.00  0.00    +0.000 Cl
ENDBRANCH  21  22
ENDBRANCH   4  21
TORSDOF 5
ENDMDL
MODEL 2
REMARK VINA RESULT:      -8.0      5.564      7.411
REMARK  Name = CHEMBL563613
REMARK  7 active torsions:
REMARK  status: ('A' for Active; 'I' for Inactive)
REMARK    1  A    between atoms: C_1  and  O_2
REMARK    2  A    between atoms: O_2  and  C_3
REMARK    3  A    between atoms: C_6  and  N_7
REMARK    4  A    between atoms: C_8  and  C_9
REMARK    5  A    between atoms: C_12  and  C_13
REMARK    6  A    between atoms: C_16  and  O_17
REMARK    7  A    between atoms: O_17  and  C_18
REMARK                            x       y       z     vdW  Elec       q    Type
REMARK                         _______ _______ _______ _____ _____    ______ ____
ROOT
ATOM      1  C   UNL     1      -6.955   5.632 131.572  0.00  0.00    +0.000 A 
ATOM      2  C   UNL     1      -7.429   6.812 130.999  0.00  0.00    +0.000 A 
ATOM      3  N   UNL     1      -8.587   6.890 130.290  0.00  0.00    +0.000 NA
ATOM      4  C   UNL     1      -9.251   5.724 130.132  0.00  0.00    +0.000 A 
ATOM      5  C   UNL     1      -8.770   4.536 130.678  0.00  0.00    +0.000 A 
ATOM      6  N   UNL     1      -7.626   4.465 131.415  0.00  0.00    +0.000 NA
ENDROOT
BRANCH   1  12
ATOM      7  N   UNL     1      -4.467   5.167 131.909  0.00  0.00    +0.000 N 
ATOM      8  C   UNL     1      -3.661   5.163 133.045  0.00  0.00    +0.000 A 
ATOM      9  C   UNL     1      -2.190   4.946 133.135  0.00  0.00    +0.000 C 
ATOM     10  N   UNL     1      -4.389   5.516 134.086  0.00  0.00    +0.000 NA
ATOM     11  N   UNL     1      -5.656   5.784 133.662  0.00  0.00    +0.000 NA
ATOM     12  C   UNL     1      -5.723   5.581 132.356  0.00  0.00    +0.000 A 
BRANCH   7  16
ATOM     13  C   UNL     1      -3.391   4.167 128.003  0.00  0.00    +0.000 A 
ATOM     14  C   UNL     1      -3.767   3.144 128.861  0.00  0.00    +0.000 A 
ATOM     15  C   UNL     1      -4.144   3.462 130.170  0.00  0.00    +0.000 A 
ATOM     16  C   UNL     1      -4.127   4.796 130.581  0.00  0.00    +0.000 A 
ATOM     17  C   UNL     1      -3.675   5.746 129.676  0.00  0.00    +0.000 A 
ATOM     18  N   UNL     1      -3.304   5.454 128.403  0.00  0.00    +0.000 NA
BRANCH  13  20
ATOM     19  C   UNL     1      -1.871   3.084 126.590  0.00  0.00    +0.000 C 
ATOM     20  O   UNL     1      -3.012   3.933 126.705  0.00  0.00    +0.000 OA
ENDBRANCH  13  20
ENDBRANCH   7  16
ENDBRANCH   1  12
BRANCH   4  21
ATOM     21  O   UNL     1     -10.459   5.662 129.448  0.00  0.00    +0.000 OA
BRANCH  21  22
ATOM     22  C   UNL     1     -11.302   6.751 129.477  0.00  0.00    +0.000 A 
ATOM     23  C   UNL     1     -11.980   7.122 130.643  0.00  0.00    +0.000 A 
ATOM     24  C   UNL     1     -12.732   8.302 130.674  0.00  0.00    +0.000 A 
ATOM     25  C   UNL     1     -12.788   9.123 129.549  0.00  0.00    +0.000 A 
ATOM     26 CL   UNL     1     -13.692  10.587 129.604  0.00  0.00    +0.000 Cl
ATOM     27  C   UNL     1     -12.105   8.774 128.387  0.00  0.00    +0.000 A 
ATOM     28  C   UNL     1     -11.360   7.591 128.354  0.00  0.00    +0.000 A 
ATOM     29 CL   UNL     1     -10.507   7.204 126.902  0.00  0.00    +0.000 Cl
ENDBRANCH  21  22
ENDBRANCH   4  21
TORSDOF 5
ENDMDL
MODEL 3
REMARK VINA RESULT:      -7.8      3.185      5.350
REMARK  Name = CHEMBL563613
REMARK  7 active torsions:
REMARK  status: ('A' for Active; 'I' for Inactive)
REMARK    1  A    between atoms: C_1  and  O_2
REMARK    2  A    between atoms: O_2  and  C_3
REMARK    3  A    between atoms: C_6  and  N_7
REMARK    4  A    between atoms: C_8  and  C_9
REMARK    5  A    between atoms: C_12  and  C_13
REMARK    6  A    between atoms: C_16  and  O_17
REMARK    7  A    between atoms: O_17  and  C_18
REMARK                            x       y       z     vdW  Elec       q    Type
REMARK                         _______ _______ _______ _____ _____    ______ ____
ROOT
ATOM      1  C   UNL     1      -8.409   4.745 129.823  0.00  0.00    +0.000 A 
ATOM      2  C   UNL     1      -9.398   3.876 130.285  0.00  0.00    +0.000 A 
ATOM      3  N   UNL     1     -10.730   4.128 130.174  0.00  0.00    +0.000 NA
ATOM      4  C   UNL     1     -11.052   5.315 129.615  0.00  0.00    +0.000 A 
ATOM      5  C   UNL     1     -10.070   6.201 129.177  0.00  0.00    +0.000 A 
ATOM      6  N   UNL     1      -8.737   5.934 129.260  0.00  0.00    +0.000 NA
ENDROOT
BRANCH   1  12
ATOM      7  N   UNL     1      -6.190   3.835 128.948  0.00  0.00    +0.000 N 
ATOM      8  C   UNL     1      -4.955   3.630 129.561  0.00  0.00    +0.000 A 
ATOM      9  C   UNL     1      -3.685   3.154 128.946  0.00  0.00    +0.000 C 
ATOM     10  N   UNL     1      -5.023   4.049 130.810  0.00  0.00    +0.000 NA
ATOM     11  N   UNL     1      -6.268   4.557 131.032  0.00  0.00    +0.000 NA
ATOM     12  C   UNL     1      -6.985   4.437 129.925  0.00  0.00    +0.000 A 
BRANCH   7  16
ATOM     13  C   UNL     1      -7.469   2.729 125.133  0.00  0.00    +0.000 A 
ATOM     14  C   UNL     1      -6.850   3.961 125.285  0.00  0.00    +0.000 A 
ATOM     15  C   UNL     1      -6.403   4.343 126.554  0.00  0.00    +0.000 A 
ATOM     16  C   UNL     1      -6.595   3.480 127.635  0.00  0.00    +0.000 A 
ATOM     17  C   UNL     1      -7.281   2.296 127.403  0.00  0.00    +0.000 A 
ATOM     18  N   UNL     1      -7.724   1.912 126.178  0.00  0.00    +0.000 NA
BRANCH  13  20
ATOM     19  C   UNL     1      -9.341   2.059 123.896  0.00  0.00    +0.000 C 
ATOM     20  O   UNL     1      -7.932   2.285 123.921  0.00  0.00    +0.000 OA
ENDBRANCH  13  20
ENDBRANCH   7  16
ENDBRANCH   1  12
BRANCH   4  21
ATOM     21  O   UNL     1     -12.375   5.692 129.422  0.00  0.00    +0.000 OA
BRANCH  21  22
ATOM     22  C   UNL     1     -12.730   7.011 129.605  0.00  0.00    +0.000 A 
ATOM     23  C   UNL     1     -12.747   7.594 130.877  0.00  0.00    +0.000 A 
ATOM     24  C   UNL     1     -12.992   8.964 131.019  0.00  0.00    +0.000 A 
ATOM     25  C   UNL     1     -13.197   9.757 129.890  0.00  0.00    +0.000 A 
ATOM     26 CL   UNL     1     -13.471  11.447 130.071  0.00  0.00    +0.000 Cl
ATOM     27  C   UNL     1     -13.167   9.193 128.617  0.00  0.00    +0.000 A 
ATOM     28  C   UNL     1     -12.929   7.822 128.477  0.00  0.00    +0.000 A 
ATOM     29 CL   UNL     1     -12.876   7.162 126.881  0.00  0.00    +0.000 Cl
ENDBRANCH  21  22
ENDBRANCH   4  21
TORSDOF 5
ENDMDL
MODEL 4
REMARK VINA RESULT:      -7.7      1.394      2.282
REMARK  Name = CHEMBL563613
REMARK  7 active torsions:
REMARK  status: ('A' for Active; 'I' for Inactive)
REMARK    1  A    between atoms: C_1  and  O_2
REMARK    2  A    between atoms: O_2  and  C_3
REMARK    3  A    between atoms: C_6  and  N_7
REMARK    4  A    between atoms: C_8  and  C_9
REMARK    5  A    between atoms: C_12  and  C_13
REMARK    6  A    between atoms: C_16  and  O_17
REMARK    7  A    between atoms: O_17  and  C_18
REMARK                            x       y       z     vdW  Elec       q    Type
REMARK                         _______ _______ _______ _____ _____    ______ ____
ROOT
ATOM      1  C   UNL     1      -6.946   4.180 125.532  0.00  0.00    +0.000 A 
ATOM      2  C   UNL     1      -8.061   4.921 125.922  0.00  0.00    +0.000 A 
ATOM      3  N   UNL     1      -8.567   4.910 127.184  0.00  0.00    +0.000 NA
ATOM      4  C   UNL     1      -7.940   4.089 128.054  0.00  0.00    +0.000 A 
ATOM      5  C   UNL     1      -6.842   3.324 127.666  0.00  0.00    +0.000 A 
ATOM      6  N   UNL     1      -6.317   3.359 126.410  0.00  0.00    +0.000 NA
ENDROOT
BRANCH   1  12
ATOM      7  N   UNL     1      -6.617   3.305 123.156  0.00  0.00    +0.000 N 
ATOM      8  C   UNL     1      -5.785   3.713 122.115  0.00  0.00    +0.000 A 
ATOM      9  C   UNL     1      -5.711   3.180 120.727  0.00  0.00    +0.000 C 
ATOM     10  N   UNL     1      -5.110   4.778 122.501  0.00  0.00    +0.000 NA
ATOM     11  N   UNL     1      -5.497   5.106 123.766  0.00  0.00    +0.000 NA
ATOM     12  C   UNL     1      -6.402   4.233 124.178  0.00  0.00    +0.000 A 
BRANCH   7  16
ATOM     13  C   UNL     1      -9.067  -0.063 123.409  0.00  0.00    +0.000 A 
ATOM     14  C   UNL     1      -9.641   1.136 123.014  0.00  0.00    +0.000 A 
ATOM     15  C   UNL     1      -8.832   2.273 122.910  0.00  0.00    +0.000 A 
ATOM     16  C   UNL     1      -7.473   2.174 123.213  0.00  0.00    +0.000 A 
ATOM     17  C   UNL     1      -6.997   0.950 123.662  0.00  0.00    +0.000 A 
ATOM     18  N   UNL     1      -7.769  -0.162 123.769  0.00  0.00    +0.000 NA
BRANCH  13  20
ATOM     19  C   UNL     1      -9.061  -2.393 123.183  0.00  0.00    +0.000 C 
ATOM     20  O   UNL     1      -9.795  -1.219 123.530  0.00  0.00    +0.000 OA
ENDBRANCH  13  20
ENDBRANCH   7  16
ENDBRANCH   1  12
BRANCH   4  21
ATOM     21  O   UNL     1      -8.338   3.995 129.381  0.00  0.00    +0.000 OA
BRANCH  21  22
ATOM     22  C   UNL     1      -7.520   4.507 130.365  0.00  0.00    +0.000 A 
ATOM     23  C   UNL     1      -6.402   3.804 130.826  0.00  0.00    +0.000 A 
ATOM     24  C   UNL     1      -5.522   4.401 131.736  0.00  0.00    +0.000 A 
ATOM     25  C   UNL     1      -5.745   5.709 132.166  0.00  0.00    +0.000 A 
ATOM     26 CL   UNL     1      -4.643   6.446 133.264  0.00  0.00    +0.000 Cl
ATOM     27  C   UNL     1      -6.845   6.426 131.702  0.00  0.00    +0.000 A 
ATOM     28  C   UNL     1      -7.728   5.826 130.799  0.00  0.00    +0.000 A 
ATOM     29 CL   UNL     1      -9.068   6.754 130.228  0.00  0.00    +0.000 Cl
ENDBRANCH  21  22
ENDBRANCH   4  21
TORSDOF 5
ENDMDL
MODEL 5
REMARK VINA RESULT:      -7.6      4.214      5.247
REMARK  Name = CHEMBL563613
REMARK  7 active torsions:
REMARK  status: ('A' for Active; 'I' for Inactive)
REMARK    1  A    between atoms: C_1  and  O_2
REMARK    2  A    between atoms: O_2  and  C_3
REMARK    3  A    between atoms: C_6  and  N_7
REMARK    4  A    between atoms: C_8  and  C_9
REMARK    5  A    between atoms: C_12  and  C_13
REMARK    6  A    between atoms: C_16  and  O_17
REMARK    7  A    between atoms: O_17  and  C_18
REMARK                            x       y       z     vdW  Elec       q    Type
REMARK                         _______ _______ _______ _____ _____    ______ ____
ROOT
ATOM      1  C   UNL     1      -7.032   2.213 126.658  0.00  0.00    +0.000 A 
ATOM      2  C   UNL     1      -6.048   1.459 127.296  0.00  0.00    +0.000 A 
ATOM      3  N   UNL     1      -6.255   0.784 128.459  0.00  0.00    +0.000 NA
ATOM      4  C   UNL     1      -7.486   0.920 128.998  0.00  0.00    +0.000 A 
ATOM      5  C   UNL     1      -8.467   1.693 128.381  0.00  0.00    +0.000 A 
ATOM      6  N   UNL     1      -8.268   2.343 127.201  0.00  0.00    +0.000 NA
ENDROOT
BRANCH   1  12
ATOM      7  N   UNL     1      -7.093   2.428 124.115  0.00  0.00    +0.000 N 
ATOM      8  C   UNL     1      -6.558   3.374 123.242  0.00  0.00    +0.000 A 
ATOM      9  C   UNL     1      -6.705   3.455 121.763  0.00  0.00    +0.000 C 
ATOM     10  N   UNL     1      -5.965   4.318 123.947  0.00  0.00    +0.000 NA
ATOM     11  N   UNL     1      -6.120   4.036 125.272  0.00  0.00    +0.000 NA
ATOM     12  C   UNL     1      -6.795   2.904 125.393  0.00  0.00    +0.000 A 
BRANCH   7  16
ATOM     13  C   UNL     1      -9.143  -1.076 123.150  0.00  0.00    +0.000 A 
ATOM     14  C   UNL     1      -7.757  -1.109 123.157  0.00  0.00    +0.000 A 
ATOM     15  C   UNL     1      -7.052   0.052 123.491  0.00  0.00    +0.000 A 
ATOM     16  C   UNL     1      -7.760   1.214 123.802  0.00  0.00    +0.000 A 
ATOM     17  C   UNL     1      -9.144   1.174 123.707  0.00  0.00    +0.000 A 
ATOM     18  N   UNL     1      -9.842   0.056 123.383  0.00  0.00    +0.000 NA
BRANCH  13  20
ATOM     19  C   UNL     1      -9.506  -3.358 123.530  0.00  0.00    +0.000 C 
ATOM     20  O   UNL     1      -9.902  -2.175 122.836  0.00  0.00    +0.000 OA
ENDBRANCH  13  20
ENDBRANCH   7  16
ENDBRANCH   1  12
BRANCH   4  21
ATOM     21  O   UNL     1      -7.841   0.268 130.172  0.00  0.00    +0.000 OA
BRANCH  21  22
ATOM     22  C   UNL     1      -7.417  -1.028 130.374  0.00  0.00    +0.000 A 
ATOM     23  C   UNL     1      -7.925  -2.090 129.619  0.00  0.00    +0.000 A 
ATOM     24  C   UNL     1      -7.388  -3.374 129.762  0.00  0.00    +0.000 A 
ATOM     25  C   UNL     1      -6.329  -3.594 130.641  0.00  0.00    +0.000 A 
ATOM     26 CL   UNL     1      -5.655  -5.170 130.791  0.00  0.00    +0.000 Cl
ATOM     27  C   UNL     1      -5.803  -2.542 131.388  0.00  0.00    +0.000 A 
ATOM     28  C   UNL     1      -6.345  -1.260 131.250  0.00  0.00    +0.000 A 
ATOM     29 CL   UNL     1      -5.651   0.024 132.174  0.00  0.00    +0.000 Cl
ENDBRANCH  21  22
ENDBRANCH   4  21
TORSDOF 5
ENDMDL
MODEL 6
REMARK VINA RESULT:      -7.6      4.081      8.770
REMARK  Name = CHEMBL563613
REMARK  7 active torsions:
REMARK  status: ('A' for Active; 'I' for Inactive)
REMARK    1  A    between atoms: C_1  and  O_2
REMARK    2  A    between atoms: O_2  and  C_3
REMARK    3  A    between atoms: C_6  and  N_7
REMARK    4  A    between atoms: C_8  and  C_9
REMARK    5  A    between atoms: C_12  and  C_13
REMARK    6  A    between atoms: C_16  and  O_17
REMARK    7  A    between atoms: O_17  and  C_18
REMARK                            x       y       z     vdW  Elec       q    Type
REMARK                         _______ _______ _______ _____ _____    ______ ____
ROOT
ATOM      1  C   UNL     1      -7.939   3.342 129.141  0.00  0.00    +0.000 A 
ATOM      2  C   UNL     1      -8.682   2.231 128.743  0.00  0.00    +0.000 A 
ATOM      3  N   UNL     1      -8.700   1.757 127.468  0.00  0.00    +0.000 NA
ATOM      4  C   UNL     1      -7.973   2.464 126.575  0.00  0.00    +0.000 A 
ATOM      5  C   UNL     1      -7.250   3.591 126.959  0.00  0.00    +0.000 A 
ATOM      6  N   UNL     1      -7.208   4.046 128.242  0.00  0.00    +0.000 NA
ENDROOT
BRANCH   1  12
ATOM      7  N   UNL     1      -8.664   4.857 131.064  0.00  0.00    +0.000 N 
ATOM      8  C   UNL     1      -8.187   5.013 132.364  0.00  0.00    +0.000 A 
ATOM      9  C   UNL     1      -8.724   5.881 133.448  0.00  0.00    +0.000 C 
ATOM     10  N   UNL     1      -7.209   4.151 132.566  0.00  0.00    +0.000 NA
ATOM     11  N   UNL     1      -7.045   3.405 131.437  0.00  0.00    +0.000 NA
ATOM     12  C   UNL     1      -7.911   3.813 130.523  0.00  0.00    +0.000 A 
BRANCH   7  16
ATOM     13  C   UNL     1     -11.689   7.002 129.150  0.00  0.00    +0.000 A 
ATOM     14  C   UNL     1     -10.484   7.643 129.392  0.00  0.00    +0.000 A 
ATOM     15  C   UNL     1      -9.453   6.936 130.020  0.00  0.00    +0.000 A 
ATOM     16  C   UNL     1      -9.665   5.607 130.393  0.00  0.00    +0.000 A 
ATOM     17  C   UNL     1     -10.924   5.066 130.171  0.00  0.00    +0.000 A 
ATOM     18  N   UNL     1     -11.935   5.739 129.565  0.00  0.00    +0.000 NA
BRANCH  13  20
ATOM     19  C   UNL     1     -12.803   9.030 128.798  0.00  0.00    +0.000 C 
ATOM     20  O   UNL     1     -12.744   7.629 128.537  0.00  0.00    +0.000 OA
ENDBRANCH  13  20
ENDBRANCH   7  16
ENDBRANCH   1  12
BRANCH   4  21
ATOM     21  O   UNL     1      -7.886   2.080 125.243  0.00  0.00    +0.000 OA
BRANCH  21  22
ATOM     22  C   UNL     1      -7.231   0.910 124.924  0.00  0.00    +0.000 A 
ATOM     23  C   UNL     1      -6.046   0.535 125.567  0.00  0.00    +0.000 A 
ATOM     24  C   UNL     1      -5.472  -0.714 125.310  0.00  0.00    +0.000 A 
ATOM     25  C   UNL     1      -6.092  -1.599 124.429  0.00  0.00    +0.000 A 
ATOM     26 CL   UNL     1      -5.393  -3.146 124.138  0.00  0.00    +0.000 Cl
ATOM     27  C   UNL     1      -7.280  -1.246 123.794  0.00  0.00    +0.000 A 
ATOM     28  C   UNL     1      -7.850   0.006 124.046  0.00  0.00    +0.000 A 
ATOM     29 CL   UNL     1      -9.336   0.400 123.259  0.00  0.00    +0.000 Cl
ENDBRANCH  21  22
ENDBRANCH   4  21
TORSDOF 5
ENDMDL
MODEL 7
REMARK VINA RESULT:      -7.5      4.545      8.483
REMARK  Name = CHEMBL563613
REMARK  7 active torsions:
REMARK  status: ('A' for Active; 'I' for Inactive)
REMARK    1  A    between atoms: C_1  and  O_2
REMARK    2  A    between atoms: O_2  and  C_3
REMARK    3  A    between atoms: C_6  and  N_7
REMARK    4  A    between atoms: C_8  and  C_9
REMARK    5  A    between atoms: C_12  and  C_13
REMARK    6  A    between atoms: C_16  and  O_17
REMARK    7  A    between atoms: O_17  and  C_18
REMARK                            x       y       z     vdW  Elec       q    Type
REMARK                         _______ _______ _______ _____ _____    ______ ____
ROOT
ATOM      1  C   UNL     1      -8.050   2.311 126.787  0.00  0.00    +0.000 A 
ATOM      2  C   UNL     1      -7.067   2.137 125.812  0.00  0.00    +0.000 A 
ATOM      3  N   UNL     1      -7.159   1.225 124.808  0.00  0.00    +0.000 NA
ATOM      4  C   UNL     1      -8.264   0.447 124.829  0.00  0.00    +0.000 A 
ATOM      5  C   UNL     1      -9.237   0.595 125.815  0.00  0.00    +0.000 A 
ATOM      6  N   UNL     1      -9.158   1.530 126.803  0.00  0.00    +0.000 NA
ENDROOT
BRANCH   1  12
ATOM      7  N   UNL     1      -7.685   3.089 129.192  0.00  0.00    +0.000 N 
ATOM      8  C   UNL     1      -7.818   4.334 129.803  0.00  0.00    +0.000 A 
ATOM      9  C   UNL     1      -7.514   4.711 131.211  0.00  0.00    +0.000 C 
ATOM     10  N   UNL     1      -8.157   5.224 128.890  0.00  0.00    +0.000 NA
ATOM     11  N   UNL     1      -8.222   4.603 127.678  0.00  0.00    +0.000 NA
ATOM     12  C   UNL     1      -7.942   3.319 127.839  0.00  0.00    +0.000 A 
BRANCH   7  16
ATOM     13  C   UNL     1      -6.731  -0.554 130.989  0.00  0.00    +0.000 A 
ATOM     14  C   UNL     1      -8.063  -0.167 130.959  0.00  0.00    +0.000 A 
ATOM     15  C   UNL     1      -8.403   1.044 130.349  0.00  0.00    +0.000 A 
ATOM     16  C   UNL     1      -7.397   1.835 129.792  0.00  0.00    +0.000 A 
ATOM     17  C   UNL     1      -6.085   1.402 129.925  0.00  0.00    +0.000 A 
ATOM     18  N   UNL     1      -5.738   0.229 130.516  0.00  0.00    +0.000 NA
BRANCH  13  20
ATOM     19  C   UNL     1      -5.348  -2.433 130.797  0.00  0.00    +0.000 C 
ATOM     20  O   UNL     1      -6.321  -1.729 131.567  0.00  0.00    +0.000 OA
ENDBRANCH  13  20
ENDBRANCH   7  16
ENDBRANCH   1  12
BRANCH   4  21
ATOM     21  O   UNL     1      -8.497  -0.511 123.851  0.00  0.00    +0.000 OA
BRANCH  21  22
ATOM     22  C   UNL     1      -7.618  -1.565 123.722  0.00  0.00    +0.000 A 
ATOM     23  C   UNL     1      -6.415  -1.433 123.020  0.00  0.00    +0.000 A 
ATOM     24  C   UNL     1      -5.488  -2.482 123.011  0.00  0.00    +0.000 A 
ATOM     25  C   UNL     1      -5.752  -3.652 123.721  0.00  0.00    +0.000 A 
ATOM     26 CL   UNL     1      -4.595  -4.927 123.727  0.00  0.00    +0.000 Cl
ATOM     27  C   UNL     1      -6.938  -3.791 124.437  0.00  0.00    +0.000 A 
ATOM     28  C   UNL     1      -7.867  -2.745 124.440  0.00  0.00    +0.000 A 
ATOM     29 CL   UNL     1      -9.317  -2.944 125.358  0.00  0.00    +0.000 Cl
ENDBRANCH  21  22
ENDBRANCH   4  21
TORSDOF 5
ENDMDL
MODEL 8
REMARK VINA RESULT:      -7.5      4.202      9.015
REMARK  Name = CHEMBL563613
REMARK  7 active torsions:
REMARK  status: ('A' for Active; 'I' for Inactive)
REMARK    1  A    between atoms: C_1  and  O_2
REMARK    2  A    between atoms: O_2  and  C_3
REMARK    3  A    between atoms: C_6  and  N_7
REMARK    4  A    between atoms: C_8  and  C_9
REMARK    5  A    between atoms: C_12  and  C_13
REMARK    6  A    between atoms: C_16  and  O_17
REMARK    7  A    between atoms: O_17  and  C_18
REMARK                            x       y       z     vdW  Elec       q    Type
REMARK                         _______ _______ _______ _____ _____    ______ ____
ROOT
ATOM      1  C   UNL     1      -7.802   2.485 129.676  0.00  0.00    +0.000 A 
ATOM      2  C   UNL     1      -8.727   1.946 128.782  0.00  0.00    +0.000 A 
ATOM      3  N   UNL     1      -8.496   1.821 127.447  0.00  0.00    +0.000 NA
ATOM      4  C   UNL     1      -7.307   2.297 127.017  0.00  0.00    +0.000 A 
ATOM      5  C   UNL     1      -6.389   2.862 127.899  0.00  0.00    +0.000 A 
ATOM      6  N   UNL     1      -6.609   2.958 129.240  0.00  0.00    +0.000 NA
ENDROOT
BRANCH   1  12
ATOM      7  N   UNL     1      -8.660   3.647 131.781  0.00  0.00    +0.000 N 
ATOM      8  C   UNL     1      -8.557   3.330 133.134  0.00  0.00    +0.000 A 
ATOM      9  C   UNL     1      -9.156   4.039 134.299  0.00  0.00    +0.000 C 
ATOM     10  N   UNL     1      -7.921   2.181 133.256  0.00  0.00    +0.000 NA
ATOM     11  N   UNL     1      -7.625   1.712 132.011  0.00  0.00    +0.000 NA
ATOM     12  C   UNL     1      -8.061   2.579 131.111  0.00  0.00    +0.000 A 
BRANCH   7  16
ATOM     13  C   UNL     1     -10.380   7.043 130.071  0.00  0.00    +0.000 A 
ATOM     14  C   UNL     1      -9.067   7.124 130.509  0.00  0.00    +0.000 A 
ATOM     15  C   UNL     1      -8.469   5.992 131.073  0.00  0.00    +0.000 A 
ATOM     16  C   UNL     1      -9.209   4.813 131.186  0.00  0.00    +0.000 A 
ATOM     17  C   UNL     1     -10.536   4.841 130.780  0.00  0.00    +0.000 A 
ATOM     18  N   UNL     1     -11.131   5.932 130.233  0.00  0.00    +0.000 NA
BRANCH  13  20
ATOM     19  C   UNL     1     -10.515   8.479 128.227  0.00  0.00    +0.000 C 
ATOM     20  O   UNL     1     -11.031   8.110 129.505  0.00  0.00    +0.000 OA
ENDBRANCH  13  20
ENDBRANCH   7  16
ENDBRANCH   1  12
BRANCH   4  21
ATOM     21  O   UNL     1      -6.932   2.215 125.682  0.00  0.00    +0.000 OA
BRANCH  21  22
ATOM     22  C   UNL     1      -6.529   1.000 125.172  0.00  0.00    +0.000 A 
ATOM     23  C   UNL     1      -5.651   0.167 125.875  0.00  0.00    +0.000 A 
ATOM     24  C   UNL     1      -5.356  -1.112 125.390  0.00  0.00    +0.000 A 
ATOM     25  C   UNL     1      -5.955  -1.569 124.217  0.00  0.00    +0.000 A 
ATOM     26 CL   UNL     1      -5.609  -3.154 123.642  0.00  0.00    +0.000 Cl
ATOM     27  C   UNL     1      -6.844  -0.756 123.516  0.00  0.00    +0.000 A 
ATOM     28  C   UNL     1      -7.132   0.525 123.997  0.00  0.00    +0.000 A 
ATOM     29 CL   UNL     1      -8.256   1.495 123.114  0.00  0.00    +0.000 Cl
ENDBRANCH  21  22
ENDBRANCH   4  21
TORSDOF 5
ENDMDL
MODEL 9
REMARK VINA RESULT:      -7.5      2.442      3.958
REMARK  Name = CHEMBL563613
REMARK  7 active torsions:
REMARK  status: ('A' for Active; 'I' for Inactive)
REMARK    1  A    between atoms: C_1  and  O_2
REMARK    2  A    between atoms: O_2  and  C_3
REMARK    3  A    between atoms: C_6  and  N_7
REMARK    4  A    between atoms: C_8  and  C_9
REMARK    5  A    between atoms: C_12  and  C_13
REMARK    6  A    between atoms: C_16  and  O_17
REMARK    7  A    between atoms: O_17  and  C_18
REMARK                            x       y       z     vdW  Elec       q    Type
REMARK                         _______ _______ _______ _____ _____    ______ ____
ROOT
ATOM      1  C   UNL     1      -7.676   1.729 127.590  0.00  0.00    +0.000 A 
ATOM      2  C   UNL     1      -8.777   2.031 128.390  0.00  0.00    +0.000 A 
ATOM      3  N   UNL     1      -9.004   3.262 128.922  0.00  0.00    +0.000 NA
ATOM      4  C   UNL     1      -8.058   4.191 128.661  0.00  0.00    +0.000 A 
ATOM      5  C   UNL     1      -6.940   3.890 127.886  0.00  0.00    +0.000 A 
ATOM      6  N   UNL     1      -6.730   2.665 127.327  0.00  0.00    +0.000 NA
ENDROOT
BRANCH   1  12
ATOM      7  N   UNL     1      -7.600   0.063 125.656  0.00  0.00    +0.000 N 
ATOM      8  C   UNL     1      -7.444  -1.321 125.619  0.00  0.00    +0.000 A 
ATOM      9  C   UNL     1      -7.341  -2.209 124.428  0.00  0.00    +0.000 C 
ATOM     10  N   UNL     1      -7.267  -1.764 126.849  0.00  0.00    +0.000 NA
ATOM     11  N   UNL     1      -7.272  -0.701 127.701  0.00  0.00    +0.000 NA
ATOM     12  C   UNL     1      -7.471   0.407 127.003  0.00  0.00    +0.000 A 
BRANCH   7  16
ATOM     13  C   UNL     1      -8.506   2.707 122.558  0.00  0.00    +0.000 A 
ATOM     14  C   UNL     1      -7.170   2.463 122.841  0.00  0.00    +0.000 A 
ATOM     15  C   UNL     1      -6.847   1.569 123.867  0.00  0.00    +0.000 A 
ATOM     16  C   UNL     1      -7.874   0.951 124.584  0.00  0.00    +0.000 A 
ATOM     17  C   UNL     1      -9.181   1.304 124.275  0.00  0.00    +0.000 A 
ATOM     18  N   UNL     1      -9.511   2.171 123.284  0.00  0.00    +0.000 NA
BRANCH  13  20
ATOM     19  C   UNL     1      -7.884   3.820 120.594  0.00  0.00    +0.000 C 
ATOM     20  O   UNL     1      -8.899   3.568 121.565  0.00  0.00    +0.000 OA
ENDBRANCH  13  20
ENDBRANCH   7  16
ENDBRANCH   1  12
BRANCH   4  21
ATOM     21  O   UNL     1      -8.173   5.495 129.124  0.00  0.00    +0.000 OA
BRANCH  21  22
ATOM     22  C   UNL     1      -9.357   5.900 129.702  0.00  0.00    +0.000 A 
ATOM     23  C   UNL     1      -9.569   5.803 131.081  0.00  0.00    +0.000 A 
ATOM     24  C   UNL     1     -10.731   6.334 131.652  0.00  0.00    +0.000 A 
ATOM     25  C   UNL     1     -11.670   6.982 130.850  0.00  0.00    +0.000 A 
ATOM     26 CL   UNL     1     -13.083   7.656 131.564  0.00  0.00    +0.000 Cl
ATOM     27  C   UNL     1     -11.464   7.099 129.478  0.00  0.00    +0.000 A 
ATOM     28  C   UNL     1     -10.305   6.562 128.907  0.00  0.00    +0.000 A 
ATOM     29 CL   UNL     1     -10.073   6.747 127.205  0.00  0.00    +0.000 Cl
ENDBRANCH  21  22
ENDBRANCH   4  21
TORSDOF 5
ENDMDL
