MODEL 1
REMARK VINA RESULT:      -7.4      0.000      0.000
REMARK  Name = CHEMBL1088767
REMARK  10 active torsions:
REMARK  status: ('A' for Active; 'I' for Inactive)
REMARK    1  A    between atoms: C_1  and  C_2
REMARK    2  A    between atoms: C_2  and  N_3
REMARK    3  A    between atoms: N_3  and  C_20
REMARK    4  A    between atoms: C_4  and  C_6
REMARK    5  A    between atoms: N_9  and  C_10
REMARK    6  A    between atoms: C_13  and  O_14
REMARK    7  A    between atoms: O_14  and  C_15
REMARK    8  A    between atoms: C_18  and  C_19
REMARK    9  A    between atoms: C_23  and  O_24
REMARK   10  A    between atoms: O_24  and  C_25
REMARK                            x       y       z     vdW  Elec       q    Type
REMARK                         _______ _______ _______ _____ _____    ______ ____
ROOT
ATOM      1  C   UNL     1      -9.624   3.114 131.322  0.00  0.00    +0.000 A 
ATOM      2  C   UNL     1      -9.568   2.450 132.571  0.00  0.00    +0.000 A 
ATOM      3  N   UNL     1      -8.648   1.487 132.620  0.00  0.00    +0.000 NA
ATOM      4  N   UNL     1      -8.181   1.414 131.356  0.00  0.00    +0.000 N 
ATOM      5  C   UNL     1      -8.798   2.327 130.523  0.00  0.00    +0.000 A 
ATOM      6  C   UNL     1      -8.670   2.313 129.045  0.00  0.00    +0.000 C 
ENDROOT
BRANCH   4   7
ATOM      7  C   UNL     1      -7.238   0.421 131.019  0.00  0.00    +0.000 A 
ATOM      8  C   UNL     1      -7.693  -0.882 130.810  0.00  0.00    +0.000 A 
ATOM      9  C   UNL     1      -6.778  -1.880 130.481  0.00  0.00    +0.000 A 
ATOM     10  C   UNL     1      -5.424  -1.574 130.318  0.00  0.00    +0.000 A 
ATOM     11  C   UNL     1      -4.978  -0.269 130.551  0.00  0.00    +0.000 A 
ATOM     12  C   UNL     1      -5.883   0.735 130.898  0.00  0.00    +0.000 A 
BRANCH  10  13
ATOM     13  O   UNL     1      -4.631  -2.616 129.917  0.00  0.00    +0.000 OA
ATOM     14  C   UNL     1      -5.177  -3.921 130.086  0.00  0.00    +0.000 C 
ENDBRANCH  10  13
ENDBRANCH   4   7
BRANCH   1  16
ATOM     15  N   UNL     1     -10.080   5.607 131.187  0.00  0.00    +0.000 N 
ATOM     16  C   UNL     1     -10.417   4.258 130.837  0.00  0.00    +0.000 C 
ATOM     17  O   UNL     1     -11.304   4.016 130.029  0.00  0.00    +0.000 OA
BRANCH  15  18
ATOM     18  C   UNL     1     -10.933   6.672 130.677  0.00  0.00    +0.000 A 
ATOM     19  C   UNL     1     -12.127   7.028 131.314  0.00  0.00    +0.000 A 
ATOM     20  C   UNL     1     -12.921   8.069 130.823  0.00  0.00    +0.000 A 
ATOM     21  C   UNL     1     -12.533   8.735 129.674  0.00  0.00    +0.000 A 
ATOM     22  N   UNL     1     -11.412   8.398 129.006  0.00  0.00    +0.000 NA
ATOM     23  C   UNL     1     -10.639   7.399 129.523  0.00  0.00    +0.000 A 
BRANCH  21  24
ATOM     24  O   UNL     1     -13.220   9.777 129.110  0.00  0.00    +0.000 OA
ATOM     25  C   UNL     1     -13.500  10.886 129.959  0.00  0.00    +0.000 C 
ENDBRANCH  21  24
ENDBRANCH  15  18
BRANCH  15  27
ATOM     26  C   UNL     1      -7.705   6.548 131.305  0.00  0.00    +0.000 C 
ATOM     27  C   UNL     1      -8.945   6.098 132.021  0.00  0.00    +0.000 C 
ENDBRANCH  15  27
ENDBRANCH   1  16
TORSDOF 6
ENDMDL
MODEL 2
REMARK VINA RESULT:      -7.4      7.030      8.711
REMARK  Name = CHEMBL1088767
REMARK  10 active torsions:
REMARK  status: ('A' for Active; 'I' for Inactive)
REMARK    1  A    between atoms: C_1  and  C_2
REMARK    2  A    between atoms: C_2  and  N_3
REMARK    3  A    between atoms: N_3  and  C_20
REMARK    4  A    between atoms: C_4  and  C_6
REMARK    5  A    between atoms: N_9  and  C_10
REMARK    6  A    between atoms: C_13  and  O_14
REMARK    7  A    between atoms: O_14  and  C_15
REMARK    8  A    between atoms: C_18  and  C_19
REMARK    9  A    between atoms: C_23  and  O_24
REMARK   10  A    between atoms: O_24  and  C_25
REMARK                            x       y       z     vdW  Elec       q    Type
REMARK                         _______ _______ _______ _____ _____    ______ ____
ROOT
ATOM      1  C   UNL     1      -5.444   3.884 125.425  0.00  0.00    +0.000 A 
ATOM      2  C   UNL     1      -5.324   4.040 124.023  0.00  0.00    +0.000 A 
ATOM      3  N   UNL     1      -6.119   3.228 123.328  0.00  0.00    +0.000 NA
ATOM      4  N   UNL     1      -6.673   2.429 124.264  0.00  0.00    +0.000 N 
ATOM      5  C   UNL     1      -6.235   2.742 125.536  0.00  0.00    +0.000 A 
ATOM      6  C   UNL     1      -6.477   1.889 126.725  0.00  0.00    +0.000 C 
ENDROOT
BRANCH   4   7
ATOM      7  C   UNL     1      -7.519   1.374 123.866  0.00  0.00    +0.000 A 
ATOM      8  C   UNL     1      -6.960   0.108 123.685  0.00  0.00    +0.000 A 
ATOM      9  C   UNL     1      -7.776  -0.949 123.287  0.00  0.00    +0.000 A 
ATOM     10  C   UNL     1      -9.150  -0.756 123.112  0.00  0.00    +0.000 A 
ATOM     11  C   UNL     1      -9.694   0.521 123.277  0.00  0.00    +0.000 A 
ATOM     12  C   UNL     1      -8.883   1.591 123.658  0.00  0.00    +0.000 A 
BRANCH  10  13
ATOM     13  O   UNL     1      -9.865  -1.882 122.799  0.00  0.00    +0.000 OA
ATOM     14  C   UNL     1      -9.418  -3.095 123.396  0.00  0.00    +0.000 C 
ENDBRANCH  10  13
ENDBRANCH   4   7
BRANCH   1  16
ATOM     15  N   UNL     1      -3.678   4.067 127.238  0.00  0.00    +0.000 N 
ATOM     16  C   UNL     1      -4.829   4.591 126.563  0.00  0.00    +0.000 C 
ATOM     17  O   UNL     1      -5.271   5.700 126.831  0.00  0.00    +0.000 OA
BRANCH  15  18
ATOM     18  C   UNL     1      -3.151   4.824 128.365  0.00  0.00    +0.000 A 
ATOM     19  C   UNL     1      -2.391   5.984 128.182  0.00  0.00    +0.000 A 
ATOM     20  C   UNL     1      -1.913   6.711 129.276  0.00  0.00    +0.000 A 
ATOM     21  C   UNL     1      -2.171   6.257 130.558  0.00  0.00    +0.000 A 
ATOM     22  N   UNL     1      -2.864   5.122 130.779  0.00  0.00    +0.000 NA
ATOM     23  C   UNL     1      -3.345   4.449 129.694  0.00  0.00    +0.000 A 
BRANCH  21  24
ATOM     24  O   UNL     1      -1.768   6.891 131.703  0.00  0.00    +0.000 OA
ATOM     25  C   UNL     1      -0.747   6.248 132.460  0.00  0.00    +0.000 C 
ENDBRANCH  21  24
ENDBRANCH  15  18
BRANCH  15  27
ATOM     26  C   UNL     1      -1.557   2.971 126.319  0.00  0.00    +0.000 C 
ATOM     27  C   UNL     1      -2.913   2.820 126.946  0.00  0.00    +0.000 C 
ENDBRANCH  15  27
ENDBRANCH   1  16
TORSDOF 6
ENDMDL
MODEL 3
REMARK VINA RESULT:      -7.3      2.664      9.413
REMARK  Name = CHEMBL1088767
REMARK  10 active torsions:
REMARK  status: ('A' for Active; 'I' for Inactive)
REMARK    1  A    between atoms: C_1  and  C_2
REMARK    2  A    between atoms: C_2  and  N_3
REMARK    3  A    between atoms: N_3  and  C_20
REMARK    4  A    between atoms: C_4  and  C_6
REMARK    5  A    between atoms: N_9  and  C_10
REMARK    6  A    between atoms: C_13  and  O_14
REMARK    7  A    between atoms: O_14  and  C_15
REMARK    8  A    between atoms: C_18  and  C_19
REMARK    9  A    between atoms: C_23  and  O_24
REMARK   10  A    between atoms: O_24  and  C_25
REMARK                            x       y       z     vdW  Elec       q    Type
REMARK                         _______ _______ _______ _____ _____    ______ ____
ROOT
ATOM      1  C   UNL     1      -9.473   4.024 130.760  0.00  0.00    +0.000 A 
ATOM      2  C   UNL     1     -10.766   3.512 130.493  0.00  0.00    +0.000 A 
ATOM      3  N   UNL     1     -11.618   4.431 130.040  0.00  0.00    +0.000 NA
ATOM      4  N   UNL     1     -10.932   5.590 130.135  0.00  0.00    +0.000 N 
ATOM      5  C   UNL     1      -9.660   5.399 130.637  0.00  0.00    +0.000 A 
ATOM      6  C   UNL     1      -8.772   6.502 131.078  0.00  0.00    +0.000 C 
ENDROOT
BRANCH   4   7
ATOM      7  C   UNL     1     -11.572   6.805 129.815  0.00  0.00    +0.000 A 
ATOM      8  C   UNL     1     -12.351   7.422 130.795  0.00  0.00    +0.000 A 
ATOM      9  C   UNL     1     -12.997   8.621 130.500  0.00  0.00    +0.000 A 
ATOM     10  C   UNL     1     -12.832   9.225 129.249  0.00  0.00    +0.000 A 
ATOM     11  C   UNL     1     -12.067   8.586 128.270  0.00  0.00    +0.000 A 
ATOM     12  C   UNL     1     -11.430   7.375 128.548  0.00  0.00    +0.000 A 
BRANCH  10  13
ATOM     13  O   UNL     1     -13.448  10.439 129.099  0.00  0.00    +0.000 OA
ATOM     14  C   UNL     1     -13.518  11.255 130.264  0.00  0.00    +0.000 C 
ENDBRANCH  10  13
ENDBRANCH   4   7
BRANCH   1  16
ATOM     15  N   UNL     1      -7.923   3.197 132.591  0.00  0.00    +0.000 N 
ATOM     16  C   UNL     1      -8.220   3.384 131.201  0.00  0.00    +0.000 C 
ATOM     17  O   UNL     1      -7.500   2.915 130.330  0.00  0.00    +0.000 OA
BRANCH  15  18
ATOM     18  C   UNL     1      -6.651   2.573 132.933  0.00  0.00    +0.000 A 
ATOM     19  C   UNL     1      -5.442   3.270 132.846  0.00  0.00    +0.000 A 
ATOM     20  C   UNL     1      -4.235   2.662 133.201  0.00  0.00    +0.000 A 
ATOM     21  C   UNL     1      -4.235   1.341 133.616  0.00  0.00    +0.000 A 
ATOM     22  N   UNL     1      -5.373   0.620 133.676  0.00  0.00    +0.000 NA
ATOM     23  C   UNL     1      -6.541   1.247 133.353  0.00  0.00    +0.000 A 
BRANCH  21  24
ATOM     24  O   UNL     1      -3.119   0.647 134.002  0.00  0.00    +0.000 OA
ATOM     25  C   UNL     1      -3.313  -0.715 134.367  0.00  0.00    +0.000 C 
ENDBRANCH  21  24
ENDBRANCH  15  18
BRANCH  15  27
ATOM     26  C   UNL     1      -8.175   4.543 134.751  0.00  0.00    +0.000 C 
ATOM     27  C   UNL     1      -8.751   3.555 133.778  0.00  0.00    +0.000 C 
ENDBRANCH  15  27
ENDBRANCH   1  16
TORSDOF 6
ENDMDL
MODEL 4
REMARK VINA RESULT:      -7.3      6.608      9.193
REMARK  Name = CHEMBL1088767
REMARK  10 active torsions:
REMARK  status: ('A' for Active; 'I' for Inactive)
REMARK    1  A    between atoms: C_1  and  C_2
REMARK    2  A    between atoms: C_2  and  N_3
REMARK    3  A    between atoms: N_3  and  C_20
REMARK    4  A    between atoms: C_4  and  C_6
REMARK    5  A    between atoms: N_9  and  C_10
REMARK    6  A    between atoms: C_13  and  O_14
REMARK    7  A    between atoms: O_14  and  C_15
REMARK    8  A    between atoms: C_18  and  C_19
REMARK    9  A    between atoms: C_23  and  O_24
REMARK   10  A    between atoms: O_24  and  C_25
REMARK                            x       y       z     vdW  Elec       q    Type
REMARK                         _______ _______ _______ _____ _____    ______ ____
ROOT
ATOM      1  C   UNL     1      -4.627   4.664 128.928  0.00  0.00    +0.000 A 
ATOM      2  C   UNL     1      -4.605   3.882 130.107  0.00  0.00    +0.000 A 
ATOM      3  N   UNL     1      -3.978   4.472 131.124  0.00  0.00    +0.000 NA
ATOM      4  N   UNL     1      -3.460   5.595 130.584  0.00  0.00    +0.000 N 
ATOM      5  C   UNL     1      -3.764   5.711 129.242  0.00  0.00    +0.000 A 
ATOM      6  C   UNL     1      -3.133   6.701 128.335  0.00  0.00    +0.000 C 
ENDROOT
BRANCH   4   7
ATOM      7  C   UNL     1      -2.644   6.433 131.372  0.00  0.00    +0.000 A 
ATOM      8  C   UNL     1      -1.338   6.021 131.643  0.00  0.00    +0.000 A 
ATOM      9  C   UNL     1      -0.515   6.831 132.423  0.00  0.00    +0.000 A 
ATOM     10  C   UNL     1      -0.975   8.065 132.893  0.00  0.00    +0.000 A 
ATOM     11  C   UNL     1      -2.292   8.455 132.631  0.00  0.00    +0.000 A 
ATOM     12  C   UNL     1      -3.131   7.644 131.867  0.00  0.00    +0.000 A 
BRANCH  10  13
ATOM     13  O   UNL     1      -0.055   8.811 133.581  0.00  0.00    +0.000 OA
ATOM     14  C   UNL     1      -0.092  10.217 133.354  0.00  0.00    +0.000 C 
ENDBRANCH  10  13
ENDBRANCH   4   7
BRANCH   1  16
ATOM     15  N   UNL     1      -4.656   3.591 126.629  0.00  0.00    +0.000 N 
ATOM     16  C   UNL     1      -5.247   4.456 127.607  0.00  0.00    +0.000 C 
ATOM     17  O   UNL     1      -6.347   4.961 127.424  0.00  0.00    +0.000 OA
BRANCH  15  18
ATOM     18  C   UNL     1      -5.329   3.463 125.343  0.00  0.00    +0.000 A 
ATOM     19  C   UNL     1      -6.155   2.373 125.049  0.00  0.00    +0.000 A 
ATOM     20  C   UNL     1      -6.810   2.279 123.818  0.00  0.00    +0.000 A 
ATOM     21  C   UNL     1      -6.613   3.264 122.866  0.00  0.00    +0.000 A 
ATOM     22  N   UNL     1      -5.794   4.311 123.092  0.00  0.00    +0.000 NA
ATOM     23  C   UNL     1      -5.190   4.394 124.313  0.00  0.00    +0.000 A 
BRANCH  21  24
ATOM     24  O   UNL     1      -7.212   3.286 121.635  0.00  0.00    +0.000 OA
ATOM     25  C   UNL     1      -6.496   3.938 120.591  0.00  0.00    +0.000 C 
ENDBRANCH  21  24
ENDBRANCH  15  18
BRANCH  15  27
ATOM     26  C   UNL     1      -2.109   3.453 126.433  0.00  0.00    +0.000 C 
ATOM     27  C   UNL     1      -3.413   2.774 126.736  0.00  0.00    +0.000 C 
ENDBRANCH  15  27
ENDBRANCH   1  16
TORSDOF 6
ENDMDL
MODEL 5
REMARK VINA RESULT:      -7.1      2.080      9.436
REMARK  Name = CHEMBL1088767
REMARK  10 active torsions:
REMARK  status: ('A' for Active; 'I' for Inactive)
REMARK    1  A    between atoms: C_1  and  C_2
REMARK    2  A    between atoms: C_2  and  N_3
REMARK    3  A    between atoms: N_3  and  C_20
REMARK    4  A    between atoms: C_4  and  C_6
REMARK    5  A    between atoms: N_9  and  C_10
REMARK    6  A    between atoms: C_13  and  O_14
REMARK    7  A    between atoms: O_14  and  C_15
REMARK    8  A    between atoms: C_18  and  C_19
REMARK    9  A    between atoms: C_23  and  O_24
REMARK   10  A    between atoms: O_24  and  C_25
REMARK                            x       y       z     vdW  Elec       q    Type
REMARK                         _______ _______ _______ _____ _____    ______ ____
ROOT
ATOM      1  C   UNL     1      -8.854   4.564 131.942  0.00  0.00    +0.000 A 
ATOM      2  C   UNL     1      -8.116   5.769 132.027  0.00  0.00    +0.000 A 
ATOM      3  N   UNL     1      -8.768   6.826 131.546  0.00  0.00    +0.000 NA
ATOM      4  N   UNL     1      -9.892   6.305 131.012  0.00  0.00    +0.000 N 
ATOM      5  C   UNL     1      -9.948   4.933 131.162  0.00  0.00    +0.000 A 
ATOM      6  C   UNL     1     -10.931   4.067 130.468  0.00  0.00    +0.000 C 
ENDROOT
BRANCH   4   7
ATOM      7  C   UNL     1     -10.791   7.147 130.326  0.00  0.00    +0.000 A 
ATOM      8  C   UNL     1     -12.038   7.395 130.903  0.00  0.00    +0.000 A 
ATOM      9  C   UNL     1     -12.945   8.220 130.242  0.00  0.00    +0.000 A 
ATOM     10  C   UNL     1     -12.596   8.831 129.033  0.00  0.00    +0.000 A 
ATOM     11  C   UNL     1     -11.352   8.559 128.456  0.00  0.00    +0.000 A 
ATOM     12  C   UNL     1     -10.443   7.719 129.101  0.00  0.00    +0.000 A 
BRANCH  10  13
ATOM     13  O   UNL     1     -13.534   9.684 128.514  0.00  0.00    +0.000 OA
ATOM     14  C   UNL     1     -13.739  10.900 129.227  0.00  0.00    +0.000 C 
ENDBRANCH  10  13
ENDBRANCH   4   7
BRANCH   1  16
ATOM     15  N   UNL     1      -7.804   2.280 131.599  0.00  0.00    +0.000 N 
ATOM     16  C   UNL     1      -8.574   3.190 132.395  0.00  0.00    +0.000 C 
ATOM     17  O   UNL     1      -8.926   2.896 133.529  0.00  0.00    +0.000 OA
BRANCH  15  18
ATOM     18  C   UNL     1      -7.594   0.935 132.118  0.00  0.00    +0.000 A 
ATOM     19  C   UNL     1      -8.529  -0.086 131.920  0.00  0.00    +0.000 A 
ATOM     20  C   UNL     1      -8.300  -1.376 132.406  0.00  0.00    +0.000 A 
ATOM     21  C   UNL     1      -7.143  -1.637 133.120  0.00  0.00    +0.000 A 
ATOM     22  N   UNL     1      -6.234  -0.673 133.370  0.00  0.00    +0.000 NA
ATOM     23  C   UNL     1      -6.469   0.570 132.858  0.00  0.00    +0.000 A 
BRANCH  21  24
ATOM     24  O   UNL     1      -6.805  -2.862 133.630  0.00  0.00    +0.000 OA
ATOM     25  C   UNL     1      -7.861  -3.624 134.206  0.00  0.00    +0.000 C 
ENDBRANCH  21  24
ENDBRANCH  15  18
BRANCH  15  27
ATOM     26  C   UNL     1      -7.943   2.141 129.049  0.00  0.00    +0.000 C 
ATOM     27  C   UNL     1      -7.160   2.515 130.274  0.00  0.00    +0.000 C 
ENDBRANCH  15  27
ENDBRANCH   1  16
TORSDOF 6
ENDMDL
MODEL 6
REMARK VINA RESULT:      -7.1      6.769      9.295
REMARK  Name = CHEMBL1088767
REMARK  10 active torsions:
REMARK  status: ('A' for Active; 'I' for Inactive)
REMARK    1  A    between atoms: C_1  and  C_2
REMARK    2  A    between atoms: C_2  and  N_3
REMARK    3  A    between atoms: N_3  and  C_20
REMARK    4  A    between atoms: C_4  and  C_6
REMARK    5  A    between atoms: N_9  and  C_10
REMARK    6  A    between atoms: C_13  and  O_14
REMARK    7  A    between atoms: O_14  and  C_15
REMARK    8  A    between atoms: C_18  and  C_19
REMARK    9  A    between atoms: C_23  and  O_24
REMARK   10  A    between atoms: O_24  and  C_25
REMARK                            x       y       z     vdW  Elec       q    Type
REMARK                         _______ _______ _______ _____ _____    ______ ____
ROOT
ATOM      1  C   UNL     1      -5.755   3.108 126.301  0.00  0.00    +0.000 A 
ATOM      2  C   UNL     1      -6.072   1.802 125.854  0.00  0.00    +0.000 A 
ATOM      3  N   UNL     1      -6.352   1.740 124.553  0.00  0.00    +0.000 NA
ATOM      4  N   UNL     1      -6.357   3.029 124.155  0.00  0.00    +0.000 N 
ATOM      5  C   UNL     1      -6.076   3.892 125.195  0.00  0.00    +0.000 A 
ATOM      6  C   UNL     1      -6.252   5.363 125.118  0.00  0.00    +0.000 C 
ENDROOT
BRANCH   4   7
ATOM      7  C   UNL     1      -6.709   3.346 122.827  0.00  0.00    +0.000 A 
ATOM      8  C   UNL     1      -8.049   3.238 122.452  0.00  0.00    +0.000 A 
ATOM      9  C   UNL     1      -8.420   3.542 121.144  0.00  0.00    +0.000 A 
ATOM     10  C   UNL     1      -7.467   3.993 120.225  0.00  0.00    +0.000 A 
ATOM     11  C   UNL     1      -6.125   4.077 120.607  0.00  0.00    +0.000 A 
ATOM     12  C   UNL     1      -5.740   3.758 121.909  0.00  0.00    +0.000 A 
BRANCH  10  13
ATOM     13  O   UNL     1      -7.958   4.337 118.993  0.00  0.00    +0.000 OA
ATOM     14  C   UNL     1      -9.377   4.372 118.871  0.00  0.00    +0.000 C 
ENDBRANCH  10  13
ENDBRANCH   4   7
BRANCH   1  16
ATOM     15  N   UNL     1      -3.991   4.105 127.826  0.00  0.00    +0.000 N 
ATOM     16  C   UNL     1      -5.328   3.636 127.608  0.00  0.00    +0.000 C 
ATOM     17  O   UNL     1      -6.192   3.765 128.465  0.00  0.00    +0.000 OA
BRANCH  15  18
ATOM     18  C   UNL     1      -3.652   4.592 129.157  0.00  0.00    +0.000 A 
ATOM     19  C   UNL     1      -3.558   3.729 130.255  0.00  0.00    +0.000 A 
ATOM     20  C   UNL     1      -3.209   4.211 131.520  0.00  0.00    +0.000 A 
ATOM     21  C   UNL     1      -2.983   5.566 131.692  0.00  0.00    +0.000 A 
ATOM     22  N   UNL     1      -3.102   6.438 130.671  0.00  0.00    +0.000 NA
ATOM     23  C   UNL     1      -3.414   5.937 129.440  0.00  0.00    +0.000 A 
BRANCH  21  24
ATOM     24  O   UNL     1      -2.621   6.149 132.878  0.00  0.00    +0.000 OA
ATOM     25  C   UNL     1      -2.567   7.571 132.896  0.00  0.00    +0.000 C 
ENDBRANCH  21  24
ENDBRANCH  15  18
BRANCH  15  27
ATOM     26  C   UNL     1      -1.903   3.017 126.827  0.00  0.00    +0.000 C 
ATOM     27  C   UNL     1      -2.857   4.175 126.859  0.00  0.00    +0.000 C 
ENDBRANCH  15  27
ENDBRANCH   1  16
TORSDOF 6
ENDMDL
MODEL 7
REMARK VINA RESULT:      -7.0      7.110      7.949
REMARK  Name = CHEMBL1088767
REMARK  10 active torsions:
REMARK  status: ('A' for Active; 'I' for Inactive)
REMARK    1  A    between atoms: C_1  and  C_2
REMARK    2  A    between atoms: C_2  and  N_3
REMARK    3  A    between atoms: N_3  and  C_20
REMARK    4  A    between atoms: C_4  and  C_6
REMARK    5  A    between atoms: N_9  and  C_10
REMARK    6  A    between atoms: C_13  and  O_14
REMARK    7  A    between atoms: O_14  and  C_15
REMARK    8  A    between atoms: C_18  and  C_19
REMARK    9  A    between atoms: C_23  and  O_24
REMARK   10  A    between atoms: O_24  and  C_25
REMARK                            x       y       z     vdW  Elec       q    Type
REMARK                         _______ _______ _______ _____ _____    ______ ____
ROOT
ATOM      1  C   UNL     1      -8.171  -1.867 127.325  0.00  0.00    +0.000 A 
ATOM      2  C   UNL     1      -8.736  -3.165 127.363  0.00  0.00    +0.000 A 
ATOM      3  N   UNL     1      -8.429  -3.846 128.466  0.00  0.00    +0.000 NA
ATOM      4  N   UNL     1      -7.544  -3.055 129.106  0.00  0.00    +0.000 N 
ATOM      5  C   UNL     1      -7.302  -1.884 128.413  0.00  0.00    +0.000 A 
ATOM      6  C   UNL     1      -6.204  -0.943 128.742  0.00  0.00    +0.000 C 
ENDROOT
BRANCH   4   7
ATOM      7  C   UNL     1      -6.933  -3.511 130.291  0.00  0.00    +0.000 A 
ATOM      8  C   UNL     1      -7.378  -2.993 131.509  0.00  0.00    +0.000 A 
ATOM      9  C   UNL     1      -6.787  -3.426 132.694  0.00  0.00    +0.000 A 
ATOM     10  C   UNL     1      -5.786  -4.403 132.669  0.00  0.00    +0.000 A 
ATOM     11  C   UNL     1      -5.335  -4.899 131.443  0.00  0.00    +0.000 A 
ATOM     12  C   UNL     1      -5.908  -4.459 130.249  0.00  0.00    +0.000 A 
BRANCH  10  13
ATOM     13  O   UNL     1      -5.334  -4.810 133.897  0.00  0.00    +0.000 OA
ATOM     14  C   UNL     1      -6.324  -4.965 134.910  0.00  0.00    +0.000 C 
ENDBRANCH  10  13
ENDBRANCH   4   7
BRANCH   1  16
ATOM     15  N   UNL     1      -8.120  -0.970 124.953  0.00  0.00    +0.000 N 
ATOM     16  C   UNL     1      -8.286  -0.759 126.361  0.00  0.00    +0.000 C 
ATOM     17  O   UNL     1      -8.644   0.325 126.801  0.00  0.00    +0.000 OA
BRANCH  15  18
ATOM     18  C   UNL     1      -8.232   0.189 124.076  0.00  0.00    +0.000 A 
ATOM     19  C   UNL     1      -9.466   0.621 123.580  0.00  0.00    +0.000 A 
ATOM     20  C   UNL     1      -9.555   1.749 122.759  0.00  0.00    +0.000 A 
ATOM     21  C   UNL     1      -8.401   2.429 122.410  0.00  0.00    +0.000 A 
ATOM     22  N   UNL     1      -7.187   2.023 122.833  0.00  0.00    +0.000 NA
ATOM     23  C   UNL     1      -7.131   0.937 123.657  0.00  0.00    +0.000 A 
BRANCH  21  24
ATOM     24  O   UNL     1      -8.367   3.552 121.627  0.00  0.00    +0.000 OA
ATOM     25  C   UNL     1      -7.171   3.775 120.888  0.00  0.00    +0.000 C 
ENDBRANCH  21  24
ENDBRANCH  15  18
BRANCH  15  27
ATOM     26  C   UNL     1      -9.018  -2.977 123.645  0.00  0.00    +0.000 C 
ATOM     27  C   UNL     1      -7.844  -2.243 124.226  0.00  0.00    +0.000 C 
ENDBRANCH  15  27
ENDBRANCH   1  16
TORSDOF 6
ENDMDL
MODEL 8
REMARK VINA RESULT:      -6.9      6.709     10.532
REMARK  Name = CHEMBL1088767
REMARK  10 active torsions:
REMARK  status: ('A' for Active; 'I' for Inactive)
REMARK    1  A    between atoms: C_1  and  C_2
REMARK    2  A    between atoms: C_2  and  N_3
REMARK    3  A    between atoms: N_3  and  C_20
REMARK    4  A    between atoms: C_4  and  C_6
REMARK    5  A    between atoms: N_9  and  C_10
REMARK    6  A    between atoms: C_13  and  O_14
REMARK    7  A    between atoms: O_14  and  C_15
REMARK    8  A    between atoms: C_18  and  C_19
REMARK    9  A    between atoms: C_23  and  O_24
REMARK   10  A    between atoms: O_24  and  C_25
REMARK                            x       y       z     vdW  Elec       q    Type
REMARK                         _______ _______ _______ _____ _____    ______ ____
ROOT
ATOM      1  C   UNL     1      -8.033  -2.530 127.256  0.00  0.00    +0.000 A 
ATOM      2  C   UNL     1      -8.516  -3.141 126.073  0.00  0.00    +0.000 A 
ATOM      3  N   UNL     1      -8.584  -2.309 125.035  0.00  0.00    +0.000 NA
ATOM      4  N   UNL     1      -8.276  -1.104 125.559  0.00  0.00    +0.000 N 
ATOM      5  C   UNL     1      -8.011  -1.180 126.912  0.00  0.00    +0.000 A 
ATOM      6  C   UNL     1      -7.887   0.004 127.797  0.00  0.00    +0.000 C 
ENDROOT
BRANCH   4   7
ATOM      7  C   UNL     1      -8.336   0.045 124.743  0.00  0.00    +0.000 A 
ATOM      8  C   UNL     1      -9.542   0.743 124.668  0.00  0.00    +0.000 A 
ATOM      9  C   UNL     1      -9.627   1.878 123.865  0.00  0.00    +0.000 A 
ATOM     10  C   UNL     1      -8.503   2.342 123.174  0.00  0.00    +0.000 A 
ATOM     11  C   UNL     1      -7.307   1.622 123.241  0.00  0.00    +0.000 A 
ATOM     12  C   UNL     1      -7.216   0.473 124.028  0.00  0.00    +0.000 A 
BRANCH  10  13
ATOM     13  O   UNL     1      -8.682   3.510 122.481  0.00  0.00    +0.000 OA
ATOM     14  C   UNL     1      -8.734   3.395 121.062  0.00  0.00    +0.000 C 
ENDBRANCH  10  13
ENDBRANCH   4   7
BRANCH   1  16
ATOM     15  N   UNL     1      -6.411  -3.007 129.147  0.00  0.00    +0.000 N 
ATOM     16  C   UNL     1      -7.735  -3.058 128.599  0.00  0.00    +0.000 C 
ATOM     17  O   UNL     1      -8.685  -3.434 129.272  0.00  0.00    +0.000 OA
BRANCH  15  18
ATOM     18  C   UNL     1      -6.205  -3.571 130.475  0.00  0.00    +0.000 A 
ATOM     19  C   UNL     1      -5.543  -4.789 130.663  0.00  0.00    +0.000 A 
ATOM     20  C   UNL     1      -5.335  -5.303 131.946  0.00  0.00    +0.000 A 
ATOM     21  C   UNL     1      -5.819  -4.610 133.043  0.00  0.00    +0.000 A 
ATOM     22  N   UNL     1      -6.498  -3.453 132.904  0.00  0.00    +0.000 NA
ATOM     23  C   UNL     1      -6.660  -2.959 131.643  0.00  0.00    +0.000 A 
BRANCH  21  24
ATOM     24  O   UNL     1      -5.662  -5.007 134.344  0.00  0.00    +0.000 OA
ATOM     25  C   UNL     1      -6.793  -5.608 134.965  0.00  0.00    +0.000 C 
ENDBRANCH  21  24
ENDBRANCH  15  18
BRANCH  15  27
ATOM     26  C   UNL     1      -4.598  -1.203 129.170  0.00  0.00    +0.000 C 
ATOM     27  C   UNL     1      -5.172  -2.440 128.542  0.00  0.00    +0.000 C 
ENDBRANCH  15  27
ENDBRANCH   1  16
TORSDOF 6
ENDMDL
MODEL 9
REMARK VINA RESULT:      -6.7      6.473      9.355
REMARK  Name = CHEMBL1088767
REMARK  10 active torsions:
REMARK  status: ('A' for Active; 'I' for Inactive)
REMARK    1  A    between atoms: C_1  and  C_2
REMARK    2  A    between atoms: C_2  and  N_3
REMARK    3  A    between atoms: N_3  and  C_20
REMARK    4  A    between atoms: C_4  and  C_6
REMARK    5  A    between atoms: N_9  and  C_10
REMARK    6  A    between atoms: C_13  and  O_14
REMARK    7  A    between atoms: O_14  and  C_15
REMARK    8  A    between atoms: C_18  and  C_19
REMARK    9  A    between atoms: C_23  and  O_24
REMARK   10  A    between atoms: O_24  and  C_25
REMARK                            x       y       z     vdW  Elec       q    Type
REMARK                         _______ _______ _______ _____ _____    ______ ____
ROOT
ATOM      1  C   UNL     1      -4.463   2.753 126.711  0.00  0.00    +0.000 A 
ATOM      2  C   UNL     1      -3.203   3.235 126.280  0.00  0.00    +0.000 A 
ATOM      3  N   UNL     1      -2.663   4.127 127.109  0.00  0.00    +0.000 NA
ATOM      4  N   UNL     1      -3.626   4.346 128.029  0.00  0.00    +0.000 N 
ATOM      5  C   UNL     1      -4.757   3.593 127.783  0.00  0.00    +0.000 A 
ATOM      6  C   UNL     1      -6.054   3.802 128.473  0.00  0.00    +0.000 C 
ENDROOT
BRANCH   4   7
ATOM      7  C   UNL     1      -3.423   5.318 129.030  0.00  0.00    +0.000 A 
ATOM      8  C   UNL     1      -3.740   6.646 128.738  0.00  0.00    +0.000 A 
ATOM      9  C   UNL     1      -3.544   7.625 129.709  0.00  0.00    +0.000 A 
ATOM     10  C   UNL     1      -3.076   7.277 130.981  0.00  0.00    +0.000 A 
ATOM     11  C   UNL     1      -2.743   5.947 131.253  0.00  0.00    +0.000 A 
ATOM     12  C   UNL     1      -2.918   4.961 130.281  0.00  0.00    +0.000 A 
BRANCH  10  13
ATOM     13  O   UNL     1      -2.998   8.308 131.879  0.00  0.00    +0.000 OA
ATOM     14  C   UNL     1      -2.393   8.004 133.132  0.00  0.00    +0.000 C 
ENDBRANCH  10  13
ENDBRANCH   4   7
BRANCH   1  16
ATOM     15  N   UNL     1      -6.321   2.051 125.133  0.00  0.00    +0.000 N 
ATOM     16  C   UNL     1      -5.379   1.735 126.167  0.00  0.00    +0.000 C 
ATOM     17  O   UNL     1      -5.223   0.585 126.552  0.00  0.00    +0.000 OA
BRANCH  15  18
ATOM     18  C   UNL     1      -7.202   0.986 124.671  0.00  0.00    +0.000 A 
ATOM     19  C   UNL     1      -6.836   0.128 123.629  0.00  0.00    +0.000 A 
ATOM     20  C   UNL     1      -7.684  -0.903 123.214  0.00  0.00    +0.000 A 
ATOM     21  C   UNL     1      -8.917  -1.055 123.826  0.00  0.00    +0.000 A 
ATOM     22  N   UNL     1      -9.326  -0.226 124.807  0.00  0.00    +0.000 NA
ATOM     23  C   UNL     1      -8.466   0.753 125.212  0.00  0.00    +0.000 A 
BRANCH  21  24
ATOM     24  O   UNL     1      -9.822  -2.035 123.515  0.00  0.00    +0.000 OA
ATOM     25  C   UNL     1      -9.362  -3.379 123.613  0.00  0.00    +0.000 C 
ENDBRANCH  21  24
ENDBRANCH  15  18
BRANCH  15  27
ATOM     26  C   UNL     1      -7.420   4.360 125.111  0.00  0.00    +0.000 C 
ATOM     27  C   UNL     1      -6.539   3.351 124.435  0.00  0.00    +0.000 C 
ENDBRANCH  15  27
ENDBRANCH   1  16
TORSDOF 6
ENDMDL
