MODEL 1
REMARK VINA RESULT:      -7.8      0.000      0.000
REMARK  Name = CHEMBL1090417
REMARK  6 active torsions:
REMARK  status: ('A' for Active; 'I' for Inactive)
REMARK    1  A    between atoms: C_1  and  O_2
REMARK    2  A    between atoms: O_2  and  C_3
REMARK    3  A    between atoms: C_6  and  N_7
REMARK    4  A    between atoms: N_7  and  C_8
REMARK    5  A    between atoms: C_13  and  O_14
REMARK    6  A    between atoms: O_14  and  C_15
REMARK                            x       y       z     vdW  Elec       q    Type
REMARK                         _______ _______ _______ _____ _____    ______ ____
ROOT
ATOM      1  N   UNL     1      -6.380   3.735 126.053  0.00  0.00    +0.000 N 
ATOM      2  C   UNL     1      -5.316   3.163 126.876  0.00  0.00    +0.000 C 
ATOM      3  C   UNL     1      -7.581   4.151 126.715  0.00  0.00    +0.000 C 
ATOM      4  O   UNL     1      -8.603   4.539 126.148  0.00  0.00    +0.000 OA
ATOM      5  N   UNL     1      -7.588   3.954 128.100  0.00  0.00    +0.000 N 
ATOM      6  C   UNL     1      -8.748   3.924 128.999  0.00  0.00    +0.000 C 
ATOM      7  C   UNL     1      -8.032   4.957 129.897  0.00  0.00    +0.000 C 
ATOM      8  C   UNL     1      -6.750   4.583 129.124  0.00  0.00    +0.000 C 
ENDROOT
BRANCH   1  12
ATOM      9  C   UNL     1      -5.862   3.688 121.786  0.00  0.00    +0.000 A 
ATOM     10  C   UNL     1      -6.627   2.700 122.377  0.00  0.00    +0.000 A 
ATOM     11  C   UNL     1      -6.809   2.706 123.778  0.00  0.00    +0.000 A 
ATOM     12  C   UNL     1      -6.231   3.686 124.593  0.00  0.00    +0.000 A 
ATOM     13  C   UNL     1      -5.470   4.617 123.867  0.00  0.00    +0.000 A 
ATOM     14  N   UNL     1      -5.271   4.642 122.516  0.00  0.00    +0.000 NA
BRANCH   9  16
ATOM     15  C   UNL     1      -5.424   5.027 119.896  0.00  0.00    +0.000 C 
ATOM     16  O   UNL     1      -5.538   3.726 120.459  0.00  0.00    +0.000 OA
ENDBRANCH   9  16
ENDBRANCH   1  12
BRANCH   7  17
ATOM     17  O   UNL     1      -8.542   6.319 129.817  0.00  0.00    +0.000 OA
BRANCH  17  18
ATOM     18  C   UNL     1      -9.823   6.545 130.272  0.00  0.00    +0.000 A 
ATOM     19  C   UNL     1     -10.174   6.198 131.578  0.00  0.00    +0.000 A 
ATOM     20  C   UNL     1     -11.430   6.530 132.087  0.00  0.00    +0.000 A 
ATOM     21  C   UNL     1     -12.328   7.232 131.295  0.00  0.00    +0.000 A 
ATOM     22  F   UNL     1     -13.522   7.568 131.800  0.00  0.00    +0.000 F 
ATOM     23  C   UNL     1     -11.999   7.601 129.997  0.00  0.00    +0.000 A 
ATOM     24  C   UNL     1     -10.743   7.256 129.483  0.00  0.00    +0.000 A 
ATOM     25 CL   UNL     1     -10.370   7.730 127.867  0.00  0.00    +0.000 Cl
ENDBRANCH  17  18
ENDBRANCH   7  17
TORSDOF 4
ENDMDL
MODEL 2
REMARK VINA RESULT:      -7.8      3.346      4.054
REMARK  Name = CHEMBL1090417
REMARK  6 active torsions:
REMARK  status: ('A' for Active; 'I' for Inactive)
REMARK    1  A    between atoms: C_1  and  O_2
REMARK    2  A    between atoms: O_2  and  C_3
REMARK    3  A    between atoms: C_6  and  N_7
REMARK    4  A    between atoms: N_7  and  C_8
REMARK    5  A    between atoms: C_13  and  O_14
REMARK    6  A    between atoms: O_14  and  C_15
REMARK                            x       y       z     vdW  Elec       q    Type
REMARK                         _______ _______ _______ _____ _____    ______ ____
ROOT
ATOM      1  N   UNL     1      -6.987   4.271 129.501  0.00  0.00    +0.000 N 
ATOM      2  C   UNL     1      -6.718   4.882 130.802  0.00  0.00    +0.000 C 
ATOM      3  C   UNL     1      -8.337   3.889 129.212  0.00  0.00    +0.000 C 
ATOM      4  O   UNL     1      -8.697   3.262 128.216  0.00  0.00    +0.000 OA
ATOM      5  N   UNL     1      -9.255   4.153 130.234  0.00  0.00    +0.000 N 
ATOM      6  C   UNL     1     -10.593   3.578 130.414  0.00  0.00    +0.000 C 
ATOM      7  C   UNL     1     -11.150   5.011 130.556  0.00  0.00    +0.000 C 
ATOM      8  C   UNL     1      -9.686   5.445 130.774  0.00  0.00    +0.000 C 
ENDROOT
BRANCH   1  12
ATOM      9  C   UNL     1      -3.669   3.353 126.926  0.00  0.00    +0.000 A 
ATOM     10  C   UNL     1      -3.815   2.647 128.106  0.00  0.00    +0.000 A 
ATOM     11  C   UNL     1      -4.903   2.935 128.959  0.00  0.00    +0.000 A 
ATOM     12  C   UNL     1      -5.843   3.924 128.648  0.00  0.00    +0.000 A 
ATOM     13  C   UNL     1      -5.568   4.572 127.431  0.00  0.00    +0.000 A 
ATOM     14  N   UNL     1      -4.528   4.322 126.583  0.00  0.00    +0.000 NA
BRANCH   9  16
ATOM     15  C   UNL     1      -1.370   2.890 126.688  0.00  0.00    +0.000 C 
ATOM     16  O   UNL     1      -2.608   3.229 126.075  0.00  0.00    +0.000 OA
ENDBRANCH   9  16
ENDBRANCH   1  12
BRANCH   7  17
ATOM     17  O   UNL     1     -11.881   5.517 129.403  0.00  0.00    +0.000 OA
BRANCH  17  18
ATOM     18  C   UNL     1     -12.352   6.811 129.466  0.00  0.00    +0.000 A 
ATOM     19  C   UNL     1     -12.651   7.388 130.702  0.00  0.00    +0.000 A 
ATOM     20  C   UNL     1     -13.014   8.732 130.787  0.00  0.00    +0.000 A 
ATOM     21  C   UNL     1     -13.056   9.507 129.637  0.00  0.00    +0.000 A 
ATOM     22  F   UNL     1     -13.381  10.802 129.732  0.00  0.00    +0.000 F 
ATOM     23  C   UNL     1     -12.750   8.961 128.397  0.00  0.00    +0.000 A 
ATOM     24  C   UNL     1     -12.398   7.609 128.310  0.00  0.00    +0.000 A 
ATOM     25 CL   UNL     1     -12.026   6.964 126.754  0.00  0.00    +0.000 Cl
ENDBRANCH  17  18
ENDBRANCH   7  17
TORSDOF 4
ENDMDL
MODEL 3
REMARK VINA RESULT:      -7.6      6.075      8.876
REMARK  Name = CHEMBL1090417
REMARK  6 active torsions:
REMARK  status: ('A' for Active; 'I' for Inactive)
REMARK    1  A    between atoms: C_1  and  O_2
REMARK    2  A    between atoms: O_2  and  C_3
REMARK    3  A    between atoms: C_6  and  N_7
REMARK    4  A    between atoms: N_7  and  C_8
REMARK    5  A    between atoms: C_13  and  O_14
REMARK    6  A    between atoms: O_14  and  C_15
REMARK                            x       y       z     vdW  Elec       q    Type
REMARK                         _______ _______ _______ _____ _____    ______ ____
ROOT
ATOM      1  N   UNL     1      -9.715   5.526 131.245  0.00  0.00    +0.000 N 
ATOM      2  C   UNL     1      -9.105   5.720 132.559  0.00  0.00    +0.000 C 
ATOM      3  C   UNL     1      -9.227   4.445 130.439  0.00  0.00    +0.000 C 
ATOM      4  O   UNL     1      -9.556   4.229 129.273  0.00  0.00    +0.000 OA
ATOM      5  N   UNL     1      -8.204   3.692 131.023  0.00  0.00    +0.000 N 
ATOM      6  C   UNL     1      -7.262   2.785 130.357  0.00  0.00    +0.000 C 
ATOM      7  C   UNL     1      -7.639   1.696 131.386  0.00  0.00    +0.000 C 
ATOM      8  C   UNL     1      -8.251   2.843 132.216  0.00  0.00    +0.000 C 
ENDROOT
BRANCH   1  12
ATOM      9  C   UNL     1     -12.381   8.536 129.724  0.00  0.00    +0.000 A 
ATOM     10  C   UNL     1     -12.799   7.741 130.775  0.00  0.00    +0.000 A 
ATOM     11  C   UNL     1     -11.932   6.752 131.288  0.00  0.00    +0.000 A 
ATOM     12  C   UNL     1     -10.653   6.545 130.757  0.00  0.00    +0.000 A 
ATOM     13  C   UNL     1     -10.363   7.408 129.687  0.00  0.00    +0.000 A 
ATOM     14  N   UNL     1     -11.174   8.374 129.165  0.00  0.00    +0.000 NA
BRANCH   9  16
ATOM     15  C   UNL     1     -13.448  10.636 129.826  0.00  0.00    +0.000 C 
ATOM     16  O   UNL     1     -13.166   9.454 129.086  0.00  0.00    +0.000 OA
ENDBRANCH   9  16
ENDBRANCH   1  12
BRANCH   7  17
ATOM     17  O   UNL     1      -8.503   0.635 130.888  0.00  0.00    +0.000 OA
BRANCH  17  18
ATOM     18  C   UNL     1      -7.938  -0.606 130.692  0.00  0.00    +0.000 A 
ATOM     19  C   UNL     1      -7.794  -1.487 131.766  0.00  0.00    +0.000 A 
ATOM     20  C   UNL     1      -7.334  -2.787 131.559  0.00  0.00    +0.000 A 
ATOM     21  C   UNL     1      -7.040  -3.216 130.272  0.00  0.00    +0.000 A 
ATOM     22  F   UNL     1      -6.624  -4.474 130.080  0.00  0.00    +0.000 F 
ATOM     23  C   UNL     1      -7.188  -2.365 129.185  0.00  0.00    +0.000 A 
ATOM     24  C   UNL     1      -7.638  -1.055 129.395  0.00  0.00    +0.000 A 
ATOM     25 CL   UNL     1      -7.808  -0.025 128.022  0.00  0.00    +0.000 Cl
ENDBRANCH  17  18
ENDBRANCH   7  17
TORSDOF 4
ENDMDL
MODEL 4
REMARK VINA RESULT:      -7.5      3.054      3.395
REMARK  Name = CHEMBL1090417
REMARK  6 active torsions:
REMARK  status: ('A' for Active; 'I' for Inactive)
REMARK    1  A    between atoms: C_1  and  O_2
REMARK    2  A    between atoms: O_2  and  C_3
REMARK    3  A    between atoms: C_6  and  N_7
REMARK    4  A    between atoms: N_7  and  C_8
REMARK    5  A    between atoms: C_13  and  O_14
REMARK    6  A    between atoms: O_14  and  C_15
REMARK                            x       y       z     vdW  Elec       q    Type
REMARK                         _______ _______ _______ _____ _____    ______ ____
ROOT
ATOM      1  N   UNL     1      -6.975   2.549 127.497  0.00  0.00    +0.000 N 
ATOM      2  C   UNL     1      -5.965   3.586 127.698  0.00  0.00    +0.000 C 
ATOM      3  C   UNL     1      -8.158   2.609 128.305  0.00  0.00    +0.000 C 
ATOM      4  O   UNL     1      -9.037   1.748 128.335  0.00  0.00    +0.000 OA
ATOM      5  N   UNL     1      -8.200   3.675 129.208  0.00  0.00    +0.000 N 
ATOM      6  C   UNL     1      -9.054   3.818 130.393  0.00  0.00    +0.000 C 
ATOM      7  C   UNL     1      -9.478   5.211 129.875  0.00  0.00    +0.000 C 
ATOM      8  C   UNL     1      -8.260   5.113 128.934  0.00  0.00    +0.000 C 
ENDROOT
BRANCH   1  12
ATOM      9  C   UNL     1      -6.089  -0.708 124.835  0.00  0.00    +0.000 A 
ATOM     10  C   UNL     1      -5.404  -0.617 126.033  0.00  0.00    +0.000 A 
ATOM     11  C   UNL     1      -5.688   0.445 126.919  0.00  0.00    +0.000 A 
ATOM     12  C   UNL     1      -6.646   1.420 126.619  0.00  0.00    +0.000 A 
ATOM     13  C   UNL     1      -7.255   1.217 125.368  0.00  0.00    +0.000 A 
ATOM     14  N   UNL     1      -7.005   0.205 124.487  0.00  0.00    +0.000 NA
BRANCH   9  16
ATOM     15  C   UNL     1      -6.698  -1.593 122.737  0.00  0.00    +0.000 C 
ATOM     16  O   UNL     1      -5.830  -1.631 123.863  0.00  0.00    +0.000 OA
ENDBRANCH   9  16
ENDBRANCH   1  12
BRANCH   7  17
ATOM     17  O   UNL     1     -10.816   5.287 129.305  0.00  0.00    +0.000 OA
BRANCH  17  18
ATOM     18  C   UNL     1     -11.521   6.456 129.493  0.00  0.00    +0.000 A 
ATOM     19  C   UNL     1     -12.209   6.676 130.688  0.00  0.00    +0.000 A 
ATOM     20  C   UNL     1     -12.825   7.902 130.936  0.00  0.00    +0.000 A 
ATOM     21  C   UNL     1     -12.734   8.919 129.996  0.00  0.00    +0.000 A 
ATOM     22  F   UNL     1     -13.308  10.102 130.254  0.00  0.00    +0.000 F 
ATOM     23  C   UNL     1     -12.045   8.732 128.805  0.00  0.00    +0.000 A 
ATOM     24  C   UNL     1     -11.437   7.496 128.552  0.00  0.00    +0.000 A 
ATOM     25 CL   UNL     1     -10.591   7.298 127.061  0.00  0.00    +0.000 Cl
ENDBRANCH  17  18
ENDBRANCH   7  17
TORSDOF 4
ENDMDL
MODEL 5
REMARK VINA RESULT:      -7.2      5.877      8.193
REMARK  Name = CHEMBL1090417
REMARK  6 active torsions:
REMARK  status: ('A' for Active; 'I' for Inactive)
REMARK    1  A    between atoms: C_1  and  O_2
REMARK    2  A    between atoms: O_2  and  C_3
REMARK    3  A    between atoms: C_6  and  N_7
REMARK    4  A    between atoms: N_7  and  C_8
REMARK    5  A    between atoms: C_13  and  O_14
REMARK    6  A    between atoms: O_14  and  C_15
REMARK                            x       y       z     vdW  Elec       q    Type
REMARK                         _______ _______ _______ _____ _____    ______ ____
ROOT
ATOM      1  N   UNL     1      -5.420   3.353 125.270  0.00  0.00    +0.000 N 
ATOM      2  C   UNL     1      -5.772   3.987 124.000  0.00  0.00    +0.000 C 
ATOM      3  C   UNL     1      -6.135   2.169 125.643  0.00  0.00    +0.000 C 
ATOM      4  O   UNL     1      -6.034   1.594 126.727  0.00  0.00    +0.000 OA
ATOM      5  N   UNL     1      -7.106   1.754 124.726  0.00  0.00    +0.000 N 
ATOM      6  C   UNL     1      -8.228   0.837 124.955  0.00  0.00    +0.000 C 
ATOM      7  C   UNL     1      -7.778   0.035 123.713  0.00  0.00    +0.000 C 
ATOM      8  C   UNL     1      -6.931   1.273 123.353  0.00  0.00    +0.000 C 
ENDROOT
BRANCH   1  12
ATOM      9  C   UNL     1      -2.794   5.501 127.910  0.00  0.00    +0.000 A 
ATOM     10  C   UNL     1      -2.356   4.314 127.352  0.00  0.00    +0.000 A 
ATOM     11  C   UNL     1      -3.207   3.600 126.479  0.00  0.00    +0.000 A 
ATOM     12  C   UNL     1      -4.491   4.058 126.163  0.00  0.00    +0.000 A 
ATOM     13  C   UNL     1      -4.812   5.265 126.807  0.00  0.00    +0.000 A 
ATOM     14  N   UNL     1      -4.018   5.981 127.656  0.00  0.00    +0.000 NA
BRANCH   9  16
ATOM     15  C   UNL     1      -2.453   5.978 130.193  0.00  0.00    +0.000 C 
ATOM     16  O   UNL     1      -2.099   6.223 128.838  0.00  0.00    +0.000 OA
ENDBRANCH   9  16
ENDBRANCH   1  12
BRANCH   7  17
ATOM     17  O   UNL     1      -7.113  -1.230 123.991  0.00  0.00    +0.000 OA
BRANCH  17  18
ATOM     18  C   UNL     1      -7.595  -1.985 125.038  0.00  0.00    +0.000 A 
ATOM     19  C   UNL     1      -7.031  -1.860 126.310  0.00  0.00    +0.000 A 
ATOM     20  C   UNL     1      -7.586  -2.529 127.400  0.00  0.00    +0.000 A 
ATOM     21  C   UNL     1      -8.722  -3.306 127.224  0.00  0.00    +0.000 A 
ATOM     22  F   UNL     1      -9.263  -3.924 128.281  0.00  0.00    +0.000 F 
ATOM     23  C   UNL     1      -9.311  -3.437 125.973  0.00  0.00    +0.000 A 
ATOM     24  C   UNL     1      -8.745  -2.775 124.876  0.00  0.00    +0.000 A 
ATOM     25 CL   UNL     1      -9.502  -2.962 123.337  0.00  0.00    +0.000 Cl
ENDBRANCH  17  18
ENDBRANCH   7  17
TORSDOF 4
ENDMDL
MODEL 6
REMARK VINA RESULT:      -7.2      5.521      8.693
REMARK  Name = CHEMBL1090417
REMARK  6 active torsions:
REMARK  status: ('A' for Active; 'I' for Inactive)
REMARK    1  A    between atoms: C_1  and  O_2
REMARK    2  A    between atoms: O_2  and  C_3
REMARK    3  A    between atoms: C_6  and  N_7
REMARK    4  A    between atoms: N_7  and  C_8
REMARK    5  A    between atoms: C_13  and  O_14
REMARK    6  A    between atoms: O_14  and  C_15
REMARK                            x       y       z     vdW  Elec       q    Type
REMARK                         _______ _______ _______ _____ _____    ______ ____
ROOT
ATOM      1  N   UNL     1      -9.655   5.936 130.382  0.00  0.00    +0.000 N 
ATOM      2  C   UNL     1      -9.325   5.877 131.805  0.00  0.00    +0.000 C 
ATOM      3  C   UNL     1      -8.917   5.088 129.493  0.00  0.00    +0.000 C 
ATOM      4  O   UNL     1      -8.998   5.110 128.265  0.00  0.00    +0.000 OA
ATOM      5  N   UNL     1      -7.949   4.289 130.110  0.00  0.00    +0.000 N 
ATOM      6  C   UNL     1      -6.810   3.608 129.483  0.00  0.00    +0.000 C 
ATOM      7  C   UNL     1      -7.259   2.301 130.173  0.00  0.00    +0.000 C 
ATOM      8  C   UNL     1      -8.130   3.201 131.074  0.00  0.00    +0.000 C 
ENDROOT
BRANCH   1  12
ATOM      9  C   UNL     1     -12.461   8.950 129.147  0.00  0.00    +0.000 A 
ATOM     10  C   UNL     1     -11.233   8.879 128.515  0.00  0.00    +0.000 A 
ATOM     11  C   UNL     1     -10.304   7.891 128.907  0.00  0.00    +0.000 A 
ATOM     12  C   UNL     1     -10.586   6.977 129.928  0.00  0.00    +0.000 A 
ATOM     13  C   UNL     1     -11.858   7.169 130.494  0.00  0.00    +0.000 A 
ATOM     14  N   UNL     1     -12.781   8.112 130.142  0.00  0.00    +0.000 NA
BRANCH   9  16
ATOM     15  C   UNL     1     -13.453  10.953 129.895  0.00  0.00    +0.000 C 
ATOM     16  O   UNL     1     -13.395   9.920 128.919  0.00  0.00    +0.000 OA
ENDBRANCH   9  16
ENDBRANCH   1  12
BRANCH   7  17
ATOM     17  O   UNL     1      -7.901   1.323 129.306  0.00  0.00    +0.000 OA
BRANCH  17  18
ATOM     18  C   UNL     1      -7.537   0.002 129.459  0.00  0.00    +0.000 A 
ATOM     19  C   UNL     1      -6.608  -0.573 128.589  0.00  0.00    +0.000 A 
ATOM     20  C   UNL     1      -6.144  -1.871 128.806  0.00  0.00    +0.000 A 
ATOM     21  C   UNL     1      -6.592  -2.585 129.908  0.00  0.00    +0.000 A 
ATOM     22  F   UNL     1      -6.122  -3.821 130.122  0.00  0.00    +0.000 F 
ATOM     23  C   UNL     1      -7.505  -2.032 130.796  0.00  0.00    +0.000 A 
ATOM     24  C   UNL     1      -7.980  -0.734 130.571  0.00  0.00    +0.000 A 
ATOM     25 CL   UNL     1      -9.115  -0.078 131.693  0.00  0.00    +0.000 Cl
ENDBRANCH  17  18
ENDBRANCH   7  17
TORSDOF 4
ENDMDL
MODEL 7
REMARK VINA RESULT:      -7.1      5.464      9.461
REMARK  Name = CHEMBL1090417
REMARK  6 active torsions:
REMARK  status: ('A' for Active; 'I' for Inactive)
REMARK    1  A    between atoms: C_1  and  O_2
REMARK    2  A    between atoms: O_2  and  C_3
REMARK    3  A    between atoms: C_6  and  N_7
REMARK    4  A    between atoms: N_7  and  C_8
REMARK    5  A    between atoms: C_13  and  O_14
REMARK    6  A    between atoms: O_14  and  C_15
REMARK                            x       y       z     vdW  Elec       q    Type
REMARK                         _______ _______ _______ _____ _____    ______ ____
ROOT
ATOM      1  N   UNL     1      -8.879   3.299 129.940  0.00  0.00    +0.000 N 
ATOM      2  C   UNL     1      -8.587   2.495 131.125  0.00  0.00    +0.000 C 
ATOM      3  C   UNL     1      -8.248   2.922 128.709  0.00  0.00    +0.000 C 
ATOM      4  O   UNL     1      -8.302   3.566 127.661  0.00  0.00    +0.000 OA
ATOM      5  N   UNL     1      -7.410   1.806 128.795  0.00  0.00    +0.000 N 
ATOM      6  C   UNL     1      -6.364   1.391 127.853  0.00  0.00    +0.000 C 
ATOM      7  C   UNL     1      -7.000  -0.017 127.824  0.00  0.00    +0.000 C 
ATOM      8  C   UNL     1      -7.756   0.415 129.097  0.00  0.00    +0.000 C 
ENDROOT
BRANCH   1  12
ATOM      9  C   UNL     1     -11.241   6.852 130.464  0.00  0.00    +0.000 A 
ATOM     10  C   UNL     1      -9.868   6.972 130.355  0.00  0.00    +0.000 A 
ATOM     11  C   UNL     1      -9.080   5.813 130.178  0.00  0.00    +0.000 A 
ATOM     12  C   UNL     1      -9.650   4.537 130.113  0.00  0.00    +0.000 A 
ATOM     13  C   UNL     1     -11.048   4.557 130.252  0.00  0.00    +0.000 A 
ATOM     14  N   UNL     1     -11.841   5.655 130.426  0.00  0.00    +0.000 NA
BRANCH   9  16
ATOM     15  C   UNL     1     -12.697   8.492 129.599  0.00  0.00    +0.000 C 
ATOM     16  O   UNL     1     -12.090   7.887 130.734  0.00  0.00    +0.000 OA
ENDBRANCH   9  16
ENDBRANCH   1  12
BRANCH   7  17
ATOM     17  O   UNL     1      -7.754  -0.338 126.620  0.00  0.00    +0.000 OA
BRANCH  17  18
ATOM     18  C   UNL     1      -7.204  -1.256 125.751  0.00  0.00    +0.000 A 
ATOM     19  C   UNL     1      -5.902  -1.079 125.279  0.00  0.00    +0.000 A 
ATOM     20  C   UNL     1      -5.293  -2.059 124.496  0.00  0.00    +0.000 A 
ATOM     21  C   UNL     1      -5.979  -3.230 124.204  0.00  0.00    +0.000 A 
ATOM     22  F   UNL     1      -5.376  -4.176 123.473  0.00  0.00    +0.000 F 
ATOM     23  C   UNL     1      -7.269  -3.437 124.673  0.00  0.00    +0.000 A 
ATOM     24  C   UNL     1      -7.885  -2.447 125.449  0.00  0.00    +0.000 A 
ATOM     25 CL   UNL     1      -9.489  -2.737 126.012  0.00  0.00    +0.000 Cl
ENDBRANCH  17  18
ENDBRANCH   7  17
TORSDOF 4
ENDMDL
MODEL 8
REMARK VINA RESULT:      -7.1      4.981      6.426
REMARK  Name = CHEMBL1090417
REMARK  6 active torsions:
REMARK  status: ('A' for Active; 'I' for Inactive)
REMARK    1  A    between atoms: C_1  and  O_2
REMARK    2  A    between atoms: O_2  and  C_3
REMARK    3  A    between atoms: C_6  and  N_7
REMARK    4  A    between atoms: N_7  and  C_8
REMARK    5  A    between atoms: C_13  and  O_14
REMARK    6  A    between atoms: O_14  and  C_15
REMARK                            x       y       z     vdW  Elec       q    Type
REMARK                         _______ _______ _______ _____ _____    ______ ____
ROOT
ATOM      1  N   UNL     1      -7.113   1.606 130.169  0.00  0.00    +0.000 N 
ATOM      2  C   UNL     1      -5.923   2.358 129.773  0.00  0.00    +0.000 C 
ATOM      3  C   UNL     1      -8.240   2.350 130.648  0.00  0.00    +0.000 C 
ATOM      4  O   UNL     1      -9.262   1.856 131.126  0.00  0.00    +0.000 OA
ATOM      5  N   UNL     1      -8.060   3.736 130.680  0.00  0.00    +0.000 N 
ATOM      6  C   UNL     1      -8.838   4.728 131.430  0.00  0.00    +0.000 C 
ATOM      7  C   UNL     1      -9.014   5.528 130.120  0.00  0.00    +0.000 C 
ATOM      8  C   UNL     1      -7.862   4.665 129.564  0.00  0.00    +0.000 C 
ENDROOT
BRANCH   1  12
ATOM      9  C   UNL     1      -6.892  -2.687 130.205  0.00  0.00    +0.000 A 
ATOM     10  C   UNL     1      -6.389  -1.983 131.283  0.00  0.00    +0.000 A 
ATOM     11  C   UNL     1      -6.459  -0.572 131.287  0.00  0.00    +0.000 A 
ATOM     12  C   UNL     1      -7.022   0.141 130.222  0.00  0.00    +0.000 A 
ATOM     13  C   UNL     1      -7.479  -0.694 129.189  0.00  0.00    +0.000 A 
ATOM     14  N   UNL     1      -7.428  -2.058 129.150  0.00  0.00    +0.000 NA
BRANCH   9  16
ATOM     15  C   UNL     1      -5.603  -4.628 130.565  0.00  0.00    +0.000 C 
ATOM     16  O   UNL     1      -6.791  -4.040 130.049  0.00  0.00    +0.000 OA
ENDBRANCH   9  16
ENDBRANCH   1  12
BRANCH   7  17
ATOM     17  O   UNL     1     -10.332   5.442 129.505  0.00  0.00    +0.000 OA
BRANCH  17  18
ATOM     18  C   UNL     1     -11.004   6.623 129.274  0.00  0.00    +0.000 A 
ATOM     19  C   UNL     1     -10.980   7.204 128.004  0.00  0.00    +0.000 A 
ATOM     20  C   UNL     1     -11.752   8.333 127.728  0.00  0.00    +0.000 A 
ATOM     21  C   UNL     1     -12.567   8.867 128.717  0.00  0.00    +0.000 A 
ATOM     22  F   UNL     1     -13.323   9.935 128.434  0.00  0.00    +0.000 F 
ATOM     23  C   UNL     1     -12.619   8.300 129.983  0.00  0.00    +0.000 A 
ATOM     24  C   UNL     1     -11.835   7.174 130.263  0.00  0.00    +0.000 A 
ATOM     25 CL   UNL     1     -11.923   6.497 131.848  0.00  0.00    +0.000 Cl
ENDBRANCH  17  18
ENDBRANCH   7  17
TORSDOF 4
ENDMDL
MODEL 9
REMARK VINA RESULT:      -7.1      4.798      6.134
REMARK  Name = CHEMBL1090417
REMARK  6 active torsions:
REMARK  status: ('A' for Active; 'I' for Inactive)
REMARK    1  A    between atoms: C_1  and  O_2
REMARK    2  A    between atoms: O_2  and  C_3
REMARK    3  A    between atoms: C_6  and  N_7
REMARK    4  A    between atoms: N_7  and  C_8
REMARK    5  A    between atoms: C_13  and  O_14
REMARK    6  A    between atoms: O_14  and  C_15
REMARK                            x       y       z     vdW  Elec       q    Type
REMARK                         _______ _______ _______ _____ _____    ______ ____
ROOT
ATOM      1  N   UNL     1      -6.450   2.140 124.748  0.00  0.00    +0.000 N 
ATOM      2  C   UNL     1      -6.497   3.363 123.948  0.00  0.00    +0.000 C 
ATOM      3  C   UNL     1      -5.473   2.068 125.794  0.00  0.00    +0.000 C 
ATOM      4  O   UNL     1      -5.234   1.068 126.471  0.00  0.00    +0.000 OA
ATOM      5  N   UNL     1      -4.666   3.202 125.925  0.00  0.00    +0.000 N 
ATOM      6  C   UNL     1      -3.377   3.316 126.617  0.00  0.00    +0.000 C 
ATOM      7  C   UNL     1      -3.936   4.538 127.380  0.00  0.00    +0.000 C 
ATOM      8  C   UNL     1      -5.046   4.564 126.309  0.00  0.00    +0.000 C 
ENDROOT
BRANCH   1  12
ATOM      9  C   UNL     1      -8.961  -1.142 123.564  0.00  0.00    +0.000 A 
ATOM     10  C   UNL     1      -7.661  -1.092 123.096  0.00  0.00    +0.000 A 
ATOM     11  C   UNL     1      -6.823  -0.022 123.481  0.00  0.00    +0.000 A 
ATOM     12  C   UNL     1      -7.273   1.000 124.323  0.00  0.00    +0.000 A 
ATOM     13  C   UNL     1      -8.613   0.835 124.712  0.00  0.00    +0.000 A 
ATOM     14  N   UNL     1      -9.452  -0.184 124.360  0.00  0.00    +0.000 NA
BRANCH   9  16
ATOM     15  C   UNL     1      -9.561  -3.421 123.494  0.00  0.00    +0.000 C 
ATOM     16  O   UNL     1      -9.886  -2.072 123.182  0.00  0.00    +0.000 OA
ENDBRANCH   9  16
ENDBRANCH   1  12
BRANCH   7  17
ATOM     17  O   UNL     1      -4.292   4.300 128.771  0.00  0.00    +0.000 OA
BRANCH  17  18
ATOM     18  C   UNL     1      -3.972   5.280 129.686  0.00  0.00    +0.000 A 
ATOM     19  C   UNL     1      -2.657   5.736 129.794  0.00  0.00    +0.000 A 
ATOM     20  C   UNL     1      -2.344   6.808 130.629  0.00  0.00    +0.000 A 
ATOM     21  C   UNL     1      -3.354   7.442 131.340  0.00  0.00    +0.000 A 
ATOM     22  F   UNL     1      -3.048   8.487 132.120  0.00  0.00    +0.000 F 
ATOM     23  C   UNL     1      -4.672   7.018 131.241  0.00  0.00    +0.000 A 
ATOM     24  C   UNL     1      -4.983   5.933 130.412  0.00  0.00    +0.000 A 
ATOM     25 CL   UNL     1      -6.631   5.432 130.314  0.00  0.00    +0.000 Cl
ENDBRANCH  17  18
ENDBRANCH   7  17
TORSDOF 4
ENDMDL
