MODEL 1
REMARK VINA RESULT:      -6.5      0.000      0.000
REMARK  Name = CHEMBL491422
REMARK  11 active torsions:
REMARK  status: ('A' for Active; 'I' for Inactive)
REMARK    1  A    between atoms: C_1  and  C_2
REMARK    2  A    between atoms: C_2  and  O_3
REMARK    3  A    between atoms: O_3  and  C_4
REMARK    4  A    between atoms: C_7  and  C_8
REMARK    5  A    between atoms: C_11  and  C_12
REMARK    6  A    between atoms: C_12  and  O_13
REMARK    7  A    between atoms: O_13  and  C_14
REMARK    8  A    between atoms: N_15  and  C_16
REMARK    9  A    between atoms: C_19  and  O_20
REMARK   10  A    between atoms: O_20  and  C_21
REMARK   11  A    between atoms: C_25  and  C_26
REMARK                            x       y       z     vdW  Elec       q    Type
REMARK                         _______ _______ _______ _____ _____    ______ ____
ROOT
ATOM      1  C   UNL     1      -7.930  -2.717 125.986  0.00  0.00    +0.000 A 
ATOM      2  N   UNL     1      -8.190  -3.820 125.300  0.00  0.00    +0.000 NA
ATOM      3  N   UNL     1      -8.676  -3.464 124.055  0.00  0.00    +0.000 NA
ATOM      4  C   UNL     1      -8.687  -2.142 123.962  0.00  0.00    +0.000 A 
ATOM      5  N   UNL     1      -8.261  -1.634 125.182  0.00  0.00    +0.000 N 
ENDROOT
BRANCH   1   9
ATOM      6  C   UNL     1      -6.440  -2.574 130.061  0.00  0.00    +0.000 A 
ATOM      7  C   UNL     1      -7.815  -2.712 129.796  0.00  0.00    +0.000 A 
ATOM      8  C   UNL     1      -8.319  -2.717 128.476  0.00  0.00    +0.000 A 
ATOM      9  C   UNL     1      -7.455  -2.614 127.384  0.00  0.00    +0.000 A 
ATOM     10  C   UNL     1      -6.081  -2.499 127.659  0.00  0.00    +0.000 A 
ATOM     11  C   UNL     1      -5.557  -2.496 128.975  0.00  0.00    +0.000 A 
ATOM     12  C   UNL     1      -4.063  -2.458 129.116  0.00  0.00    +0.000 C 
BRANCH   6  13
ATOM     13  O   UNL     1      -6.080  -2.651 131.390  0.00  0.00    +0.000 OA
BRANCH  13  15
ATOM     14  C   UNL     1      -5.349  -4.947 131.752  0.00  0.00    +0.000 C 
ATOM     15  C   UNL     1      -6.385  -3.879 132.064  0.00  0.00    +0.000 C 
ENDBRANCH  13  15
ENDBRANCH   6  13
ENDBRANCH   1   9
BRANCH   5  16
ATOM     16  C   UNL     1      -8.025  -0.285 125.498  0.00  0.00    +0.000 A 
ATOM     17  C   UNL     1      -6.840   0.299 125.083  0.00  0.00    +0.000 A 
ATOM     18  C   UNL     1      -6.734   1.680 125.166  0.00  0.00    +0.000 A 
ATOM     19  C   UNL     1      -7.803   2.413 125.679  0.00  0.00    +0.000 A 
ATOM     20  N   UNL     1      -8.929   1.839 126.154  0.00  0.00    +0.000 NA
ATOM     21  C   UNL     1      -9.025   0.496 126.051  0.00  0.00    +0.000 A 
BRANCH  19  22
ATOM     22  O   UNL     1      -7.843   3.780 125.731  0.00  0.00    +0.000 OA
ATOM     23  C   UNL     1      -6.769   4.451 125.090  0.00  0.00    +0.000 C 
ENDBRANCH  19  22
ENDBRANCH   5  16
BRANCH   4  24
ATOM     24  C   UNL     1      -8.991  -1.354 122.704  0.00  0.00    +0.000 C 
BRANCH  24  25
ATOM     25  O   UNL     1     -10.221  -0.667 122.880  0.00  0.00    +0.000 OA
ATOM     26  C   UNL     1     -10.233   0.716 122.588  0.00  0.00    +0.000 C 
ENDBRANCH  24  25
ENDBRANCH   4  24
TORSDOF 7
ENDMDL
MODEL 2
REMARK VINA RESULT:      -6.4      6.524     10.302
REMARK  Name = CHEMBL491422
REMARK  11 active torsions:
REMARK  status: ('A' for Active; 'I' for Inactive)
REMARK    1  A    between atoms: C_1  and  C_2
REMARK    2  A    between atoms: C_2  and  O_3
REMARK    3  A    between atoms: O_3  and  C_4
REMARK    4  A    between atoms: C_7  and  C_8
REMARK    5  A    between atoms: C_11  and  C_12
REMARK    6  A    between atoms: C_12  and  O_13
REMARK    7  A    between atoms: O_13  and  C_14
REMARK    8  A    between atoms: N_15  and  C_16
REMARK    9  A    between atoms: C_19  and  O_20
REMARK   10  A    between atoms: O_20  and  C_21
REMARK   11  A    between atoms: C_25  and  C_26
REMARK                            x       y       z     vdW  Elec       q    Type
REMARK                         _______ _______ _______ _____ _____    ______ ____
ROOT
ATOM      1  C   UNL     1      -9.191   5.838 132.487  0.00  0.00    +0.000 A 
ATOM      2  N   UNL     1      -8.927   6.298 133.701  0.00  0.00    +0.000 NA
ATOM      3  N   UNL     1      -7.959   5.497 134.279  0.00  0.00    +0.000 NA
ATOM      4  C   UNL     1      -7.605   4.560 133.411  0.00  0.00    +0.000 A 
ATOM      5  N   UNL     1      -8.395   4.719 132.280  0.00  0.00    +0.000 N 
ENDROOT
BRANCH   1   9
ATOM      6  C   UNL     1     -12.101   7.491 129.721  0.00  0.00    +0.000 A 
ATOM      7  C   UNL     1     -12.508   6.758 130.851  0.00  0.00    +0.000 A 
ATOM      8  C   UNL     1     -11.573   6.178 131.736  0.00  0.00    +0.000 A 
ATOM      9  C   UNL     1     -10.201   6.341 131.530  0.00  0.00    +0.000 A 
ATOM     10  C   UNL     1      -9.804   7.094 130.411  0.00  0.00    +0.000 A 
ATOM     11  C   UNL     1     -10.728   7.686 129.515  0.00  0.00    +0.000 A 
ATOM     12  C   UNL     1     -10.162   8.537 128.415  0.00  0.00    +0.000 C 
BRANCH   6  13
ATOM     13  O   UNL     1     -13.116   8.056 128.981  0.00  0.00    +0.000 OA
BRANCH  13  15
ATOM     14  C   UNL     1     -12.932   6.981 126.802  0.00  0.00    +0.000 C 
ATOM     15  C   UNL     1     -13.779   7.196 128.045  0.00  0.00    +0.000 C 
ENDBRANCH  13  15
ENDBRANCH   6  13
ENDBRANCH   1   9
BRANCH   5  16
ATOM     16  C   UNL     1      -8.291   4.008 131.072  0.00  0.00    +0.000 A 
ATOM     17  C   UNL     1      -9.176   2.971 130.830  0.00  0.00    +0.000 A 
ATOM     18  C   UNL     1      -9.237   2.458 129.542  0.00  0.00    +0.000 A 
ATOM     19  C   UNL     1      -8.399   2.984 128.562  0.00  0.00    +0.000 A 
ATOM     20  N   UNL     1      -7.482   3.944 128.813  0.00  0.00    +0.000 NA
ATOM     21  C   UNL     1      -7.446   4.446 130.066  0.00  0.00    +0.000 A 
BRANCH  19  22
ATOM     22  O   UNL     1      -8.431   2.615 127.245  0.00  0.00    +0.000 OA
ATOM     23  C   UNL     1      -8.693   1.242 126.997  0.00  0.00    +0.000 C 
ENDBRANCH  19  22
ENDBRANCH   5  16
BRANCH   4  24
ATOM     24  C   UNL     1      -6.459   3.585 133.592  0.00  0.00    +0.000 C 
BRANCH  24  25
ATOM     25  O   UNL     1      -6.989   2.318 133.951  0.00  0.00    +0.000 OA
ATOM     26  C   UNL     1      -6.637   1.219 133.135  0.00  0.00    +0.000 C 
ENDBRANCH  24  25
ENDBRANCH   4  24
TORSDOF 7
ENDMDL
MODEL 3
REMARK VINA RESULT:      -6.4      3.040      6.715
REMARK  Name = CHEMBL491422
REMARK  11 active torsions:
REMARK  status: ('A' for Active; 'I' for Inactive)
REMARK    1  A    between atoms: C_1  and  C_2
REMARK    2  A    between atoms: C_2  and  O_3
REMARK    3  A    between atoms: O_3  and  C_4
REMARK    4  A    between atoms: C_7  and  C_8
REMARK    5  A    between atoms: C_11  and  C_12
REMARK    6  A    between atoms: C_12  and  O_13
REMARK    7  A    between atoms: O_13  and  C_14
REMARK    8  A    between atoms: N_15  and  C_16
REMARK    9  A    between atoms: C_19  and  O_20
REMARK   10  A    between atoms: O_20  and  C_21
REMARK   11  A    between atoms: C_25  and  C_26
REMARK                            x       y       z     vdW  Elec       q    Type
REMARK                         _______ _______ _______ _____ _____    ______ ____
ROOT
ATOM      1  C   UNL     1      -8.024   0.638 127.398  0.00  0.00    +0.000 A 
ATOM      2  N   UNL     1      -8.702   1.769 127.275  0.00  0.00    +0.000 NA
ATOM      3  N   UNL     1      -8.972   2.264 128.539  0.00  0.00    +0.000 NA
ATOM      4  C   UNL     1      -8.436   1.452 129.439  0.00  0.00    +0.000 A 
ATOM      5  N   UNL     1      -7.863   0.389 128.754  0.00  0.00    +0.000 N 
ENDROOT
BRANCH   1   9
ATOM      6  C   UNL     1      -6.735  -2.165 124.343  0.00  0.00    +0.000 A 
ATOM      7  C   UNL     1      -5.859  -1.187 124.847  0.00  0.00    +0.000 A 
ATOM      8  C   UNL     1      -6.276  -0.241 125.809  0.00  0.00    +0.000 A 
ATOM      9  C   UNL     1      -7.577  -0.268 126.316  0.00  0.00    +0.000 A 
ATOM     10  C   UNL     1      -8.440  -1.263 125.823  0.00  0.00    +0.000 A 
ATOM     11  C   UNL     1      -8.037  -2.222 124.861  0.00  0.00    +0.000 A 
ATOM     12  C   UNL     1      -9.036  -3.280 124.493  0.00  0.00    +0.000 C 
BRANCH   6  13
ATOM     13  O   UNL     1      -6.179  -3.064 123.458  0.00  0.00    +0.000 OA
BRANCH  13  15
ATOM     14  C   UNL     1      -4.332  -4.650 123.559  0.00  0.00    +0.000 C 
ATOM     15  C   UNL     1      -4.752  -3.191 123.490  0.00  0.00    +0.000 C 
ENDBRANCH  13  15
ENDBRANCH   6  13
ENDBRANCH   1   9
BRANCH   5  16
ATOM     16  C   UNL     1      -7.098  -0.655 129.303  0.00  0.00    +0.000 A 
ATOM     17  C   UNL     1      -7.685  -1.899 129.465  0.00  0.00    +0.000 A 
ATOM     18  C   UNL     1      -6.856  -2.973 129.754  0.00  0.00    +0.000 A 
ATOM     19  C   UNL     1      -5.487  -2.757 129.892  0.00  0.00    +0.000 A 
ATOM     20  N   UNL     1      -4.922  -1.532 129.810  0.00  0.00    +0.000 NA
ATOM     21  C   UNL     1      -5.738  -0.498 129.511  0.00  0.00    +0.000 A 
BRANCH  19  22
ATOM     22  O   UNL     1      -4.568  -3.750 130.094  0.00  0.00    +0.000 OA
ATOM     23  C   UNL     1      -3.414  -3.698 129.271  0.00  0.00    +0.000 C 
ENDBRANCH  19  22
ENDBRANCH   5  16
BRANCH   4  24
ATOM     24  C   UNL     1      -8.364   1.721 130.929  0.00  0.00    +0.000 C 
BRANCH  24  25
ATOM     25  O   UNL     1      -7.680   2.948 131.139  0.00  0.00    +0.000 OA
ATOM     26  C   UNL     1      -6.278   2.943 130.959  0.00  0.00    +0.000 C 
ENDBRANCH  24  25
ENDBRANCH   4  24
TORSDOF 7
ENDMDL
MODEL 4
REMARK VINA RESULT:      -6.3      6.525      9.041
REMARK  Name = CHEMBL491422
REMARK  11 active torsions:
REMARK  status: ('A' for Active; 'I' for Inactive)
REMARK    1  A    between atoms: C_1  and  C_2
REMARK    2  A    between atoms: C_2  and  O_3
REMARK    3  A    between atoms: O_3  and  C_4
REMARK    4  A    between atoms: C_7  and  C_8
REMARK    5  A    between atoms: C_11  and  C_12
REMARK    6  A    between atoms: C_12  and  O_13
REMARK    7  A    between atoms: O_13  and  C_14
REMARK    8  A    between atoms: N_15  and  C_16
REMARK    9  A    between atoms: C_19  and  O_20
REMARK   10  A    between atoms: O_20  and  C_21
REMARK   11  A    between atoms: C_25  and  C_26
REMARK                            x       y       z     vdW  Elec       q    Type
REMARK                         _______ _______ _______ _____ _____    ______ ____
ROOT
ATOM      1  C   UNL     1      -7.669   6.327 130.760  0.00  0.00    +0.000 A 
ATOM      2  N   UNL     1      -8.084   7.513 130.342  0.00  0.00    +0.000 NA
ATOM      3  N   UNL     1      -9.410   7.411 129.964  0.00  0.00    +0.000 NA
ATOM      4  C   UNL     1      -9.822   6.169 130.176  0.00  0.00    +0.000 A 
ATOM      5  N   UNL     1      -8.733   5.443 130.641  0.00  0.00    +0.000 N 
ENDROOT
BRANCH   1   9
ATOM      6  C   UNL     1      -3.710   5.044 132.000  0.00  0.00    +0.000 A 
ATOM      7  C   UNL     1      -4.632   5.557 132.931  0.00  0.00    +0.000 A 
ATOM      8  C   UNL     1      -5.907   6.018 132.537  0.00  0.00    +0.000 A 
ATOM      9  C   UNL     1      -6.307   5.950 131.200  0.00  0.00    +0.000 A 
ATOM     10  C   UNL     1      -5.387   5.416 130.280  0.00  0.00    +0.000 A 
ATOM     11  C   UNL     1      -4.106   4.945 130.658  0.00  0.00    +0.000 A 
ATOM     12  C   UNL     1      -3.264   4.318 129.585  0.00  0.00    +0.000 C 
BRANCH   6  13
ATOM     13  O   UNL     1      -2.530   4.570 132.530  0.00  0.00    +0.000 OA
BRANCH  13  15
ATOM     14  C   UNL     1      -0.921   6.320 131.993  0.00  0.00    +0.000 C 
ATOM     15  C   UNL     1      -1.642   5.547 133.087  0.00  0.00    +0.000 C 
ENDBRANCH  13  15
ENDBRANCH   6  13
ENDBRANCH   1   9
BRANCH   5  16
ATOM     16  C   UNL     1      -8.737   4.111 131.090  0.00  0.00    +0.000 A 
ATOM     17  C   UNL     1      -9.094   3.850 132.402  0.00  0.00    +0.000 A 
ATOM     18  C   UNL     1      -9.349   2.532 132.755  0.00  0.00    +0.000 A 
ATOM     19  C   UNL     1      -9.215   1.534 131.792  0.00  0.00    +0.000 A 
ATOM     20  N   UNL     1      -8.795   1.777 130.532  0.00  0.00    +0.000 NA
ATOM     21  C   UNL     1      -8.567   3.065 130.198  0.00  0.00    +0.000 A 
BRANCH  19  22
ATOM     22  O   UNL     1      -9.520   0.217 132.004  0.00  0.00    +0.000 OA
ATOM     23  C   UNL     1      -8.415  -0.672 132.038  0.00  0.00    +0.000 C 
ENDBRANCH  19  22
ENDBRANCH   5  16
BRANCH   4  24
ATOM     24  C   UNL     1     -11.252   5.686 130.050  0.00  0.00    +0.000 C 
BRANCH  24  25
ATOM     25  O   UNL     1     -11.754   6.070 128.779  0.00  0.00    +0.000 OA
ATOM     26  C   UNL     1     -12.978   6.777 128.756  0.00  0.00    +0.000 C 
ENDBRANCH  24  25
ENDBRANCH   4  24
TORSDOF 7
ENDMDL
MODEL 5
REMARK VINA RESULT:      -6.2      3.423      5.552
REMARK  Name = CHEMBL491422
REMARK  11 active torsions:
REMARK  status: ('A' for Active; 'I' for Inactive)
REMARK    1  A    between atoms: C_1  and  C_2
REMARK    2  A    between atoms: C_2  and  O_3
REMARK    3  A    between atoms: O_3  and  C_4
REMARK    4  A    between atoms: C_7  and  C_8
REMARK    5  A    between atoms: C_11  and  C_12
REMARK    6  A    between atoms: C_12  and  O_13
REMARK    7  A    between atoms: O_13  and  C_14
REMARK    8  A    between atoms: N_15  and  C_16
REMARK    9  A    between atoms: C_19  and  O_20
REMARK   10  A    between atoms: O_20  and  C_21
REMARK   11  A    between atoms: C_25  and  C_26
REMARK                            x       y       z     vdW  Elec       q    Type
REMARK                         _______ _______ _______ _____ _____    ______ ____
ROOT
ATOM      1  C   UNL     1      -5.691  -0.182 128.002  0.00  0.00    +0.000 A 
ATOM      2  N   UNL     1      -4.971  -0.401 129.092  0.00  0.00    +0.000 NA
ATOM      3  N   UNL     1      -4.526   0.814 129.582  0.00  0.00    +0.000 NA
ATOM      4  C   UNL     1      -4.996   1.784 128.811  0.00  0.00    +0.000 A 
ATOM      5  N   UNL     1      -5.704   1.188 127.775  0.00  0.00    +0.000 N 
ENDROOT
BRANCH   1   9
ATOM      6  C   UNL     1      -7.504  -3.010 125.252  0.00  0.00    +0.000 A 
ATOM      7  C   UNL     1      -8.212  -2.527 126.368  0.00  0.00    +0.000 A 
ATOM      8  C   UNL     1      -7.621  -1.639 127.295  0.00  0.00    +0.000 A 
ATOM      9  C   UNL     1      -6.312  -1.188 127.113  0.00  0.00    +0.000 A 
ATOM     10  C   UNL     1      -5.620  -1.660 125.983  0.00  0.00    +0.000 A 
ATOM     11  C   UNL     1      -6.198  -2.546 125.042  0.00  0.00    +0.000 A 
ATOM     12  C   UNL     1      -5.374  -2.895 123.837  0.00  0.00    +0.000 C 
BRANCH   6  13
ATOM     13  O   UNL     1      -8.223  -3.816 124.396  0.00  0.00    +0.000 OA
BRANCH  13  15
ATOM     14  C   UNL     1      -9.012  -2.109 122.847  0.00  0.00    +0.000 C 
ATOM     15  C   UNL     1      -9.388  -3.234 123.797  0.00  0.00    +0.000 C 
ENDBRANCH  13  15
ENDBRANCH   6  13
ENDBRANCH   1   9
BRANCH   5  16
ATOM     16  C   UNL     1      -6.455   1.840 126.782  0.00  0.00    +0.000 A 
ATOM     17  C   UNL     1      -5.899   2.003 125.524  0.00  0.00    +0.000 A 
ATOM     18  C   UNL     1      -6.736   2.403 124.493  0.00  0.00    +0.000 A 
ATOM     19  C   UNL     1      -8.081   2.644 124.765  0.00  0.00    +0.000 A 
ATOM     20  N   UNL     1      -8.609   2.559 126.005  0.00  0.00    +0.000 NA
ATOM     21  C   UNL     1      -7.787   2.152 126.996  0.00  0.00    +0.000 A 
BRANCH  19  22
ATOM     22  O   UNL     1      -9.012   2.961 123.814  0.00  0.00    +0.000 OA
ATOM     23  C   UNL     1      -8.629   2.712 122.470  0.00  0.00    +0.000 C 
ENDBRANCH  19  22
ENDBRANCH   5  16
BRANCH   4  24
ATOM     24  C   UNL     1      -4.877   3.267 129.098  0.00  0.00    +0.000 C 
BRANCH  24  25
ATOM     25  O   UNL     1      -3.907   3.826 128.225  0.00  0.00    +0.000 OA
ATOM     26  C   UNL     1      -4.300   4.946 127.457  0.00  0.00    +0.000 C 
ENDBRANCH  24  25
ENDBRANCH   4  24
TORSDOF 7
ENDMDL
MODEL 6
REMARK VINA RESULT:      -6.2      1.888      2.350
REMARK  Name = CHEMBL491422
REMARK  11 active torsions:
REMARK  status: ('A' for Active; 'I' for Inactive)
REMARK    1  A    between atoms: C_1  and  C_2
REMARK    2  A    between atoms: C_2  and  O_3
REMARK    3  A    between atoms: O_3  and  C_4
REMARK    4  A    between atoms: C_7  and  C_8
REMARK    5  A    between atoms: C_11  and  C_12
REMARK    6  A    between atoms: C_12  and  O_13
REMARK    7  A    between atoms: O_13  and  C_14
REMARK    8  A    between atoms: N_15  and  C_16
REMARK    9  A    between atoms: C_19  and  O_20
REMARK   10  A    between atoms: O_20  and  C_21
REMARK   11  A    between atoms: C_25  and  C_26
REMARK                            x       y       z     vdW  Elec       q    Type
REMARK                         _______ _______ _______ _____ _____    ______ ____
ROOT
ATOM      1  C   UNL     1      -8.374  -2.612 127.454  0.00  0.00    +0.000 A 
ATOM      2  N   UNL     1      -9.219  -3.486 126.929  0.00  0.00    +0.000 NA
ATOM      3  N   UNL     1      -9.564  -3.061 125.658  0.00  0.00    +0.000 NA
ATOM      4  C   UNL     1      -8.909  -1.941 125.389  0.00  0.00    +0.000 A 
ATOM      5  N   UNL     1      -8.178  -1.603 126.520  0.00  0.00    +0.000 N 
ENDROOT
BRANCH   1   9
ATOM      6  C   UNL     1      -6.751  -2.813 131.476  0.00  0.00    +0.000 A 
ATOM      7  C   UNL     1      -7.617  -1.772 131.094  0.00  0.00    +0.000 A 
ATOM      8  C   UNL     1      -8.119  -1.669 129.777  0.00  0.00    +0.000 A 
ATOM      9  C   UNL     1      -7.790  -2.625 128.814  0.00  0.00    +0.000 A 
ATOM     10  C   UNL     1      -6.942  -3.674 129.211  0.00  0.00    +0.000 A 
ATOM     11  C   UNL     1      -6.433  -3.795 130.527  0.00  0.00    +0.000 A 
ATOM     12  C   UNL     1      -5.612  -5.014 130.833  0.00  0.00    +0.000 C 
BRANCH   6  13
ATOM     13  O   UNL     1      -6.391  -2.829 132.806  0.00  0.00    +0.000 OA
BRANCH  13  15
ATOM     14  C   UNL     1      -8.196  -3.621 134.238  0.00  0.00    +0.000 C 
ATOM     15  C   UNL     1      -7.396  -2.426 133.745  0.00  0.00    +0.000 C 
ENDBRANCH  13  15
ENDBRANCH   6  13
ENDBRANCH   1   9
BRANCH   5  16
ATOM     16  C   UNL     1      -7.260  -0.546 126.646  0.00  0.00    +0.000 A 
ATOM     17  C   UNL     1      -5.940  -0.761 126.285  0.00  0.00    +0.000 A 
ATOM     18  C   UNL     1      -5.113   0.346 126.163  0.00  0.00    +0.000 A 
ATOM     19  C   UNL     1      -5.630   1.612 126.427  0.00  0.00    +0.000 A 
ATOM     20  N   UNL     1      -6.896   1.818 126.852  0.00  0.00    +0.000 NA
ATOM     21  C   UNL     1      -7.695   0.733 126.950  0.00  0.00    +0.000 A 
BRANCH  19  22
ATOM     22  O   UNL     1      -4.933   2.777 126.259  0.00  0.00    +0.000 OA
ATOM     23  C   UNL     1      -3.551   2.719 126.575  0.00  0.00    +0.000 C 
ENDBRANCH  19  22
ENDBRANCH   5  16
BRANCH   4  24
ATOM     24  C   UNL     1      -8.881  -1.244 124.043  0.00  0.00    +0.000 C 
BRANCH  24  25
ATOM     25  O   UNL     1      -8.223  -2.084 123.107  0.00  0.00    +0.000 OA
ATOM     26  C   UNL     1      -6.867  -1.799 122.826  0.00  0.00    +0.000 C 
ENDBRANCH  24  25
ENDBRANCH   4  24
TORSDOF 7
ENDMDL
MODEL 7
REMARK VINA RESULT:      -6.1      3.878      7.554
REMARK  Name = CHEMBL491422
REMARK  11 active torsions:
REMARK  status: ('A' for Active; 'I' for Inactive)
REMARK    1  A    between atoms: C_1  and  C_2
REMARK    2  A    between atoms: C_2  and  O_3
REMARK    3  A    between atoms: O_3  and  C_4
REMARK    4  A    between atoms: C_7  and  C_8
REMARK    5  A    between atoms: C_11  and  C_12
REMARK    6  A    between atoms: C_12  and  O_13
REMARK    7  A    between atoms: O_13  and  C_14
REMARK    8  A    between atoms: N_15  and  C_16
REMARK    9  A    between atoms: C_19  and  O_20
REMARK   10  A    between atoms: O_20  and  C_21
REMARK   11  A    between atoms: C_25  and  C_26
REMARK                            x       y       z     vdW  Elec       q    Type
REMARK                         _______ _______ _______ _____ _____    ______ ____
ROOT
ATOM      1  C   UNL     1      -4.858  -2.709 129.669  0.00  0.00    +0.000 A 
ATOM      2  N   UNL     1      -3.792  -3.495 129.635  0.00  0.00    +0.000 NA
ATOM      3  N   UNL     1      -3.038  -3.269 130.773  0.00  0.00    +0.000 NA
ATOM      4  C   UNL     1      -3.654  -2.366 131.522  0.00  0.00    +0.000 A 
ATOM      5  N   UNL     1      -4.789  -1.958 130.834  0.00  0.00    +0.000 N 
ENDROOT
BRANCH   1   9
ATOM      6  C   UNL     1      -7.925  -2.475 126.605  0.00  0.00    +0.000 A 
ATOM      7  C   UNL     1      -6.695  -1.811 126.452  0.00  0.00    +0.000 A 
ATOM      8  C   UNL     1      -5.704  -1.842 127.458  0.00  0.00    +0.000 A 
ATOM      9  C   UNL     1      -5.907  -2.566 128.635  0.00  0.00    +0.000 A 
ATOM     10  C   UNL     1      -7.132  -3.245 128.770  0.00  0.00    +0.000 A 
ATOM     11  C   UNL     1      -8.134  -3.228 127.769  0.00  0.00    +0.000 A 
ATOM     12  C   UNL     1      -9.353  -4.071 128.009  0.00  0.00    +0.000 C 
BRANCH   6  13
ATOM     13  O   UNL     1      -8.772  -2.415 125.519  0.00  0.00    +0.000 OA
BRANCH  13  15
ATOM     14  C   UNL     1      -9.618  -3.375 123.445  0.00  0.00    +0.000 C 
ATOM     15  C   UNL     1      -8.447  -3.259 124.408  0.00  0.00    +0.000 C 
ENDBRANCH  13  15
ENDBRANCH   6  13
ENDBRANCH   1   9
BRANCH   5  16
ATOM     16  C   UNL     1      -5.790  -1.087 131.300  0.00  0.00    +0.000 A 
ATOM     17  C   UNL     1      -6.817  -1.604 132.072  0.00  0.00    +0.000 A 
ATOM     18  C   UNL     1      -7.641  -0.708 132.739  0.00  0.00    +0.000 A 
ATOM     19  C   UNL     1      -7.418   0.659 132.589  0.00  0.00    +0.000 A 
ATOM     20  N   UNL     1      -6.465   1.166 131.777  0.00  0.00    +0.000 NA
ATOM     21  C   UNL     1      -5.660   0.283 131.148  0.00  0.00    +0.000 A 
BRANCH  19  22
ATOM     22  O   UNL     1      -8.111   1.629 133.261  0.00  0.00    +0.000 OA
ATOM     23  C   UNL     1      -9.130   2.283 132.519  0.00  0.00    +0.000 C 
ENDBRANCH  19  22
ENDBRANCH   5  16
BRANCH   4  24
ATOM     24  C   UNL     1      -3.244  -1.963 132.924  0.00  0.00    +0.000 C 
BRANCH  24  25
ATOM     25  O   UNL     1      -1.832  -1.817 132.963  0.00  0.00    +0.000 OA
ATOM     26  C   UNL     1      -1.254  -1.482 134.209  0.00  0.00    +0.000 C 
ENDBRANCH  24  25
ENDBRANCH   4  24
TORSDOF 7
ENDMDL
MODEL 8
REMARK VINA RESULT:      -6.1      5.350      7.201
REMARK  Name = CHEMBL491422
REMARK  11 active torsions:
REMARK  status: ('A' for Active; 'I' for Inactive)
REMARK    1  A    between atoms: C_1  and  C_2
REMARK    2  A    between atoms: C_2  and  O_3
REMARK    3  A    between atoms: O_3  and  C_4
REMARK    4  A    between atoms: C_7  and  C_8
REMARK    5  A    between atoms: C_11  and  C_12
REMARK    6  A    between atoms: C_12  and  O_13
REMARK    7  A    between atoms: O_13  and  C_14
REMARK    8  A    between atoms: N_15  and  C_16
REMARK    9  A    between atoms: C_19  and  O_20
REMARK   10  A    between atoms: O_20  and  C_21
REMARK   11  A    between atoms: C_25  and  C_26
REMARK                            x       y       z     vdW  Elec       q    Type
REMARK                         _______ _______ _______ _____ _____    ______ ____
ROOT
ATOM      1  C   UNL     1      -9.934   3.878 130.457  0.00  0.00    +0.000 A 
ATOM      2  N   UNL     1     -11.229   3.851 130.182  0.00  0.00    +0.000 NA
ATOM      3  N   UNL     1     -11.631   5.120 129.805  0.00  0.00    +0.000 NA
ATOM      4  C   UNL     1     -10.577   5.923 129.820  0.00  0.00    +0.000 A 
ATOM      5  N   UNL     1      -9.492   5.181 130.269  0.00  0.00    +0.000 N 
ENDROOT
BRANCH   1   9
ATOM      6  C   UNL     1      -7.604   0.501 131.877  0.00  0.00    +0.000 A 
ATOM      7  C   UNL     1      -8.056   1.495 132.764  0.00  0.00    +0.000 A 
ATOM      8  C   UNL     1      -8.778   2.622 132.311  0.00  0.00    +0.000 A 
ATOM      9  C   UNL     1      -9.094   2.768 130.959  0.00  0.00    +0.000 A 
ATOM     10  C   UNL     1      -8.657   1.758 130.082  0.00  0.00    +0.000 A 
ATOM     11  C   UNL     1      -7.936   0.620 130.520  0.00  0.00    +0.000 A 
ATOM     12  C   UNL     1      -7.612  -0.421 129.488  0.00  0.00    +0.000 C 
BRANCH   6  13
ATOM     13  O   UNL     1      -6.970  -0.574 132.461  0.00  0.00    +0.000 OA
BRANCH  13  15
ATOM     14  C   UNL     1      -7.366  -2.974 132.322  0.00  0.00    +0.000 C 
ATOM     15  C   UNL     1      -7.809  -1.644 132.911  0.00  0.00    +0.000 C 
ENDBRANCH  13  15
ENDBRANCH   6  13
ENDBRANCH   1   9
BRANCH   5  16
ATOM     16  C   UNL     1      -8.154   5.604 130.344  0.00  0.00    +0.000 A 
ATOM     17  C   UNL     1      -7.755   6.364 131.431  0.00  0.00    +0.000 A 
ATOM     18  C   UNL     1      -6.394   6.548 131.628  0.00  0.00    +0.000 A 
ATOM     19  C   UNL     1      -5.495   5.987 130.724  0.00  0.00    +0.000 A 
ATOM     20  N   UNL     1      -5.884   5.310 129.622  0.00  0.00    +0.000 NA
ATOM     21  C   UNL     1      -7.210   5.123 129.452  0.00  0.00    +0.000 A 
BRANCH  19  22
ATOM     22  O   UNL     1      -4.135   6.033 130.864  0.00  0.00    +0.000 OA
ATOM     23  C   UNL     1      -3.436   6.747 129.855  0.00  0.00    +0.000 C 
ENDBRANCH  19  22
ENDBRANCH   5  16
BRANCH   4  24
ATOM     24  C   UNL     1     -10.556   7.351 129.314  0.00  0.00    +0.000 C 
BRANCH  24  25
ATOM     25  O   UNL     1     -10.038   7.361 127.993  0.00  0.00    +0.000 OA
ATOM     26  C   UNL     1     -10.924   7.732 126.955  0.00  0.00    +0.000 C 
ENDBRANCH  24  25
ENDBRANCH   4  24
TORSDOF 7
ENDMDL
MODEL 9
REMARK VINA RESULT:      -6.1      2.883      5.245
REMARK  Name = CHEMBL491422
REMARK  11 active torsions:
REMARK  status: ('A' for Active; 'I' for Inactive)
REMARK    1  A    between atoms: C_1  and  C_2
REMARK    2  A    between atoms: C_2  and  O_3
REMARK    3  A    between atoms: O_3  and  C_4
REMARK    4  A    between atoms: C_7  and  C_8
REMARK    5  A    between atoms: C_11  and  C_12
REMARK    6  A    between atoms: C_12  and  O_13
REMARK    7  A    between atoms: O_13  and  C_14
REMARK    8  A    between atoms: N_15  and  C_16
REMARK    9  A    between atoms: C_19  and  O_20
REMARK   10  A    between atoms: O_20  and  C_21
REMARK   11  A    between atoms: C_25  and  C_26
REMARK                            x       y       z     vdW  Elec       q    Type
REMARK                         _______ _______ _______ _____ _____    ______ ____
ROOT
ATOM      1  C   UNL     1      -6.164   2.801 125.124  0.00  0.00    +0.000 A 
ATOM      2  N   UNL     1      -5.561   3.969 124.970  0.00  0.00    +0.000 NA
ATOM      3  N   UNL     1      -5.645   4.341 123.641  0.00  0.00    +0.000 NA
ATOM      4  C   UNL     1      -6.326   3.416 122.980  0.00  0.00    +0.000 A 
ATOM      5  N   UNL     1      -6.635   2.404 123.879  0.00  0.00    +0.000 N 
ENDROOT
BRANCH   1   9
ATOM      6  C   UNL     1      -6.453   0.589 128.849  0.00  0.00    +0.000 A 
ATOM      7  C   UNL     1      -5.357   0.415 127.985  0.00  0.00    +0.000 A 
ATOM      8  C   UNL     1      -5.270   1.095 126.749  0.00  0.00    +0.000 A 
ATOM      9  C   UNL     1      -6.266   1.992 126.359  0.00  0.00    +0.000 A 
ATOM     10  C   UNL     1      -7.347   2.176 127.240  0.00  0.00    +0.000 A 
ATOM     11  C   UNL     1      -7.448   1.506 128.484  0.00  0.00    +0.000 A 
ATOM     12  C   UNL     1      -8.612   1.867 129.361  0.00  0.00    +0.000 C 
BRANCH   6  13
ATOM     13  O   UNL     1      -6.377  -0.086 130.048  0.00  0.00    +0.000 OA
BRANCH  13  15
ATOM     14  C   UNL     1      -7.775  -2.044 129.660  0.00  0.00    +0.000 C 
ATOM     15  C   UNL     1      -6.385  -1.517 129.978  0.00  0.00    +0.000 C 
ENDBRANCH  13  15
ENDBRANCH   6  13
ENDBRANCH   1   9
BRANCH   5  16
ATOM     16  C   UNL     1      -7.434   1.273 123.635  0.00  0.00    +0.000 A 
ATOM     17  C   UNL     1      -6.816   0.070 123.339  0.00  0.00    +0.000 A 
ATOM     18  C   UNL     1      -7.591  -1.080 123.362  0.00  0.00    +0.000 A 
ATOM     19  C   UNL     1      -8.949  -0.978 123.657  0.00  0.00    +0.000 A 
ATOM     20  N   UNL     1      -9.570   0.203 123.872  0.00  0.00    +0.000 NA
ATOM     21  C   UNL     1      -8.800   1.312 123.863  0.00  0.00    +0.000 A 
BRANCH  19  22
ATOM     22  O   UNL     1      -9.789  -2.049 123.789  0.00  0.00    +0.000 OA
ATOM     23  C   UNL     1      -9.313  -3.275 123.254  0.00  0.00    +0.000 C 
ENDBRANCH  19  22
ENDBRANCH   5  16
BRANCH   4  24
ATOM     24  C   UNL     1      -6.782   3.524 121.539  0.00  0.00    +0.000 C 
BRANCH  24  25
ATOM     25  O   UNL     1      -5.640   3.665 120.708  0.00  0.00    +0.000 OA
ATOM     26  C   UNL     1      -5.493   4.889 120.016  0.00  0.00    +0.000 C 
ENDBRANCH  24  25
ENDBRANCH   4  24
TORSDOF 7
ENDMDL
