MODEL 1
REMARK VINA RESULT:      -9.7      0.000      0.000
REMARK  Name = CHEMBL1779235
REMARK  11 active torsions:
REMARK  status: ('A' for Active; 'I' for Inactive)
REMARK    1  A    between atoms: C_1  and  O_2
REMARK    2  A    between atoms: O_2  and  C_3
REMARK    3  A    between atoms: C_9  and  C_10
REMARK    4  A    between atoms: C_10  and  C_11
REMARK    5  A    between atoms: C_20  and  C_21
REMARK    6  A    between atoms: N_22  and  S_23
REMARK    7  A    between atoms: S_23  and  C_26
REMARK    8  A    between atoms: C_29  and  O_30
REMARK    9  A    between atoms: O_30  and  C_31
REMARK   10  A    between atoms: C_32  and  C_33
REMARK   11  A    between atoms: C_34  and  C_35
REMARK                            x       y       z     vdW  Elec       q    Type
REMARK                         _______ _______ _______ _____ _____    ______ ____
ROOT
ATOM      1  C   UNL     1      -6.194  -2.330 123.875  0.00  0.00    +0.000 A 
ATOM      2  C   UNL     1      -6.978  -1.713 122.924  0.00  0.00    +0.000 A 
ATOM      3  C   UNL     1      -7.394  -0.405 123.120  0.00  0.00    +0.000 A 
ATOM      4  C   UNL     1      -7.175   0.251 124.349  0.00  0.00    +0.000 A 
ATOM      5  C   UNL     1      -6.440  -0.382 125.369  0.00  0.00    +0.000 A 
ATOM      6  C   UNL     1      -5.936  -1.691 125.101  0.00  0.00    +0.000 A 
ATOM      7  C   UNL     1      -6.345   0.536 126.511  0.00  0.00    +0.000 A 
ATOM      8  C   UNL     1      -7.119   1.644 126.156  0.00  0.00    +0.000 A 
ATOM      9  C   UNL     1      -7.479   2.921 126.822  0.00  0.00    +0.000 C 
ATOM     10  N   UNL     1      -7.615   1.453 124.878  0.00  0.00    +0.000 N 
ENDROOT
BRANCH  10  11
ATOM     11  S   UNL     1      -8.663   2.654 124.155  0.00  0.00    +0.000 S 
ATOM     12  O   UNL     1      -9.935   1.988 123.926  0.00  0.00    +0.000 OA
ATOM     13  O   UNL     1      -8.574   3.793 125.051  0.00  0.00    +0.000 OA
BRANCH  11  14
ATOM     14  C   UNL     1      -8.055   3.123 122.572  0.00  0.00    +0.000 A 
ATOM     15  C   UNL     1      -8.942   3.161 121.495  0.00  0.00    +0.000 A 
ATOM     16  C   UNL     1      -8.541   3.795 120.319  0.00  0.00    +0.000 A 
ATOM     17  C   UNL     1      -7.192   4.141 120.099  0.00  0.00    +0.000 A 
ATOM     18  C   UNL     1      -6.260   3.966 121.145  0.00  0.00    +0.000 A 
ATOM     19  C   UNL     1      -4.784   4.236 121.089  0.00  0.00    +0.000 C 
ATOM     20  C   UNL     1      -6.713   3.521 122.421  0.00  0.00    +0.000 A 
ATOM     21  C   UNL     1      -5.782   3.594 123.624  0.00  0.00    +0.000 C 
BRANCH  17  22
ATOM     22  O   UNL     1      -6.972   4.605 118.824  0.00  0.00    +0.000 OA
ATOM     23  C   UNL     1      -6.087   5.699 118.653  0.00  0.00    +0.000 C 
ENDBRANCH  17  22
ENDBRANCH  11  14
ENDBRANCH  10  11
BRANCH   1  25
ATOM     24  C   UNL     1      -4.241  -3.548 123.500  0.00  0.00    +0.000 C 
ATOM     25  O   UNL     1      -5.664  -3.579 123.670  0.00  0.00    +0.000 OA
ENDBRANCH   1  25
BRANCH   7  26
ATOM     26  C   UNL     1      -5.521   0.239 127.782  0.00  0.00    +0.000 C 
BRANCH  26  27
ATOM     27  C   UNL     1      -6.052  -0.807 128.807  0.00  0.00    +0.000 C 
ATOM     28  O   UNL     1      -6.557  -0.594 129.878  0.00  0.00    +0.000 OA
ATOM     29  N   UNL     1      -5.955  -2.154 128.523  0.00  0.00    +0.000 N 
ATOM     30  C   UNL     1      -4.642  -2.759 128.506  0.00  0.00    +0.000 C 
ATOM     31  C   UNL     1      -3.917  -2.942 129.851  0.00  0.00    +0.000 C 
ATOM     32  C   UNL     1      -4.595  -3.717 130.983  0.00  0.00    +0.000 C 
ATOM     33  N   UNL     1      -5.781  -4.482 130.621  0.00  0.00    +0.000 NA
ATOM     34  C   UNL     1      -6.926  -3.570 130.481  0.00  0.00    +0.000 C 
ATOM     35  C   UNL     1      -7.054  -2.978 129.063  0.00  0.00    +0.000 C 
ATOM     36  H   UNL     1      -5.986  -5.128 131.385  0.00  0.00    +0.000 HD
ENDBRANCH  26  27
ENDBRANCH   7  26
TORSDOF 6
ENDMDL
MODEL 2
REMARK VINA RESULT:      -9.6      3.232      6.937
REMARK  Name = CHEMBL1779235
REMARK  11 active torsions:
REMARK  status: ('A' for Active; 'I' for Inactive)
REMARK    1  A    between atoms: C_1  and  O_2
REMARK    2  A    between atoms: O_2  and  C_3
REMARK    3  A    between atoms: C_9  and  C_10
REMARK    4  A    between atoms: C_10  and  C_11
REMARK    5  A    between atoms: C_20  and  C_21
REMARK    6  A    between atoms: N_22  and  S_23
REMARK    7  A    between atoms: S_23  and  C_26
REMARK    8  A    between atoms: C_29  and  O_30
REMARK    9  A    between atoms: O_30  and  C_31
REMARK   10  A    between atoms: C_32  and  C_33
REMARK   11  A    between atoms: C_34  and  C_35
REMARK                            x       y       z     vdW  Elec       q    Type
REMARK                         _______ _______ _______ _____ _____    ______ ____
ROOT
ATOM      1  C   UNL     1      -5.591   4.638 121.097  0.00  0.00    +0.000 A 
ATOM      2  C   UNL     1      -6.656   3.851 120.712  0.00  0.00    +0.000 A 
ATOM      3  C   UNL     1      -7.330   3.096 121.659  0.00  0.00    +0.000 A 
ATOM      4  C   UNL     1      -6.844   2.983 122.979  0.00  0.00    +0.000 A 
ATOM      5  C   UNL     1      -5.713   3.718 123.383  0.00  0.00    +0.000 A 
ATOM      6  C   UNL     1      -5.100   4.568 122.413  0.00  0.00    +0.000 A 
ATOM      7  C   UNL     1      -5.456   3.431 124.800  0.00  0.00    +0.000 A 
ATOM      8  C   UNL     1      -6.390   2.454 125.152  0.00  0.00    +0.000 A 
ATOM      9  C   UNL     1      -6.692   1.700 126.395  0.00  0.00    +0.000 C 
ATOM     10  N   UNL     1      -7.196   2.189 124.058  0.00  0.00    +0.000 N 
ENDROOT
BRANCH  10  11
ATOM     11  S   UNL     1      -8.449   0.972 124.165  0.00  0.00    +0.000 S 
ATOM     12  O   UNL     1      -9.008   1.092 125.502  0.00  0.00    +0.000 OA
ATOM     13  O   UNL     1      -9.275   1.204 122.994  0.00  0.00    +0.000 OA
BRANCH  11  14
ATOM     14  C   UNL     1      -7.749  -0.638 124.061  0.00  0.00    +0.000 A 
ATOM     15  C   UNL     1      -6.609  -0.827 123.277  0.00  0.00    +0.000 A 
ATOM     16  C   UNL     1      -5.892  -2.016 123.413  0.00  0.00    +0.000 A 
ATOM     17  C   UNL     1      -6.436  -3.122 124.097  0.00  0.00    +0.000 A 
ATOM     18  C   UNL     1      -7.667  -2.974 124.772  0.00  0.00    +0.000 A 
ATOM     19  C   UNL     1      -8.419  -4.040 125.515  0.00  0.00    +0.000 C 
ATOM     20  C   UNL     1      -8.294  -1.695 124.815  0.00  0.00    +0.000 A 
ATOM     21  C   UNL     1      -9.462  -1.455 125.761  0.00  0.00    +0.000 C 
BRANCH  17  22
ATOM     22  O   UNL     1      -5.650  -4.245 123.983  0.00  0.00    +0.000 OA
ATOM     23  C   UNL     1      -4.320  -4.086 123.519  0.00  0.00    +0.000 C 
ENDBRANCH  17  22
ENDBRANCH  11  14
ENDBRANCH  10  11
BRANCH   1  25
ATOM     24  C   UNL     1      -5.764   5.740 119.049  0.00  0.00    +0.000 C 
ATOM     25  O   UNL     1      -4.972   5.489 120.217  0.00  0.00    +0.000 OA
ENDBRANCH   1  25
BRANCH   7  26
ATOM     26  C   UNL     1      -4.361   4.135 125.630  0.00  0.00    +0.000 C 
BRANCH  26  27
ATOM     27  C   UNL     1      -4.635   4.470 127.126  0.00  0.00    +0.000 C 
ATOM     28  O   UNL     1      -5.572   5.072 127.583  0.00  0.00    +0.000 OA
ATOM     29  N   UNL     1      -3.737   4.068 128.094  0.00  0.00    +0.000 N 
ATOM     30  C   UNL     1      -2.442   4.707 128.134  0.00  0.00    +0.000 C 
ATOM     31  C   UNL     1      -2.374   6.168 128.611  0.00  0.00    +0.000 C 
ATOM     32  C   UNL     1      -2.945   6.551 129.979  0.00  0.00    +0.000 C 
ATOM     33  N   UNL     1      -3.269   5.447 130.874  0.00  0.00    +0.000 NA
ATOM     34  C   UNL     1      -4.536   4.832 130.451  0.00  0.00    +0.000 C 
ATOM     35  C   UNL     1      -4.345   3.726 129.394  0.00  0.00    +0.000 C 
ATOM     36  H   UNL     1      -3.403   5.830 131.811  0.00  0.00    +0.000 HD
ENDBRANCH  26  27
ENDBRANCH   7  26
TORSDOF 6
ENDMDL
MODEL 3
REMARK VINA RESULT:      -9.5      1.827      2.287
REMARK  Name = CHEMBL1779235
REMARK  11 active torsions:
REMARK  status: ('A' for Active; 'I' for Inactive)
REMARK    1  A    between atoms: C_1  and  O_2
REMARK    2  A    between atoms: O_2  and  C_3
REMARK    3  A    between atoms: C_9  and  C_10
REMARK    4  A    between atoms: C_10  and  C_11
REMARK    5  A    between atoms: C_20  and  C_21
REMARK    6  A    between atoms: N_22  and  S_23
REMARK    7  A    between atoms: S_23  and  C_26
REMARK    8  A    between atoms: C_29  and  O_30
REMARK    9  A    between atoms: O_30  and  C_31
REMARK   10  A    between atoms: C_32  and  C_33
REMARK   11  A    between atoms: C_34  and  C_35
REMARK                            x       y       z     vdW  Elec       q    Type
REMARK                         _______ _______ _______ _____ _____    ______ ____
ROOT
ATOM      1  C   UNL     1      -5.410  -2.791 123.482  0.00  0.00    +0.000 A 
ATOM      2  C   UNL     1      -6.169  -1.908 122.744  0.00  0.00    +0.000 A 
ATOM      3  C   UNL     1      -6.826  -0.867 123.382  0.00  0.00    +0.000 A 
ATOM      4  C   UNL     1      -6.874  -0.793 124.790  0.00  0.00    +0.000 A 
ATOM      5  C   UNL     1      -6.170  -1.726 125.574  0.00  0.00    +0.000 A 
ATOM      6  C   UNL     1      -5.417  -2.727 124.887  0.00  0.00    +0.000 A 
ATOM      7  C   UNL     1      -6.375  -1.392 126.989  0.00  0.00    +0.000 A 
ATOM      8  C   UNL     1      -7.281  -0.328 126.988  0.00  0.00    +0.000 A 
ATOM      9  C   UNL     1      -7.935   0.485 128.043  0.00  0.00    +0.000 C 
ATOM     10  N   UNL     1      -7.577   0.005 125.677  0.00  0.00    +0.000 N 
ENDROOT
BRANCH  10  11
ATOM     11  S   UNL     1      -8.723   1.284 125.335  0.00  0.00    +0.000 S 
ATOM     12  O   UNL     1     -10.011   0.631 125.169  0.00  0.00    +0.000 OA
ATOM     13  O   UNL     1      -8.514   2.247 126.401  0.00  0.00    +0.000 OA
BRANCH  11  14
ATOM     14  C   UNL     1      -8.348   2.046 123.795  0.00  0.00    +0.000 A 
ATOM     15  C   UNL     1      -9.292   1.988 122.768  0.00  0.00    +0.000 A 
ATOM     16  C   UNL     1      -9.127   2.819 121.659  0.00  0.00    +0.000 A 
ATOM     17  C   UNL     1      -7.910   3.491 121.426  0.00  0.00    +0.000 A 
ATOM     18  C   UNL     1      -6.894   3.431 122.403  0.00  0.00    +0.000 A 
ATOM     19  C   UNL     1      -5.526   4.042 122.317  0.00  0.00    +0.000 C 
ATOM     20  C   UNL     1      -7.145   2.760 123.635  0.00  0.00    +0.000 A 
ATOM     21  C   UNL     1      -6.176   2.921 124.798  0.00  0.00    +0.000 C 
BRANCH  17  22
ATOM     22  O   UNL     1      -7.891   4.126 120.206  0.00  0.00    +0.000 OA
ATOM     23  C   UNL     1      -9.096   4.185 119.462  0.00  0.00    +0.000 C 
ENDBRANCH  17  22
ENDBRANCH  11  14
ENDBRANCH  10  11
BRANCH   1  25
ATOM     24  C   UNL     1      -4.230  -4.777 123.802  0.00  0.00    +0.000 C 
ATOM     25  O   UNL     1      -4.650  -3.762 122.881  0.00  0.00    +0.000 OA
ENDBRANCH   1  25
BRANCH   7  26
ATOM     26  C   UNL     1      -5.672  -2.125 128.151  0.00  0.00    +0.000 C 
BRANCH  26  27
ATOM     27  C   UNL     1      -6.475  -2.448 129.446  0.00  0.00    +0.000 C 
ATOM     28  O   UNL     1      -7.587  -2.901 129.526  0.00  0.00    +0.000 OA
ATOM     29  N   UNL     1      -5.910  -2.202 130.681  0.00  0.00    +0.000 N 
ATOM     30  C   UNL     1      -5.712  -0.828 131.084  0.00  0.00    +0.000 C 
ATOM     31  C   UNL     1      -6.956   0.006 131.435  0.00  0.00    +0.000 C 
ATOM     32  C   UNL     1      -7.927  -0.489 132.509  0.00  0.00    +0.000 C 
ATOM     33  N   UNL     1      -7.462  -1.593 133.340  0.00  0.00    +0.000 NA
ATOM     34  C   UNL     1      -7.565  -2.850 132.585  0.00  0.00    +0.000 C 
ATOM     35  C   UNL     1      -6.310  -3.148 131.741  0.00  0.00    +0.000 C 
ATOM     36  H   UNL     1      -8.081  -1.661 134.150  0.00  0.00    +0.000 HD
ENDBRANCH  26  27
ENDBRANCH   7  26
TORSDOF 6
ENDMDL
MODEL 4
REMARK VINA RESULT:      -9.2      1.894      2.993
REMARK  Name = CHEMBL1779235
REMARK  11 active torsions:
REMARK  status: ('A' for Active; 'I' for Inactive)
REMARK    1  A    between atoms: C_1  and  O_2
REMARK    2  A    between atoms: O_2  and  C_3
REMARK    3  A    between atoms: C_9  and  C_10
REMARK    4  A    between atoms: C_10  and  C_11
REMARK    5  A    between atoms: C_20  and  C_21
REMARK    6  A    between atoms: N_22  and  S_23
REMARK    7  A    between atoms: S_23  and  C_26
REMARK    8  A    between atoms: C_29  and  O_30
REMARK    9  A    between atoms: O_30  and  C_31
REMARK   10  A    between atoms: C_32  and  C_33
REMARK   11  A    between atoms: C_34  and  C_35
REMARK                            x       y       z     vdW  Elec       q    Type
REMARK                         _______ _______ _______ _____ _____    ______ ____
ROOT
ATOM      1  C   UNL     1      -6.264  -2.542 124.608  0.00  0.00    +0.000 A 
ATOM      2  C   UNL     1      -6.052  -1.257 124.159  0.00  0.00    +0.000 A 
ATOM      3  C   UNL     1      -6.234  -0.188 125.023  0.00  0.00    +0.000 A 
ATOM      4  C   UNL     1      -6.796  -0.376 126.303  0.00  0.00    +0.000 A 
ATOM      5  C   UNL     1      -7.094  -1.673 126.763  0.00  0.00    +0.000 A 
ATOM      6  C   UNL     1      -6.800  -2.764 125.889  0.00  0.00    +0.000 A 
ATOM      7  C   UNL     1      -7.636  -1.570 128.124  0.00  0.00    +0.000 A 
ATOM      8  C   UNL     1      -7.731  -0.200 128.378  0.00  0.00    +0.000 A 
ATOM      9  C   UNL     1      -8.201   0.618 129.525  0.00  0.00    +0.000 C 
ATOM     10  N   UNL     1      -7.243   0.494 127.284  0.00  0.00    +0.000 N 
ENDROOT
BRANCH  10  11
ATOM     11  S   UNL     1      -7.263   2.244 127.274  0.00  0.00    +0.000 S 
ATOM     12  O   UNL     1      -8.611   2.629 127.660  0.00  0.00    +0.000 OA
ATOM     13  O   UNL     1      -6.124   2.621 128.091  0.00  0.00    +0.000 OA
BRANCH  11  14
ATOM     14  C   UNL     1      -7.021   2.850 125.641  0.00  0.00    +0.000 A 
ATOM     15  C   UNL     1      -5.829   3.511 125.338  0.00  0.00    +0.000 A 
ATOM     16  C   UNL     1      -5.511   3.738 123.999  0.00  0.00    +0.000 A 
ATOM     17  C   UNL     1      -6.474   3.575 122.982  0.00  0.00    +0.000 A 
ATOM     18  C   UNL     1      -7.737   3.040 123.312  0.00  0.00    +0.000 A 
ATOM     19  C   UNL     1      -8.897   2.832 122.382  0.00  0.00    +0.000 C 
ATOM     20  C   UNL     1      -7.987   2.604 124.646  0.00  0.00    +0.000 A 
ATOM     21  C   UNL     1      -9.228   1.778 124.954  0.00  0.00    +0.000 C 
BRANCH  17  22
ATOM     22  O   UNL     1      -6.016   4.001 121.757  0.00  0.00    +0.000 OA
ATOM     23  C   UNL     1      -4.743   4.622 121.696  0.00  0.00    +0.000 C 
ENDBRANCH  17  22
ENDBRANCH  11  14
ENDBRANCH  10  11
BRANCH   1  25
ATOM     24  C   UNL     1      -4.596  -3.989 123.859  0.00  0.00    +0.000 C 
ATOM     25  O   UNL     1      -5.984  -3.632 123.824  0.00  0.00    +0.000 OA
ENDBRANCH   1  25
BRANCH   7  26
ATOM     26  C   UNL     1      -7.979  -2.792 129.003  0.00  0.00    +0.000 C 
BRANCH  26  27
ATOM     27  C   UNL     1      -7.063  -3.142 130.213  0.00  0.00    +0.000 C 
ATOM     28  O   UNL     1      -7.251  -2.887 131.374  0.00  0.00    +0.000 OA
ATOM     29  N   UNL     1      -5.875  -3.813 130.001  0.00  0.00    +0.000 N 
ATOM     30  C   UNL     1      -4.805  -3.117 129.325  0.00  0.00    +0.000 C 
ATOM     31  C   UNL     1      -4.086  -1.989 130.085  0.00  0.00    +0.000 C 
ATOM     32  C   UNL     1      -3.450  -2.273 131.448  0.00  0.00    +0.000 C 
ATOM     33  N   UNL     1      -3.320  -3.677 131.819  0.00  0.00    +0.000 NA
ATOM     34  C   UNL     1      -4.628  -4.190 132.256  0.00  0.00    +0.000 C 
ATOM     35  C   UNL     1      -5.482  -4.727 131.091  0.00  0.00    +0.000 C 
ATOM     36  H   UNL     1      -2.679  -3.736 132.611  0.00  0.00    +0.000 HD
ENDBRANCH  26  27
ENDBRANCH   7  26
TORSDOF 6
ENDMDL
MODEL 5
REMARK VINA RESULT:      -9.1      5.430      9.550
REMARK  Name = CHEMBL1779235
REMARK  11 active torsions:
REMARK  status: ('A' for Active; 'I' for Inactive)
REMARK    1  A    between atoms: C_1  and  O_2
REMARK    2  A    between atoms: O_2  and  C_3
REMARK    3  A    between atoms: C_9  and  C_10
REMARK    4  A    between atoms: C_10  and  C_11
REMARK    5  A    between atoms: C_20  and  C_21
REMARK    6  A    between atoms: N_22  and  S_23
REMARK    7  A    between atoms: S_23  and  C_26
REMARK    8  A    between atoms: C_29  and  O_30
REMARK    9  A    between atoms: O_30  and  C_31
REMARK   10  A    between atoms: C_32  and  C_33
REMARK   11  A    between atoms: C_34  and  C_35
REMARK                            x       y       z     vdW  Elec       q    Type
REMARK                         _______ _______ _______ _____ _____    ______ ____
ROOT
ATOM      1  C   UNL     1     -10.232   6.935 130.114  0.00  0.00    +0.000 A 
ATOM      2  C   UNL     1     -10.985   5.784 130.204  0.00  0.00    +0.000 A 
ATOM      3  C   UNL     1     -10.476   4.679 130.869  0.00  0.00    +0.000 A 
ATOM      4  C   UNL     1      -9.136   4.650 131.308  0.00  0.00    +0.000 A 
ATOM      5  C   UNL     1      -8.317   5.786 131.163  0.00  0.00    +0.000 A 
ATOM      6  C   UNL     1      -8.901   6.945 130.566  0.00  0.00    +0.000 A 
ATOM      7  C   UNL     1      -6.997   5.481 131.728  0.00  0.00    +0.000 A 
ATOM      8  C   UNL     1      -7.056   4.135 132.096  0.00  0.00    +0.000 A 
ATOM      9  C   UNL     1      -6.098   3.176 132.702  0.00  0.00    +0.000 C 
ATOM     10  N   UNL     1      -8.326   3.653 131.827  0.00  0.00    +0.000 N 
ENDROOT
BRANCH  10  11
ATOM     11  S   UNL     1      -8.712   1.975 132.141  0.00  0.00    +0.000 S 
ATOM     12  O   UNL     1      -7.842   1.563 133.231  0.00  0.00    +0.000 OA
ATOM     13  O   UNL     1     -10.155   1.962 132.300  0.00  0.00    +0.000 OA
BRANCH  11  14
ATOM     14  C   UNL     1      -8.281   0.979 130.756  0.00  0.00    +0.000 A 
ATOM     15  C   UNL     1      -8.024   1.601 129.534  0.00  0.00    +0.000 A 
ATOM     16  C   UNL     1      -7.414   0.861 128.521  0.00  0.00    +0.000 A 
ATOM     17  C   UNL     1      -7.313  -0.543 128.602  0.00  0.00    +0.000 A 
ATOM     18  C   UNL     1      -7.712  -1.192 129.790  0.00  0.00    +0.000 A 
ATOM     19  C   UNL     1      -7.718  -2.671 130.049  0.00  0.00    +0.000 C 
ATOM     20  C   UNL     1      -8.132  -0.413 130.908  0.00  0.00    +0.000 A 
ATOM     21  C   UNL     1      -8.296  -1.070 132.271  0.00  0.00    +0.000 C 
BRANCH  17  22
ATOM     22  O   UNL     1      -6.831  -1.100 127.441  0.00  0.00    +0.000 OA
ATOM     23  C   UNL     1      -7.742  -1.330 126.380  0.00  0.00    +0.000 C 
ENDBRANCH  17  22
ENDBRANCH  11  14
ENDBRANCH  10  11
BRANCH   1  25
ATOM     24  C   UNL     1     -10.492   8.182 128.161  0.00  0.00    +0.000 C 
ATOM     25  O   UNL     1     -10.742   8.086 129.569  0.00  0.00    +0.000 OA
ENDBRANCH   1  25
BRANCH   7  26
ATOM     26  C   UNL     1      -5.859   6.518 131.852  0.00  0.00    +0.000 C 
BRANCH  26  27
ATOM     27  C   UNL     1      -4.910   6.756 130.640  0.00  0.00    +0.000 C 
ATOM     28  O   UNL     1      -5.049   7.547 129.744  0.00  0.00    +0.000 OA
ATOM     29  N   UNL     1      -3.762   6.001 130.511  0.00  0.00    +0.000 N 
ATOM     30  C   UNL     1      -3.896   4.597 130.198  0.00  0.00    +0.000 C 
ATOM     31  C   UNL     1      -4.361   4.217 128.781  0.00  0.00    +0.000 C 
ATOM     32  C   UNL     1      -3.589   4.729 127.562  0.00  0.00    +0.000 C 
ATOM     33  N   UNL     1      -2.284   5.320 127.828  0.00  0.00    +0.000 NA
ATOM     34  C   UNL     1      -2.463   6.680 128.359  0.00  0.00    +0.000 C 
ATOM     35  C   UNL     1      -2.626   6.710 129.891  0.00  0.00    +0.000 C 
ATOM     36  H   UNL     1      -1.784   5.393 126.940  0.00  0.00    +0.000 HD
ENDBRANCH  26  27
ENDBRANCH   7  26
TORSDOF 6
ENDMDL
MODEL 6
REMARK VINA RESULT:      -9.0      5.341      9.955
REMARK  Name = CHEMBL1779235
REMARK  11 active torsions:
REMARK  status: ('A' for Active; 'I' for Inactive)
REMARK    1  A    between atoms: C_1  and  O_2
REMARK    2  A    between atoms: O_2  and  C_3
REMARK    3  A    between atoms: C_9  and  C_10
REMARK    4  A    between atoms: C_10  and  C_11
REMARK    5  A    between atoms: C_20  and  C_21
REMARK    6  A    between atoms: N_22  and  S_23
REMARK    7  A    between atoms: S_23  and  C_26
REMARK    8  A    between atoms: C_29  and  O_30
REMARK    9  A    between atoms: O_30  and  C_31
REMARK   10  A    between atoms: C_32  and  C_33
REMARK   11  A    between atoms: C_34  and  C_35
REMARK                            x       y       z     vdW  Elec       q    Type
REMARK                         _______ _______ _______ _____ _____    ______ ____
ROOT
ATOM      1  C   UNL     1      -5.418   6.548 130.748  0.00  0.00    +0.000 A 
ATOM      2  C   UNL     1      -4.673   5.389 130.739  0.00  0.00    +0.000 A 
ATOM      3  C   UNL     1      -5.307   4.163 130.871  0.00  0.00    +0.000 A 
ATOM      4  C   UNL     1      -6.680   4.085 131.186  0.00  0.00    +0.000 A 
ATOM      5  C   UNL     1      -7.454   5.258 131.276  0.00  0.00    +0.000 A 
ATOM      6  C   UNL     1      -6.794   6.502 131.033  0.00  0.00    +0.000 A 
ATOM      7  C   UNL     1      -8.838   4.877 131.584  0.00  0.00    +0.000 A 
ATOM      8  C   UNL     1      -8.807   3.492 131.765  0.00  0.00    +0.000 A 
ATOM      9  C   UNL     1      -9.819   2.462 132.108  0.00  0.00    +0.000 C 
ATOM     10  N   UNL     1      -7.518   3.041 131.540  0.00  0.00    +0.000 N 
ENDROOT
BRANCH  10  11
ATOM     11  S   UNL     1      -7.138   1.342 131.728  0.00  0.00    +0.000 S 
ATOM     12  O   UNL     1      -5.691   1.269 131.850  0.00  0.00    +0.000 OA
ATOM     13  O   UNL     1      -7.996   0.901 132.812  0.00  0.00    +0.000 OA
BRANCH  11  14
ATOM     14  C   UNL     1      -7.559   0.456 130.268  0.00  0.00    +0.000 A 
ATOM     15  C   UNL     1      -7.809   1.170 129.095  0.00  0.00    +0.000 A 
ATOM     16  C   UNL     1      -7.862   0.475 127.886  0.00  0.00    +0.000 A 
ATOM     17  C   UNL     1      -7.951  -0.931 127.856  0.00  0.00    +0.000 A 
ATOM     18  C   UNL     1      -7.844  -1.652 129.065  0.00  0.00    +0.000 A 
ATOM     19  C   UNL     1      -7.955  -3.139 129.238  0.00  0.00    +0.000 C 
ATOM     20  C   UNL     1      -7.571  -0.953 130.277  0.00  0.00    +0.000 A 
ATOM     21  C   UNL     1      -7.180  -1.727 131.527  0.00  0.00    +0.000 C 
BRANCH  17  22
ATOM     22  O   UNL     1      -8.157  -1.414 126.585  0.00  0.00    +0.000 OA
ATOM     23  C   UNL     1      -8.737  -0.547 125.625  0.00  0.00    +0.000 C 
ENDBRANCH  17  22
ENDBRANCH  11  14
ENDBRANCH  10  11
BRANCH   1  25
ATOM     24  C   UNL     1      -3.909   7.729 129.420  0.00  0.00    +0.000 C 
ATOM     25  O   UNL     1      -4.847   7.771 130.503  0.00  0.00    +0.000 OA
ENDBRANCH   1  25
BRANCH   7  26
ATOM     26  C   UNL     1     -10.007   5.884 131.654  0.00  0.00    +0.000 C 
BRANCH  26  27
ATOM     27  C   UNL     1     -11.085   5.878 130.531  0.00  0.00    +0.000 C 
ATOM     28  O   UNL     1     -11.519   4.927 129.934  0.00  0.00    +0.000 OA
ATOM     29  N   UNL     1     -11.646   7.069 130.113  0.00  0.00    +0.000 N 
ATOM     30  C   UNL     1     -10.815   7.999 129.383  0.00  0.00    +0.000 C 
ATOM     31  C   UNL     1     -10.413   7.630 127.945  0.00  0.00    +0.000 C 
ATOM     32  C   UNL     1     -11.494   7.310 126.910  0.00  0.00    +0.000 C 
ATOM     33  N   UNL     1     -12.862   7.651 127.279  0.00  0.00    +0.000 NA
ATOM     34  C   UNL     1     -13.380   6.644 128.218  0.00  0.00    +0.000 C 
ATOM     35  C   UNL     1     -13.056   6.970 129.689  0.00  0.00    +0.000 C 
ATOM     36  H   UNL     1     -13.435   7.617 126.434  0.00  0.00    +0.000 HD
ENDBRANCH  26  27
ENDBRANCH   7  26
TORSDOF 6
ENDMDL
MODEL 7
REMARK VINA RESULT:      -8.8      4.911      9.070
REMARK  Name = CHEMBL1779235
REMARK  11 active torsions:
REMARK  status: ('A' for Active; 'I' for Inactive)
REMARK    1  A    between atoms: C_1  and  O_2
REMARK    2  A    between atoms: O_2  and  C_3
REMARK    3  A    between atoms: C_9  and  C_10
REMARK    4  A    between atoms: C_10  and  C_11
REMARK    5  A    between atoms: C_20  and  C_21
REMARK    6  A    between atoms: N_22  and  S_23
REMARK    7  A    between atoms: S_23  and  C_26
REMARK    8  A    between atoms: C_29  and  O_30
REMARK    9  A    between atoms: O_30  and  C_31
REMARK   10  A    between atoms: C_32  and  C_33
REMARK   11  A    between atoms: C_34  and  C_35
REMARK                            x       y       z     vdW  Elec       q    Type
REMARK                         _______ _______ _______ _____ _____    ______ ____
ROOT
ATOM      1  C   UNL     1      -4.319   5.560 129.870  0.00  0.00    +0.000 A 
ATOM      2  C   UNL     1      -3.813   4.341 129.470  0.00  0.00    +0.000 A 
ATOM      3  C   UNL     1      -4.649   3.238 129.406  0.00  0.00    +0.000 A 
ATOM      4  C   UNL     1      -5.968   3.296 129.903  0.00  0.00    +0.000 A 
ATOM      5  C   UNL     1      -6.490   4.510 130.387  0.00  0.00    +0.000 A 
ATOM      6  C   UNL     1      -5.638   5.655 130.346  0.00  0.00    +0.000 A 
ATOM      7  C   UNL     1      -7.879   4.283 130.808  0.00  0.00    +0.000 A 
ATOM      8  C   UNL     1      -8.091   2.911 130.648  0.00  0.00    +0.000 A 
ATOM      9  C   UNL     1      -9.236   1.998 130.891  0.00  0.00    +0.000 C 
ATOM     10  N   UNL     1      -6.944   2.339 130.125  0.00  0.00    +0.000 N 
ENDROOT
BRANCH  10  11
ATOM     11  S   UNL     1      -6.876   0.612 129.844  0.00  0.00    +0.000 S 
ATOM     12  O   UNL     1      -5.475   0.303 129.607  0.00  0.00    +0.000 OA
ATOM     13  O   UNL     1      -7.579   0.036 130.975  0.00  0.00    +0.000 OA
BRANCH  11  14
ATOM     14  C   UNL     1      -7.734   0.198 128.366  0.00  0.00    +0.000 A 
ATOM     15  C   UNL     1      -8.270   1.226 127.588  0.00  0.00    +0.000 A 
ATOM     16  C   UNL     1      -8.696   0.933 126.292  0.00  0.00    +0.000 A 
ATOM     17  C   UNL     1      -8.857  -0.399 125.860  0.00  0.00    +0.000 A 
ATOM     18  C   UNL     1      -8.448  -1.450 126.709  0.00  0.00    +0.000 A 
ATOM     19  C   UNL     1      -8.577  -2.922 126.444  0.00  0.00    +0.000 C 
ATOM     20  C   UNL     1      -7.811  -1.144 127.947  0.00  0.00    +0.000 A 
ATOM     21  C   UNL     1      -7.120  -2.247 128.736  0.00  0.00    +0.000 C 
BRANCH  17  22
ATOM     22  O   UNL     1      -9.436  -0.478 124.615  0.00  0.00    +0.000 OA
ATOM     23  C   UNL     1      -9.297   0.630 123.741  0.00  0.00    +0.000 C 
ENDBRANCH  17  22
ENDBRANCH  11  14
ENDBRANCH  10  11
BRANCH   1  25
ATOM     24  C   UNL     1      -4.315   7.875 130.151  0.00  0.00    +0.000 C 
ATOM     25  O   UNL     1      -3.556   6.700 129.836  0.00  0.00    +0.000 OA
ENDBRANCH   1  25
BRANCH   7  26
ATOM     26  C   UNL     1      -8.820   5.406 131.294  0.00  0.00    +0.000 C 
BRANCH  26  27
ATOM     27  C   UNL     1      -9.279   6.504 130.290  0.00  0.00    +0.000 C 
ATOM     28  O   UNL     1      -8.807   7.601 130.136  0.00  0.00    +0.000 OA
ATOM     29  N   UNL     1     -10.351   6.264 129.456  0.00  0.00    +0.000 N 
ATOM     30  C   UNL     1     -11.669   6.174 130.041  0.00  0.00    +0.000 C 
ATOM     31  C   UNL     1     -12.311   7.468 130.571  0.00  0.00    +0.000 C 
ATOM     32  C   UNL     1     -12.472   8.675 129.642  0.00  0.00    +0.000 C 
ATOM     33  N   UNL     1     -12.260   8.428 128.221  0.00  0.00    +0.000 NA
ATOM     34  C   UNL     1     -10.817   8.337 127.951  0.00  0.00    +0.000 C 
ATOM     35  C   UNL     1     -10.260   6.912 128.133  0.00  0.00    +0.000 C 
ATOM     36  H   UNL     1     -12.627   9.228 127.704  0.00  0.00    +0.000 HD
ENDBRANCH  26  27
ENDBRANCH   7  26
TORSDOF 6
ENDMDL
MODEL 8
REMARK VINA RESULT:      -8.6      4.132      7.067
REMARK  Name = CHEMBL1779235
REMARK  11 active torsions:
REMARK  status: ('A' for Active; 'I' for Inactive)
REMARK    1  A    between atoms: C_1  and  O_2
REMARK    2  A    between atoms: O_2  and  C_3
REMARK    3  A    between atoms: C_9  and  C_10
REMARK    4  A    between atoms: C_10  and  C_11
REMARK    5  A    between atoms: C_20  and  C_21
REMARK    6  A    between atoms: N_22  and  S_23
REMARK    7  A    between atoms: S_23  and  C_26
REMARK    8  A    between atoms: C_29  and  O_30
REMARK    9  A    between atoms: O_30  and  C_31
REMARK   10  A    between atoms: C_32  and  C_33
REMARK   11  A    between atoms: C_34  and  C_35
REMARK                            x       y       z     vdW  Elec       q    Type
REMARK                         _______ _______ _______ _____ _____    ______ ____
ROOT
ATOM      1  C   UNL     1      -5.851   3.888 123.234  0.00  0.00    +0.000 A 
ATOM      2  C   UNL     1      -6.770   2.862 123.294  0.00  0.00    +0.000 A 
ATOM      3  C   UNL     1      -7.031   2.243 124.506  0.00  0.00    +0.000 A 
ATOM      4  C   UNL     1      -6.252   2.524 125.648  0.00  0.00    +0.000 A 
ATOM      5  C   UNL     1      -5.253   3.515 125.599  0.00  0.00    +0.000 A 
ATOM      6  C   UNL     1      -5.076   4.209 124.363  0.00  0.00    +0.000 A 
ATOM      7  C   UNL     1      -4.630   3.612 126.925  0.00  0.00    +0.000 A 
ATOM      8  C   UNL     1      -5.220   2.598 127.683  0.00  0.00    +0.000 A 
ATOM      9  C   UNL     1      -5.062   2.112 129.077  0.00  0.00    +0.000 C 
ATOM     10  N   UNL     1      -6.169   1.954 126.907  0.00  0.00    +0.000 N 
ENDROOT
BRANCH  10  11
ATOM     11  S   UNL     1      -7.062   0.598 127.562  0.00  0.00    +0.000 S 
ATOM     12  O   UNL     1      -6.164  -0.056 128.500  0.00  0.00    +0.000 OA
ATOM     13  O   UNL     1      -8.313   1.178 128.016  0.00  0.00    +0.000 OA
BRANCH  11  14
ATOM     14  C   UNL     1      -7.403  -0.577 126.298  0.00  0.00    +0.000 A 
ATOM     15  C   UNL     1      -8.734  -0.862 125.985  0.00  0.00    +0.000 A 
ATOM     16  C   UNL     1      -9.010  -1.565 124.812  0.00  0.00    +0.000 A 
ATOM     17  C   UNL     1      -7.989  -2.225 124.098  0.00  0.00    +0.000 A 
ATOM     18  C   UNL     1      -6.648  -2.054 124.504  0.00  0.00    +0.000 A 
ATOM     19  C   UNL     1      -5.436  -2.702 123.899  0.00  0.00    +0.000 C 
ATOM     20  C   UNL     1      -6.346  -1.159 125.572  0.00  0.00    +0.000 A 
ATOM     21  C   UNL     1      -4.904  -0.752 125.836  0.00  0.00    +0.000 C 
BRANCH  17  22
ATOM     22  O   UNL     1      -8.483  -2.991 123.069  0.00  0.00    +0.000 OA
ATOM     23  C   UNL     1      -9.768  -3.570 123.222  0.00  0.00    +0.000 C 
ENDBRANCH  17  22
ENDBRANCH  11  14
ENDBRANCH  10  11
BRANCH   1  25
ATOM     24  C   UNL     1      -5.404   3.761 120.949  0.00  0.00    +0.000 C 
ATOM     25  O   UNL     1      -5.648   4.604 122.082  0.00  0.00    +0.000 OA
ENDBRANCH   1  25
BRANCH   7  26
ATOM     26  C   UNL     1      -3.564   4.666 127.293  0.00  0.00    +0.000 C 
BRANCH  26  27
ATOM     27  C   UNL     1      -3.911   5.768 128.337  0.00  0.00    +0.000 C 
ATOM     28  O   UNL     1      -4.056   6.947 128.140  0.00  0.00    +0.000 OA
ATOM     29  N   UNL     1      -4.076   5.427 129.664  0.00  0.00    +0.000 N 
ATOM     30  C   UNL     1      -2.914   5.008 130.414  0.00  0.00    +0.000 C 
ATOM     31  C   UNL     1      -1.865   6.074 130.772  0.00  0.00    +0.000 C 
ATOM     32  C   UNL     1      -2.285   7.331 131.538  0.00  0.00    +0.000 C 
ATOM     33  N   UNL     1      -3.615   7.308 132.134  0.00  0.00    +0.000 NA
ATOM     34  C   UNL     1      -4.623   7.538 131.087  0.00  0.00    +0.000 C 
ATOM     35  C   UNL     1      -5.072   6.239 130.390  0.00  0.00    +0.000 C 
ATOM     36  H   UNL     1      -3.675   8.079 132.802  0.00  0.00    +0.000 HD
ENDBRANCH  26  27
ENDBRANCH   7  26
TORSDOF 6
ENDMDL
MODEL 9
REMARK VINA RESULT:      -8.6      2.858      7.107
REMARK  Name = CHEMBL1779235
REMARK  11 active torsions:
REMARK  status: ('A' for Active; 'I' for Inactive)
REMARK    1  A    between atoms: C_1  and  O_2
REMARK    2  A    between atoms: O_2  and  C_3
REMARK    3  A    between atoms: C_9  and  C_10
REMARK    4  A    between atoms: C_10  and  C_11
REMARK    5  A    between atoms: C_20  and  C_21
REMARK    6  A    between atoms: N_22  and  S_23
REMARK    7  A    between atoms: S_23  and  C_26
REMARK    8  A    between atoms: C_29  and  O_30
REMARK    9  A    between atoms: O_30  and  C_31
REMARK   10  A    between atoms: C_32  and  C_33
REMARK   11  A    between atoms: C_34  and  C_35
REMARK                            x       y       z     vdW  Elec       q    Type
REMARK                         _______ _______ _______ _____ _____    ______ ____
ROOT
ATOM      1  C   UNL     1      -5.533   4.073 122.015  0.00  0.00    +0.000 A 
ATOM      2  C   UNL     1      -5.719   2.849 121.408  0.00  0.00    +0.000 A 
ATOM      3  C   UNL     1      -6.536   1.903 122.006  0.00  0.00    +0.000 A 
ATOM      4  C   UNL     1      -7.046   2.101 123.307  0.00  0.00    +0.000 A 
ATOM      5  C   UNL     1      -6.810   3.313 123.984  0.00  0.00    +0.000 A 
ATOM      6  C   UNL     1      -6.050   4.311 123.301  0.00  0.00    +0.000 A 
ATOM      7  C   UNL     1      -7.476   3.251 125.291  0.00  0.00    +0.000 A 
ATOM      8  C   UNL     1      -7.998   1.958 125.377  0.00  0.00    +0.000 A 
ATOM      9  C   UNL     1      -8.763   1.208 126.404  0.00  0.00    +0.000 C 
ATOM     10  N   UNL     1      -7.722   1.285 124.199  0.00  0.00    +0.000 N 
ENDROOT
BRANCH  10  11
ATOM     11  S   UNL     1      -8.213  -0.384 124.007  0.00  0.00    +0.000 S 
ATOM     12  O   UNL     1      -9.648  -0.354 123.774  0.00  0.00    +0.000 OA
ATOM     13  O   UNL     1      -7.311  -0.909 122.998  0.00  0.00    +0.000 OA
BRANCH  11  14
ATOM     14  C   UNL     1      -7.970  -1.270 125.507  0.00  0.00    +0.000 A 
ATOM     15  C   UNL     1      -9.048  -1.963 126.061  0.00  0.00    +0.000 A 
ATOM     16  C   UNL     1      -8.799  -2.886 127.078  0.00  0.00    +0.000 A 
ATOM     17  C   UNL     1      -7.554  -2.926 127.739  0.00  0.00    +0.000 A 
ATOM     18  C   UNL     1      -6.501  -2.113 127.268  0.00  0.00    +0.000 A 
ATOM     19  C   UNL     1      -5.127  -1.988 127.860  0.00  0.00    +0.000 C 
ATOM     20  C   UNL     1      -6.691  -1.330 126.092  0.00  0.00    +0.000 A 
ATOM     21  C   UNL     1      -5.495  -0.672 125.417  0.00  0.00    +0.000 C 
BRANCH  17  22
ATOM     22  O   UNL     1      -7.560  -3.786 128.811  0.00  0.00    +0.000 OA
ATOM     23  C   UNL     1      -7.748  -3.240 130.106  0.00  0.00    +0.000 C 
ENDBRANCH  17  22
ENDBRANCH  11  14
ENDBRANCH  10  11
BRANCH   1  25
ATOM     24  C   UNL     1      -5.206   5.253 120.030  0.00  0.00    +0.000 C 
ATOM     25  O   UNL     1      -4.829   5.078 121.402  0.00  0.00    +0.000 OA
ENDBRANCH   1  25
BRANCH   7  26
ATOM     26  C   UNL     1      -7.535   4.437 126.278  0.00  0.00    +0.000 C 
BRANCH  26  27
ATOM     27  C   UNL     1      -6.759   4.347 127.624  0.00  0.00    +0.000 C 
ATOM     28  O   UNL     1      -7.090   4.789 128.694  0.00  0.00    +0.000 OA
ATOM     29  N   UNL     1      -5.536   3.709 127.669  0.00  0.00    +0.000 N 
ATOM     30  C   UNL     1      -4.413   4.330 127.003  0.00  0.00    +0.000 C 
ATOM     31  C   UNL     1      -3.822   5.606 127.626  0.00  0.00    +0.000 C 
ATOM     32  C   UNL     1      -3.344   5.593 129.080  0.00  0.00    +0.000 C 
ATOM     33  N   UNL     1      -3.218   4.282 129.706  0.00  0.00    +0.000 NA
ATOM     34  C   UNL     1      -4.552   3.789 130.079  0.00  0.00    +0.000 C 
ATOM     35  C   UNL     1      -5.247   3.017 128.940  0.00  0.00    +0.000 C 
ATOM     36  H   UNL     1      -2.673   4.393 130.563  0.00  0.00    +0.000 HD
ENDBRANCH  26  27
ENDBRANCH   7  26
TORSDOF 6
ENDMDL
