MODEL 1
REMARK VINA RESULT:      -9.9      0.000      0.000
REMARK  Name = CHEMBL278988
REMARK  8 active torsions:
REMARK  status: ('A' for Active; 'I' for Inactive)
REMARK    1  A    between atoms: C_1  and  C_2
REMARK    2  A    between atoms: N_4  and  C_5
REMARK    3  A    between atoms: C_7  and  C_8
REMARK    4  A    between atoms: N_20  and  C_21
REMARK    5  A    between atoms: C_21  and  C_22
REMARK    6  A    between atoms: N_24  and  C_25
REMARK    7  A    between atoms: C_25  and  C_26
REMARK    8  A    between atoms: C_28  and  C_29
REMARK                            x       y       z     vdW  Elec       q    Type
REMARK                         _______ _______ _______ _____ _____    ______ ____
ROOT
ATOM      1  C   UNL     1      -4.880   2.104 127.228  0.00  0.00    +0.000 C 
ATOM      2  N   UNL     1      -5.381   0.725 127.335  0.00  0.00    +0.000 NA
ATOM      3  C   UNL     1      -6.559   0.517 127.846  0.00  0.00    +0.000 C 
ATOM      4  C   UNL     1      -7.436   1.568 128.459  0.00  0.00    +0.000 A 
ATOM      5  C   UNL     1      -8.204   1.217 129.587  0.00  0.00    +0.000 A 
ATOM      6  C   UNL     1      -9.074   2.135 130.181  0.00  0.00    +0.000 A 
ATOM      7  C   UNL     1      -9.131   3.436 129.707  0.00  0.00    +0.000 A 
ATOM      8  C   UNL     1      -8.326   3.815 128.637  0.00  0.00    +0.000 A 
ATOM      9  C   UNL     1      -7.553   2.871 127.938  0.00  0.00    +0.000 A 
ATOM     10  N   UNL     1      -7.056   3.231 126.653  0.00  0.00    +0.000 N 
ATOM     11  C   UNL     1      -5.792   2.860 126.204  0.00  0.00    +0.000 C 
ATOM     12  O   UNL     1      -5.431   3.143 125.054  0.00  0.00    +0.000 OA
ENDROOT
BRANCH   3  13
ATOM     13  C   UNL     1      -7.077  -0.896 127.818  0.00  0.00    +0.000 A 
ATOM     14  C   UNL     1      -8.101  -1.245 126.932  0.00  0.00    +0.000 A 
ATOM     15  C   UNL     1      -8.739  -2.484 127.056  0.00  0.00    +0.000 A 
ATOM     16  C   UNL     1      -8.291  -3.412 127.995  0.00  0.00    +0.000 A 
ATOM     17  C   UNL     1      -7.180  -3.120 128.784  0.00  0.00    +0.000 A 
ATOM     18  C   UNL     1      -6.596  -1.848 128.729  0.00  0.00    +0.000 A 
ENDBRANCH   3  13
BRANCH   1  22
ATOM     19  C   UNL     1      -1.238   2.894 126.450  0.00  0.00    +0.000 C 
ATOM     20  C   UNL     1      -2.588   2.987 127.114  0.00  0.00    +0.000 C 
ATOM     21  O   UNL     1      -2.816   3.849 127.961  0.00  0.00    +0.000 OA
ATOM     22  N   UNL     1      -3.524   2.059 126.704  0.00  0.00    +0.000 N 
ATOM     23  H   UNL     1      -3.271   1.257 126.150  0.00  0.00    +0.000 HD
ENDBRANCH   1  22
BRANCH  10  24
ATOM     24  C   UNL     1      -7.892   3.990 125.698  0.00  0.00    +0.000 C 
BRANCH  24  25
ATOM     25  C   UNL     1      -8.322   3.308 124.384  0.00  0.00    +0.000 C 
ATOM     26  O   UNL     1      -7.785   3.534 123.292  0.00  0.00    +0.000 OA
ATOM     27  N   UNL     1      -9.362   2.412 124.431  0.00  0.00    +0.000 N 
ATOM     28  H   UNL     1     -10.098   2.535 125.120  0.00  0.00    +0.000 HD
BRANCH  27  29
ATOM     29  C   UNL     1      -9.615   1.658 123.211  0.00  0.00    +0.000 C 
BRANCH  29  30
ATOM     30  C   UNL     1      -9.139   0.269 123.304  0.00  0.00    +0.000 A 
ATOM     31  N   UNL     1      -7.924  -0.175 123.526  0.00  0.00    +0.000 NA
ATOM     32  C   UNL     1      -8.097  -1.535 123.466  0.00  0.00    +0.000 A 
ATOM     33  N   UNL     1      -9.361  -1.920 123.224  0.00  0.00    +0.000 NA
ATOM     34  O   UNL     1     -10.060  -0.718 123.140  0.00  0.00    +0.000 OA
BRANCH  32  35
ATOM     35  C   UNL     1      -6.981  -2.452 123.576  0.00  0.00    +0.000 A 
ATOM     36  C   UNL     1      -7.121  -3.677 124.240  0.00  0.00    +0.000 A 
ATOM     37  C   UNL     1      -6.009  -4.506 124.419  0.00  0.00    +0.000 A 
ATOM     38  C   UNL     1      -4.781  -4.153 123.863  0.00  0.00    +0.000 A 
ATOM     39  C   UNL     1      -4.658  -2.974 123.131  0.00  0.00    +0.000 A 
ATOM     40  C   UNL     1      -5.741  -2.101 123.031  0.00  0.00    +0.000 A 
ENDBRANCH  32  35
ENDBRANCH  29  30
ENDBRANCH  27  29
ENDBRANCH  24  25
ENDBRANCH  10  24
TORSDOF 7
ENDMDL
MODEL 2
REMARK VINA RESULT:      -9.5      4.348      7.105
REMARK  Name = CHEMBL278988
REMARK  8 active torsions:
REMARK  status: ('A' for Active; 'I' for Inactive)
REMARK    1  A    between atoms: C_1  and  C_2
REMARK    2  A    between atoms: N_4  and  C_5
REMARK    3  A    between atoms: C_7  and  C_8
REMARK    4  A    between atoms: N_20  and  C_21
REMARK    5  A    between atoms: C_21  and  C_22
REMARK    6  A    between atoms: N_24  and  C_25
REMARK    7  A    between atoms: C_25  and  C_26
REMARK    8  A    between atoms: C_28  and  C_29
REMARK                            x       y       z     vdW  Elec       q    Type
REMARK                         _______ _______ _______ _____ _____    ______ ____
ROOT
ATOM      1  C   UNL     1      -9.504   6.782 130.630  0.00  0.00    +0.000 C 
ATOM      2  N   UNL     1      -8.070   6.888 130.319  0.00  0.00    +0.000 NA
ATOM      3  C   UNL     1      -7.207   6.331 131.116  0.00  0.00    +0.000 C 
ATOM      4  C   UNL     1      -7.533   5.669 132.422  0.00  0.00    +0.000 A 
ATOM      5  C   UNL     1      -6.622   5.816 133.487  0.00  0.00    +0.000 A 
ATOM      6  C   UNL     1      -6.844   5.190 134.717  0.00  0.00    +0.000 A 
ATOM      7  C   UNL     1      -8.013   4.475 134.925  0.00  0.00    +0.000 A 
ATOM      8  C   UNL     1      -8.953   4.379 133.903  0.00  0.00    +0.000 A 
ATOM      9  C   UNL     1      -8.683   4.881 132.617  0.00  0.00    +0.000 A 
ATOM     10  N   UNL     1      -9.500   4.435 131.540  0.00  0.00    +0.000 N 
ATOM     11  C   UNL     1      -9.905   5.274 130.505  0.00  0.00    +0.000 C 
ATOM     12  O   UNL     1     -10.561   4.822 129.558  0.00  0.00    +0.000 OA
ENDROOT
BRANCH   3  13
ATOM     13  C   UNL     1      -5.764   6.359 130.689  0.00  0.00    +0.000 A 
ATOM     14  C   UNL     1      -5.111   5.166 130.359  0.00  0.00    +0.000 A 
ATOM     15  C   UNL     1      -3.724   5.156 130.183  0.00  0.00    +0.000 A 
ATOM     16  C   UNL     1      -3.001   6.347 130.236  0.00  0.00    +0.000 A 
ATOM     17  C   UNL     1      -3.669   7.555 130.426  0.00  0.00    +0.000 A 
ATOM     18  C   UNL     1      -5.043   7.562 130.694  0.00  0.00    +0.000 A 
ENDBRANCH   3  13
BRANCH   1  22
ATOM     19  C   UNL     1     -12.256   8.613 128.741  0.00  0.00    +0.000 C 
ATOM     20  C   UNL     1     -11.564   7.887 129.866  0.00  0.00    +0.000 C 
ATOM     21  O   UNL     1     -12.161   7.621 130.908  0.00  0.00    +0.000 OA
ATOM     22  N   UNL     1     -10.245   7.547 129.640  0.00  0.00    +0.000 N 
ATOM     23  H   UNL     1      -9.724   7.926 128.866  0.00  0.00    +0.000 HD
ENDBRANCH   1  22
BRANCH  10  24
ATOM     24  C   UNL     1      -9.926   3.022 131.441  0.00  0.00    +0.000 C 
BRANCH  24  25
ATOM     25  C   UNL     1      -8.961   1.998 130.810  0.00  0.00    +0.000 C 
ATOM     26  O   UNL     1      -8.898   0.814 131.164  0.00  0.00    +0.000 OA
ATOM     27  N   UNL     1      -8.123   2.431 129.811  0.00  0.00    +0.000 N 
ATOM     28  H   UNL     1      -7.799   3.393 129.812  0.00  0.00    +0.000 HD
BRANCH  27  29
ATOM     29  C   UNL     1      -7.362   1.399 129.120  0.00  0.00    +0.000 C 
BRANCH  29  30
ATOM     30  C   UNL     1      -8.027   0.944 127.890  0.00  0.00    +0.000 A 
ATOM     31  N   UNL     1      -7.948  -0.220 127.289  0.00  0.00    +0.000 NA
ATOM     32  C   UNL     1      -8.752  -0.034 126.192  0.00  0.00    +0.000 A 
ATOM     33  N   UNL     1      -9.310   1.185 126.116  0.00  0.00    +0.000 NA
ATOM     34  O   UNL     1      -8.846   1.830 127.262  0.00  0.00    +0.000 OA
BRANCH  32  35
ATOM     35  C   UNL     1      -8.902  -1.055 125.175  0.00  0.00    +0.000 A 
ATOM     36  C   UNL     1      -8.896  -0.720 123.815  0.00  0.00    +0.000 A 
ATOM     37  C   UNL     1      -9.136  -1.704 122.852  0.00  0.00    +0.000 A 
ATOM     38  C   UNL     1      -9.298  -3.034 123.240  0.00  0.00    +0.000 A 
ATOM     39  C   UNL     1      -9.222  -3.382 124.587  0.00  0.00    +0.000 A 
ATOM     40  C   UNL     1      -9.076  -2.390 125.556  0.00  0.00    +0.000 A 
ENDBRANCH  32  35
ENDBRANCH  29  30
ENDBRANCH  27  29
ENDBRANCH  24  25
ENDBRANCH  10  24
TORSDOF 7
ENDMDL
MODEL 3
REMARK VINA RESULT:      -9.4      6.551      9.581
REMARK  Name = CHEMBL278988
REMARK  8 active torsions:
REMARK  status: ('A' for Active; 'I' for Inactive)
REMARK    1  A    between atoms: C_1  and  C_2
REMARK    2  A    between atoms: N_4  and  C_5
REMARK    3  A    between atoms: C_7  and  C_8
REMARK    4  A    between atoms: N_20  and  C_21
REMARK    5  A    between atoms: C_21  and  C_22
REMARK    6  A    between atoms: N_24  and  C_25
REMARK    7  A    between atoms: C_25  and  C_26
REMARK    8  A    between atoms: C_28  and  C_29
REMARK                            x       y       z     vdW  Elec       q    Type
REMARK                         _______ _______ _______ _____ _____    ______ ____
ROOT
ATOM      1  C   UNL     1      -9.664   5.890 130.385  0.00  0.00    +0.000 C 
ATOM      2  N   UNL     1      -8.255   6.218 130.113  0.00  0.00    +0.000 NA
ATOM      3  C   UNL     1      -7.361   5.970 131.024  0.00  0.00    +0.000 C 
ATOM      4  C   UNL     1      -7.648   5.475 132.410  0.00  0.00    +0.000 A 
ATOM      5  C   UNL     1      -6.853   5.961 133.467  0.00  0.00    +0.000 A 
ATOM      6  C   UNL     1      -7.040   5.508 134.776  0.00  0.00    +0.000 A 
ATOM      7  C   UNL     1      -8.070   4.625 135.059  0.00  0.00    +0.000 A 
ATOM      8  C   UNL     1      -8.905   4.190 134.035  0.00  0.00    +0.000 A 
ATOM      9  C   UNL     1      -8.646   4.522 132.694  0.00  0.00    +0.000 A 
ATOM     10  N   UNL     1      -9.293   3.763 131.678  0.00  0.00    +0.000 N 
ATOM     11  C   UNL     1      -9.773   4.333 130.503  0.00  0.00    +0.000 C 
ATOM     12  O   UNL     1     -10.271   3.620 129.622  0.00  0.00    +0.000 OA
ENDROOT
BRANCH   3  13
ATOM     13  C   UNL     1      -5.922   6.205 130.650  0.00  0.00    +0.000 A 
ATOM     14  C   UNL     1      -5.389   7.497 130.706  0.00  0.00    +0.000 A 
ATOM     15  C   UNL     1      -4.133   7.759 130.150  0.00  0.00    +0.000 A 
ATOM     16  C   UNL     1      -3.365   6.718 129.629  0.00  0.00    +0.000 A 
ATOM     17  C   UNL     1      -3.836   5.407 129.700  0.00  0.00    +0.000 A 
ATOM     18  C   UNL     1      -5.130   5.151 130.171  0.00  0.00    +0.000 A 
ENDBRANCH   3  13
BRANCH   1  22
ATOM     19  C   UNL     1     -12.523   7.121 128.193  0.00  0.00    +0.000 C 
ATOM     20  C   UNL     1     -11.763   6.758 129.443  0.00  0.00    +0.000 C 
ATOM     21  O   UNL     1     -12.293   6.840 130.550  0.00  0.00    +0.000 OA
ATOM     22  N   UNL     1     -10.464   6.333 129.254  0.00  0.00    +0.000 N 
ATOM     23  H   UNL     1      -9.992   6.442 128.371  0.00  0.00    +0.000 HD
ENDBRANCH   1  22
BRANCH  10  24
ATOM     24  C   UNL     1      -9.446   2.298 131.804  0.00  0.00    +0.000 C 
BRANCH  24  25
ATOM     25  C   UNL     1      -8.199   1.404 131.645  0.00  0.00    +0.000 C 
ATOM     26  O   UNL     1      -7.913   0.814 130.595  0.00  0.00    +0.000 OA
ATOM     27  N   UNL     1      -7.372   1.251 132.731  0.00  0.00    +0.000 N 
ATOM     28  H   UNL     1      -7.762   1.293 133.667  0.00  0.00    +0.000 HD
BRANCH  27  29
ATOM     29  C   UNL     1      -6.116   0.554 132.487  0.00  0.00    +0.000 C 
BRANCH  29  30
ATOM     30  C   UNL     1      -4.945   1.398 132.769  0.00  0.00    +0.000 A 
ATOM     31  N   UNL     1      -4.843   2.706 132.740  0.00  0.00    +0.000 NA
ATOM     32  C   UNL     1      -3.521   2.900 133.055  0.00  0.00    +0.000 A 
ATOM     33  N   UNL     1      -2.834   1.767 133.275  0.00  0.00    +0.000 NA
ATOM     34  O   UNL     1      -3.790   0.766 133.108  0.00  0.00    +0.000 OA
BRANCH  32  35
ATOM     35  C   UNL     1      -2.924   4.220 133.061  0.00  0.00    +0.000 A 
ATOM     36  C   UNL     1      -3.602   5.312 133.618  0.00  0.00    +0.000 A 
ATOM     37  C   UNL     1      -3.053   6.594 133.531  0.00  0.00    +0.000 A 
ATOM     38  C   UNL     1      -1.792   6.774 132.964  0.00  0.00    +0.000 A 
ATOM     39  C   UNL     1      -1.079   5.678 132.483  0.00  0.00    +0.000 A 
ATOM     40  C   UNL     1      -1.664   4.412 132.485  0.00  0.00    +0.000 A 
ENDBRANCH  32  35
ENDBRANCH  29  30
ENDBRANCH  27  29
ENDBRANCH  24  25
ENDBRANCH  10  24
TORSDOF 7
ENDMDL
MODEL 4
REMARK VINA RESULT:      -9.4      2.980      5.571
REMARK  Name = CHEMBL278988
REMARK  8 active torsions:
REMARK  status: ('A' for Active; 'I' for Inactive)
REMARK    1  A    between atoms: C_1  and  C_2
REMARK    2  A    between atoms: N_4  and  C_5
REMARK    3  A    between atoms: C_7  and  C_8
REMARK    4  A    between atoms: N_20  and  C_21
REMARK    5  A    between atoms: C_21  and  C_22
REMARK    6  A    between atoms: N_24  and  C_25
REMARK    7  A    between atoms: C_25  and  C_26
REMARK    8  A    between atoms: C_28  and  C_29
REMARK                            x       y       z     vdW  Elec       q    Type
REMARK                         _______ _______ _______ _____ _____    ______ ____
ROOT
ATOM      1  C   UNL     1      -8.048   4.065 129.489  0.00  0.00    +0.000 C 
ATOM      2  N   UNL     1      -8.578   3.477 128.248  0.00  0.00    +0.000 NA
ATOM      3  C   UNL     1      -7.759   2.896 127.422  0.00  0.00    +0.000 C 
ATOM      4  C   UNL     1      -6.266   2.866 127.560  0.00  0.00    +0.000 A 
ATOM      5  C   UNL     1      -5.489   2.954 126.387  0.00  0.00    +0.000 A 
ATOM      6  C   UNL     1      -4.094   2.889 126.440  0.00  0.00    +0.000 A 
ATOM      7  C   UNL     1      -3.454   2.813 127.667  0.00  0.00    +0.000 A 
ATOM      8  C   UNL     1      -4.207   2.795 128.837  0.00  0.00    +0.000 A 
ATOM      9  C   UNL     1      -5.611   2.716 128.797  0.00  0.00    +0.000 A 
ATOM     10  N   UNL     1      -6.294   2.330 129.985  0.00  0.00    +0.000 N 
ATOM     11  C   UNL     1      -7.506   2.893 130.373  0.00  0.00    +0.000 C 
ATOM     12  O   UNL     1      -8.092   2.476 131.381  0.00  0.00    +0.000 OA
ENDROOT
BRANCH   3  13
ATOM     13  C   UNL     1      -8.365   2.202 126.232  0.00  0.00    +0.000 A 
ATOM     14  C   UNL     1      -8.385   2.841 124.989  0.00  0.00    +0.000 A 
ATOM     15  C   UNL     1      -9.141   2.304 123.941  0.00  0.00    +0.000 A 
ATOM     16  C   UNL     1      -9.793   1.082 124.100  0.00  0.00    +0.000 A 
ATOM     17  C   UNL     1      -9.659   0.376 125.294  0.00  0.00    +0.000 A 
ATOM     18  C   UNL     1      -8.981   0.950 126.377  0.00  0.00    +0.000 A 
ENDBRANCH   3  13
BRANCH   1  22
ATOM     19  C   UNL     1     -10.196   6.586 131.366  0.00  0.00    +0.000 C 
ATOM     20  C   UNL     1      -9.035   6.036 130.578  0.00  0.00    +0.000 C 
ATOM     21  O   UNL     1      -8.063   6.741 130.313  0.00  0.00    +0.000 OA
ATOM     22  N   UNL     1      -9.142   4.715 130.192  0.00  0.00    +0.000 N 
ATOM     23  H   UNL     1     -10.012   4.211 130.257  0.00  0.00    +0.000 HD
ENDBRANCH   1  22
BRANCH  10  24
ATOM     24  C   UNL     1      -5.762   1.258 130.854  0.00  0.00    +0.000 C 
BRANCH  24  25
ATOM     25  C   UNL     1      -5.688  -0.179 130.299  0.00  0.00    +0.000 C 
ATOM     26  O   UNL     1      -4.689  -0.639 129.731  0.00  0.00    +0.000 OA
ATOM     27  N   UNL     1      -6.794  -0.983 130.437  0.00  0.00    +0.000 N 
ATOM     28  H   UNL     1      -7.718  -0.564 130.442  0.00  0.00    +0.000 HD
BRANCH  27  29
ATOM     29  C   UNL     1      -6.620  -2.381 130.067  0.00  0.00    +0.000 C 
BRANCH  29  30
ATOM     30  C   UNL     1      -7.286  -2.709 128.798  0.00  0.00    +0.000 A 
ATOM     31  N   UNL     1      -6.969  -2.341 127.578  0.00  0.00    +0.000 NA
ATOM     32  C   UNL     1      -7.964  -2.922 126.832  0.00  0.00    +0.000 A 
ATOM     33  N   UNL     1      -8.855  -3.624 127.552  0.00  0.00    +0.000 NA
ATOM     34  O   UNL     1      -8.390  -3.502 128.860  0.00  0.00    +0.000 OA
BRANCH  32  35
ATOM     35  C   UNL     1      -8.067  -2.712 125.403  0.00  0.00    +0.000 A 
ATOM     36  C   UNL     1      -7.060  -2.034 124.702  0.00  0.00    +0.000 A 
ATOM     37  C   UNL     1      -7.221  -1.757 123.342  0.00  0.00    +0.000 A 
ATOM     38  C   UNL     1      -8.343  -2.230 122.663  0.00  0.00    +0.000 A 
ATOM     39  C   UNL     1      -9.307  -2.975 123.339  0.00  0.00    +0.000 A 
ATOM     40  C   UNL     1      -9.195  -3.172 124.715  0.00  0.00    +0.000 A 
ENDBRANCH  32  35
ENDBRANCH  29  30
ENDBRANCH  27  29
ENDBRANCH  24  25
ENDBRANCH  10  24
TORSDOF 7
ENDMDL
MODEL 5
REMARK VINA RESULT:      -9.3      4.437      7.585
REMARK  Name = CHEMBL278988
REMARK  8 active torsions:
REMARK  status: ('A' for Active; 'I' for Inactive)
REMARK    1  A    between atoms: C_1  and  C_2
REMARK    2  A    between atoms: N_4  and  C_5
REMARK    3  A    between atoms: C_7  and  C_8
REMARK    4  A    between atoms: N_20  and  C_21
REMARK    5  A    between atoms: C_21  and  C_22
REMARK    6  A    between atoms: N_24  and  C_25
REMARK    7  A    between atoms: C_25  and  C_26
REMARK    8  A    between atoms: C_28  and  C_29
REMARK                            x       y       z     vdW  Elec       q    Type
REMARK                         _______ _______ _______ _____ _____    ______ ____
ROOT
ATOM      1  C   UNL     1      -9.339   6.880 130.555  0.00  0.00    +0.000 C 
ATOM      2  N   UNL     1      -7.894   7.102 130.385  0.00  0.00    +0.000 NA
ATOM      3  C   UNL     1      -7.065   6.533 131.210  0.00  0.00    +0.000 C 
ATOM      4  C   UNL     1      -7.454   5.741 132.422  0.00  0.00    +0.000 A 
ATOM      5  C   UNL     1      -6.649   5.851 133.574  0.00  0.00    +0.000 A 
ATOM      6  C   UNL     1      -6.931   5.108 134.724  0.00  0.00    +0.000 A 
ATOM      7  C   UNL     1      -8.060   4.305 134.766  0.00  0.00    +0.000 A 
ATOM      8  C   UNL     1      -8.900   4.241 133.659  0.00  0.00    +0.000 A 
ATOM      9  C   UNL     1      -8.559   4.868 132.448  0.00  0.00    +0.000 A 
ATOM     10  N   UNL     1      -9.248   4.468 131.268  0.00  0.00    +0.000 N 
ATOM     11  C   UNL     1      -9.621   5.366 130.273  0.00  0.00    +0.000 C 
ATOM     12  O   UNL     1     -10.161   4.959 129.236  0.00  0.00    +0.000 OA
ENDROOT
BRANCH   3  13
ATOM     13  C   UNL     1      -5.596   6.688 130.919  0.00  0.00    +0.000 A 
ATOM     14  C   UNL     1      -4.725   5.617 131.140  0.00  0.00    +0.000 A 
ATOM     15  C   UNL     1      -3.342   5.821 131.090  0.00  0.00    +0.000 A 
ATOM     16  C   UNL     1      -2.829   7.064 130.721  0.00  0.00    +0.000 A 
ATOM     17  C   UNL     1      -3.697   8.094 130.364  0.00  0.00    +0.000 A 
ATOM     18  C   UNL     1      -5.081   7.924 130.501  0.00  0.00    +0.000 A 
ENDBRANCH   3  13
BRANCH   1  22
ATOM     19  C   UNL     1     -12.039   8.709 128.592  0.00  0.00    +0.000 C 
ATOM     20  C   UNL     1     -11.394   7.934 129.712  0.00  0.00    +0.000 C 
ATOM     21  O   UNL     1     -12.052   7.559 130.680  0.00  0.00    +0.000 OA
ATOM     22  N   UNL     1     -10.045   7.681 129.568  0.00  0.00    +0.000 N 
ATOM     23  H   UNL     1      -9.488   8.144 128.868  0.00  0.00    +0.000 HD
ENDBRANCH   1  22
BRANCH  10  24
ATOM     24  C   UNL     1      -9.564   3.045 131.017  0.00  0.00    +0.000 C 
BRANCH  24  25
ATOM     25  C   UNL     1      -8.633   2.229 130.097  0.00  0.00    +0.000 C 
ATOM     26  O   UNL     1      -8.585   0.992 130.100  0.00  0.00    +0.000 OA
ATOM     27  N   UNL     1      -7.809   2.916 129.238  0.00  0.00    +0.000 N 
ATOM     28  H   UNL     1      -7.467   3.835 129.501  0.00  0.00    +0.000 HD
BRANCH  27  29
ATOM     29  C   UNL     1      -7.084   2.112 128.264  0.00  0.00    +0.000 C 
BRANCH  29  30
ATOM     30  C   UNL     1      -7.344   2.542 126.881  0.00  0.00    +0.000 A 
ATOM     31  N   UNL     1      -6.498   2.688 125.888  0.00  0.00    +0.000 NA
ATOM     32  C   UNL     1      -7.312   3.137 124.878  0.00  0.00    +0.000 A 
ATOM     33  N   UNL     1      -8.605   3.261 125.225  0.00  0.00    +0.000 NA
ATOM     34  O   UNL     1      -8.630   2.841 126.553  0.00  0.00    +0.000 OA
BRANCH  32  35
ATOM     35  C   UNL     1      -6.783   3.518 123.584  0.00  0.00    +0.000 A 
ATOM     36  C   UNL     1      -7.501   3.255 122.410  0.00  0.00    +0.000 A 
ATOM     37  C   UNL     1      -6.933   3.543 121.166  0.00  0.00    +0.000 A 
ATOM     38  C   UNL     1      -5.690   4.169 121.095  0.00  0.00    +0.000 A 
ATOM     39  C   UNL     1      -5.010   4.506 122.264  0.00  0.00    +0.000 A 
ATOM     40  C   UNL     1      -5.531   4.135 123.504  0.00  0.00    +0.000 A 
ENDBRANCH  32  35
ENDBRANCH  29  30
ENDBRANCH  27  29
ENDBRANCH  24  25
ENDBRANCH  10  24
TORSDOF 7
ENDMDL
MODEL 6
REMARK VINA RESULT:      -9.3      3.106      7.999
REMARK  Name = CHEMBL278988
REMARK  8 active torsions:
REMARK  status: ('A' for Active; 'I' for Inactive)
REMARK    1  A    between atoms: C_1  and  C_2
REMARK    2  A    between atoms: N_4  and  C_5
REMARK    3  A    between atoms: C_7  and  C_8
REMARK    4  A    between atoms: N_20  and  C_21
REMARK    5  A    between atoms: C_21  and  C_22
REMARK    6  A    between atoms: N_24  and  C_25
REMARK    7  A    between atoms: C_25  and  C_26
REMARK    8  A    between atoms: C_28  and  C_29
REMARK                            x       y       z     vdW  Elec       q    Type
REMARK                         _______ _______ _______ _____ _____    ______ ____
ROOT
ATOM      1  C   UNL     1      -7.633   1.950 127.491  0.00  0.00    +0.000 C 
ATOM      2  N   UNL     1      -7.526   0.639 126.830  0.00  0.00    +0.000 NA
ATOM      3  C   UNL     1      -7.056   0.578 125.619  0.00  0.00    +0.000 C 
ATOM      4  C   UNL     1      -6.711   1.759 124.762  0.00  0.00    +0.000 A 
ATOM      5  C   UNL     1      -6.977   1.678 123.380  0.00  0.00    +0.000 A 
ATOM      6  C   UNL     1      -6.641   2.725 122.518  0.00  0.00    +0.000 A 
ATOM      7  C   UNL     1      -6.107   3.897 123.033  0.00  0.00    +0.000 A 
ATOM      8  C   UNL     1      -5.903   4.016 124.404  0.00  0.00    +0.000 A 
ATOM      9  C   UNL     1      -6.102   2.924 125.267  0.00  0.00    +0.000 A 
ATOM     10  N   UNL     1      -5.533   2.988 126.571  0.00  0.00    +0.000 N 
ATOM     11  C   UNL     1      -6.181   2.495 127.700  0.00  0.00    +0.000 C 
ATOM     12  O   UNL     1      -5.616   2.516 128.801  0.00  0.00    +0.000 OA
ENDROOT
BRANCH   3  13
ATOM     13  C   UNL     1      -6.848  -0.793 125.035  0.00  0.00    +0.000 A 
ATOM     14  C   UNL     1      -7.952  -1.591 124.718  0.00  0.00    +0.000 A 
ATOM     15  C   UNL     1      -7.769  -2.939 124.392  0.00  0.00    +0.000 A 
ATOM     16  C   UNL     1      -6.482  -3.466 124.283  0.00  0.00    +0.000 A 
ATOM     17  C   UNL     1      -5.376  -2.636 124.461  0.00  0.00    +0.000 A 
ATOM     18  C   UNL     1      -5.554  -1.311 124.878  0.00  0.00    +0.000 A 
ENDBRANCH   3  13
BRANCH   1  22
ATOM     19  C   UNL     1      -9.464   2.507 130.782  0.00  0.00    +0.000 C 
ATOM     20  C   UNL     1      -8.927   2.795 129.403  0.00  0.00    +0.000 C 
ATOM     21  O   UNL     1      -9.088   3.897 128.881  0.00  0.00    +0.000 OA
ATOM     22  N   UNL     1      -8.253   1.757 128.792  0.00  0.00    +0.000 N 
ATOM     23  H   UNL     1      -8.287   0.817 129.151  0.00  0.00    +0.000 HD
ENDBRANCH   1  22
BRANCH  10  24
ATOM     24  C   UNL     1      -4.181   3.548 126.785  0.00  0.00    +0.000 C 
BRANCH  24  25
ATOM     25  C   UNL     1      -4.044   4.890 127.533  0.00  0.00    +0.000 C 
ATOM     26  O   UNL     1      -4.382   5.978 127.048  0.00  0.00    +0.000 OA
ATOM     27  N   UNL     1      -3.508   4.872 128.797  0.00  0.00    +0.000 N 
ATOM     28  H   UNL     1      -2.821   4.165 129.040  0.00  0.00    +0.000 HD
BRANCH  27  29
ATOM     29  C   UNL     1      -3.564   6.127 129.536  0.00  0.00    +0.000 C 
BRANCH  29  30
ATOM     30  C   UNL     1      -4.738   6.202 130.419  0.00  0.00    +0.000 A 
ATOM     31  N   UNL     1      -6.012   6.139 130.108  0.00  0.00    +0.000 NA
ATOM     32  C   UNL     1      -6.616   6.300 131.330  0.00  0.00    +0.000 A 
ATOM     33  N   UNL     1      -5.759   6.449 132.354  0.00  0.00    +0.000 NA
ATOM     34  O   UNL     1      -4.507   6.360 131.750  0.00  0.00    +0.000 OA
BRANCH  32  35
ATOM     35  C   UNL     1      -8.056   6.380 131.464  0.00  0.00    +0.000 A 
ATOM     36  C   UNL     1      -8.702   5.863 132.595  0.00  0.00    +0.000 A 
ATOM     37  C   UNL     1     -10.098   5.864 132.664  0.00  0.00    +0.000 A 
ATOM     38  C   UNL     1     -10.845   6.456 131.646  0.00  0.00    +0.000 A 
ATOM     39  C   UNL     1     -10.202   7.044 130.559  0.00  0.00    +0.000 A 
ATOM     40  C   UNL     1      -8.814   6.961 130.443  0.00  0.00    +0.000 A 
ENDBRANCH  32  35
ENDBRANCH  29  30
ENDBRANCH  27  29
ENDBRANCH  24  25
ENDBRANCH  10  24
TORSDOF 7
ENDMDL
MODEL 7
REMARK VINA RESULT:      -9.1      4.441      7.230
REMARK  Name = CHEMBL278988
REMARK  8 active torsions:
REMARK  status: ('A' for Active; 'I' for Inactive)
REMARK    1  A    between atoms: C_1  and  C_2
REMARK    2  A    between atoms: N_4  and  C_5
REMARK    3  A    between atoms: C_7  and  C_8
REMARK    4  A    between atoms: N_20  and  C_21
REMARK    5  A    between atoms: C_21  and  C_22
REMARK    6  A    between atoms: N_24  and  C_25
REMARK    7  A    between atoms: C_25  and  C_26
REMARK    8  A    between atoms: C_28  and  C_29
REMARK                            x       y       z     vdW  Elec       q    Type
REMARK                         _______ _______ _______ _____ _____    ______ ____
ROOT
ATOM      1  C   UNL     1      -9.414   6.486 130.652  0.00  0.00    +0.000 C 
ATOM      2  N   UNL     1      -7.998   6.723 130.330  0.00  0.00    +0.000 NA
ATOM      3  C   UNL     1      -7.081   6.217 131.100  0.00  0.00    +0.000 C 
ATOM      4  C   UNL     1      -7.333   5.489 132.387  0.00  0.00    +0.000 A 
ATOM      5  C   UNL     1      -6.424   5.680 133.447  0.00  0.00    +0.000 A 
ATOM      6  C   UNL     1      -6.576   4.999 134.658  0.00  0.00    +0.000 A 
ATOM      7  C   UNL     1      -7.678   4.180 134.854  0.00  0.00    +0.000 A 
ATOM      8  C   UNL     1      -8.619   4.038 133.840  0.00  0.00    +0.000 A 
ATOM      9  C   UNL     1      -8.410   4.600 132.568  0.00  0.00    +0.000 A 
ATOM     10  N   UNL     1      -9.200   4.121 131.485  0.00  0.00    +0.000 N 
ATOM     11  C   UNL     1      -9.688   4.954 130.483  0.00  0.00    +0.000 C 
ATOM     12  O   UNL     1     -10.316   4.478 129.528  0.00  0.00    +0.000 OA
ENDROOT
BRANCH   3  13
ATOM     13  C   UNL     1      -5.651   6.381 130.659  0.00  0.00    +0.000 A 
ATOM     14  C   UNL     1      -4.899   5.257 130.300  0.00  0.00    +0.000 A 
ATOM     15  C   UNL     1      -3.518   5.373 130.110  0.00  0.00    +0.000 A 
ATOM     16  C   UNL     1      -2.903   6.622 130.178  0.00  0.00    +0.000 A 
ATOM     17  C   UNL     1      -3.673   7.763 130.398  0.00  0.00    +0.000 A 
ATOM     18  C   UNL     1      -5.040   7.643 130.680  0.00  0.00    +0.000 A 
ENDBRANCH   3  13
BRANCH   1  22
ATOM     19  C   UNL     1     -12.302   8.262 128.921  0.00  0.00    +0.000 C 
ATOM     20  C   UNL     1     -11.524   7.577 130.014  0.00  0.00    +0.000 C 
ATOM     21  O   UNL     1     -12.035   7.359 131.111  0.00  0.00    +0.000 OA
ATOM     22  N   UNL     1     -10.230   7.216 129.695  0.00  0.00    +0.000 N 
ATOM     23  H   UNL     1      -9.772   7.559 128.866  0.00  0.00    +0.000 HD
ENDBRANCH   1  22
BRANCH  10  24
ATOM     24  C   UNL     1      -9.506   2.681 131.345  0.00  0.00    +0.000 C 
BRANCH  24  25
ATOM     25  C   UNL     1      -8.393   1.729 130.863  0.00  0.00    +0.000 C 
ATOM     26  O   UNL     1      -7.356   2.118 130.311  0.00  0.00    +0.000 OA
ATOM     27  N   UNL     1      -8.572   0.379 131.049  0.00  0.00    +0.000 N 
ATOM     28  H   UNL     1      -9.511  -0.007 131.040  0.00  0.00    +0.000 HD
BRANCH  27  29
ATOM     29  C   UNL     1      -7.425  -0.467 130.749  0.00  0.00    +0.000 C 
BRANCH  29  30
ATOM     30  C   UNL     1      -7.698  -1.407 129.651  0.00  0.00    +0.000 A 
ATOM     31  N   UNL     1      -7.510  -1.250 128.362  0.00  0.00    +0.000 NA
ATOM     32  C   UNL     1      -7.976  -2.437 127.855  0.00  0.00    +0.000 A 
ATOM     33  N   UNL     1      -8.426  -3.296 128.784  0.00  0.00    +0.000 NA
ATOM     34  O   UNL     1      -8.218  -2.619 129.984  0.00  0.00    +0.000 OA
BRANCH  32  35
ATOM     35  C   UNL     1      -8.042  -2.683 126.428  0.00  0.00    +0.000 A 
ATOM     36  C   UNL     1      -6.898  -2.573 125.627  0.00  0.00    +0.000 A 
ATOM     37  C   UNL     1      -6.999  -2.721 124.241  0.00  0.00    +0.000 A 
ATOM     38  C   UNL     1      -8.221  -3.063 123.664  0.00  0.00    +0.000 A 
ATOM     39  C   UNL     1      -9.343  -3.255 124.468  0.00  0.00    +0.000 A 
ATOM     40  C   UNL     1      -9.266  -3.016 125.840  0.00  0.00    +0.000 A 
ENDBRANCH  32  35
ENDBRANCH  29  30
ENDBRANCH  27  29
ENDBRANCH  24  25
ENDBRANCH  10  24
TORSDOF 7
ENDMDL
MODEL 8
REMARK VINA RESULT:      -9.0      3.314      7.544
REMARK  Name = CHEMBL278988
REMARK  8 active torsions:
REMARK  status: ('A' for Active; 'I' for Inactive)
REMARK    1  A    between atoms: C_1  and  C_2
REMARK    2  A    between atoms: N_4  and  C_5
REMARK    3  A    between atoms: C_7  and  C_8
REMARK    4  A    between atoms: N_20  and  C_21
REMARK    5  A    between atoms: C_21  and  C_22
REMARK    6  A    between atoms: N_24  and  C_25
REMARK    7  A    between atoms: C_25  and  C_26
REMARK    8  A    between atoms: C_28  and  C_29
REMARK                            x       y       z     vdW  Elec       q    Type
REMARK                         _______ _______ _______ _____ _____    ______ ____
ROOT
ATOM      1  C   UNL     1      -7.926   0.411 130.834  0.00  0.00    +0.000 C 
ATOM      2  N   UNL     1      -7.469  -0.814 131.509  0.00  0.00    +0.000 NA
ATOM      3  C   UNL     1      -7.361  -1.913 130.822  0.00  0.00    +0.000 C 
ATOM      4  C   UNL     1      -7.779  -2.086 129.392  0.00  0.00    +0.000 A 
ATOM      5  C   UNL     1      -8.348  -3.318 129.011  0.00  0.00    +0.000 A 
ATOM      6  C   UNL     1      -8.720  -3.561 127.686  0.00  0.00    +0.000 A 
ATOM      7  C   UNL     1      -8.601  -2.553 126.741  0.00  0.00    +0.000 A 
ATOM      8  C   UNL     1      -8.105  -1.310 127.120  0.00  0.00    +0.000 A 
ATOM      9  C   UNL     1      -7.594  -1.092 128.412  0.00  0.00    +0.000 A 
ATOM     10  N   UNL     1      -6.776   0.053 128.625  0.00  0.00    +0.000 N 
ATOM     11  C   UNL     1      -6.832   0.812 129.790  0.00  0.00    +0.000 C 
ATOM     12  O   UNL     1      -6.054   1.761 129.954  0.00  0.00    +0.000 OA
ENDROOT
BRANCH   3  13
ATOM     13  C   UNL     1      -6.769  -3.105 131.526  0.00  0.00    +0.000 A 
ATOM     14  C   UNL     1      -7.093  -3.356 132.863  0.00  0.00    +0.000 A 
ATOM     15  C   UNL     1      -6.381  -4.319 133.585  0.00  0.00    +0.000 A 
ATOM     16  C   UNL     1      -5.415  -5.100 132.950  0.00  0.00    +0.000 A 
ATOM     17  C   UNL     1      -5.189  -4.946 131.583  0.00  0.00    +0.000 A 
ATOM     18  C   UNL     1      -5.833  -3.922 130.876  0.00  0.00    +0.000 A 
ENDBRANCH   3  13
BRANCH   1  22
ATOM     19  C   UNL     1      -9.277   2.981 133.297  0.00  0.00    +0.000 C 
ATOM     20  C   UNL     1      -9.271   1.824 132.331  0.00  0.00    +0.000 C 
ATOM     21  O   UNL     1     -10.317   1.254 132.023  0.00  0.00    +0.000 OA
ATOM     22  N   UNL     1      -8.037   1.467 131.828  0.00  0.00    +0.000 N 
ATOM     23  H   UNL     1      -7.179   1.819 132.223  0.00  0.00    +0.000 HD
ENDBRANCH   1  22
BRANCH  10  24
ATOM     24  C   UNL     1      -5.774   0.470 127.620  0.00  0.00    +0.000 C 
BRANCH  24  25
ATOM     25  C   UNL     1      -5.850   1.898 127.044  0.00  0.00    +0.000 C 
ATOM     26  O   UNL     1      -4.854   2.555 126.716  0.00  0.00    +0.000 OA
ATOM     27  N   UNL     1      -7.091   2.470 126.899  0.00  0.00    +0.000 N 
ATOM     28  H   UNL     1      -7.836   2.217 127.540  0.00  0.00    +0.000 HD
BRANCH  27  29
ATOM     29  C   UNL     1      -7.133   3.739 126.185  0.00  0.00    +0.000 C 
BRANCH  29  30
ATOM     30  C   UNL     1      -8.118   4.669 126.757  0.00  0.00    +0.000 A 
ATOM     31  N   UNL     1      -8.483   4.820 128.008  0.00  0.00    +0.000 NA
ATOM     32  C   UNL     1      -9.443   5.796 127.914  0.00  0.00    +0.000 A 
ATOM     33  N   UNL     1      -9.662   6.237 126.664  0.00  0.00    +0.000 NA
ATOM     34  O   UNL     1      -8.762   5.502 125.895  0.00  0.00    +0.000 OA
BRANCH  32  35
ATOM     35  C   UNL     1     -10.199   6.237 129.069  0.00  0.00    +0.000 A 
ATOM     36  C   UNL     1      -9.705   6.046 130.366  0.00  0.00    +0.000 A 
ATOM     37  C   UNL     1     -10.489   6.391 131.470  0.00  0.00    +0.000 A 
ATOM     38  C   UNL     1     -11.727   7.003 131.281  0.00  0.00    +0.000 A 
ATOM     39  C   UNL     1     -12.186   7.269 129.992  0.00  0.00    +0.000 A 
ATOM     40  C   UNL     1     -11.448   6.841 128.889  0.00  0.00    +0.000 A 
ENDBRANCH  32  35
ENDBRANCH  29  30
ENDBRANCH  27  29
ENDBRANCH  24  25
ENDBRANCH  10  24
TORSDOF 7
ENDMDL
MODEL 9
REMARK VINA RESULT:      -8.9      3.243      6.113
REMARK  Name = CHEMBL278988
REMARK  8 active torsions:
REMARK  status: ('A' for Active; 'I' for Inactive)
REMARK    1  A    between atoms: C_1  and  C_2
REMARK    2  A    between atoms: N_4  and  C_5
REMARK    3  A    between atoms: C_7  and  C_8
REMARK    4  A    between atoms: N_20  and  C_21
REMARK    5  A    between atoms: C_21  and  C_22
REMARK    6  A    between atoms: N_24  and  C_25
REMARK    7  A    between atoms: C_25  and  C_26
REMARK    8  A    between atoms: C_28  and  C_29
REMARK                            x       y       z     vdW  Elec       q    Type
REMARK                         _______ _______ _______ _____ _____    ______ ____
ROOT
ATOM      1  C   UNL     1      -6.952   3.611 129.807  0.00  0.00    +0.000 C 
ATOM      2  N   UNL     1      -6.241   4.733 130.439  0.00  0.00    +0.000 NA
ATOM      3  C   UNL     1      -5.131   5.157 129.910  0.00  0.00    +0.000 C 
ATOM      4  C   UNL     1      -4.424   4.522 128.751  0.00  0.00    +0.000 A 
ATOM      5  C   UNL     1      -3.015   4.507 128.758  0.00  0.00    +0.000 A 
ATOM      6  C   UNL     1      -2.294   3.969 127.689  0.00  0.00    +0.000 A 
ATOM      7  C   UNL     1      -2.968   3.370 126.636  0.00  0.00    +0.000 A 
ATOM      8  C   UNL     1      -4.358   3.316 126.649  0.00  0.00    +0.000 A 
ATOM      9  C   UNL     1      -5.102   3.976 127.643  0.00  0.00    +0.000 A 
ATOM     10  N   UNL     1      -6.487   4.200 127.405  0.00  0.00    +0.000 N 
ATOM     11  C   UNL     1      -7.450   4.096 128.405  0.00  0.00    +0.000 C 
ATOM     12  O   UNL     1      -8.634   4.364 128.161  0.00  0.00    +0.000 OA
ENDROOT
BRANCH   3  13
ATOM     13  C   UNL     1      -4.509   6.386 130.519  0.00  0.00    +0.000 A 
ATOM     14  C   UNL     1      -4.517   7.593 129.813  0.00  0.00    +0.000 A 
ATOM     15  C   UNL     1      -3.749   8.671 130.266  0.00  0.00    +0.000 A 
ATOM     16  C   UNL     1      -3.056   8.581 131.473  0.00  0.00    +0.000 A 
ATOM     17  C   UNL     1      -3.161   7.427 132.247  0.00  0.00    +0.000 A 
ATOM     18  C   UNL     1      -3.851   6.312 131.755  0.00  0.00    +0.000 A 
ENDBRANCH   3  13
BRANCH   1  22
ATOM     19  C   UNL     1      -9.611   1.736 131.784  0.00  0.00    +0.000 C 
ATOM     20  C   UNL     1      -8.346   1.974 131.001  0.00  0.00    +0.000 C 
ATOM     21  O   UNL     1      -7.592   1.043 130.721  0.00  0.00    +0.000 OA
ATOM     22  N   UNL     1      -8.107   3.281 130.627  0.00  0.00    +0.000 N 
ATOM     23  H   UNL     1      -8.632   4.049 131.013  0.00  0.00    +0.000 HD
ENDBRANCH   1  22
BRANCH  10  24
ATOM     24  C   UNL     1      -6.973   4.610 126.069  0.00  0.00    +0.000 C 
BRANCH  24  25
ATOM     25  C   UNL     1      -7.749   3.586 125.216  0.00  0.00    +0.000 C 
ATOM     26  O   UNL     1      -8.981   3.595 125.094  0.00  0.00    +0.000 OA
ATOM     27  N   UNL     1      -7.032   2.611 124.567  0.00  0.00    +0.000 N 
ATOM     28  H   UNL     1      -6.166   2.272 124.975  0.00  0.00    +0.000 HD
BRANCH  27  29
ATOM     29  C   UNL     1      -7.778   1.781 123.631  0.00  0.00    +0.000 C 
BRANCH  29  30
ATOM     30  C   UNL     1      -8.205   0.508 124.230  0.00  0.00    +0.000 A 
ATOM     31  N   UNL     1      -8.008   0.061 125.449  0.00  0.00    +0.000 NA
ATOM     32  C   UNL     1      -8.599  -1.177 125.402  0.00  0.00    +0.000 A 
ATOM     33  N   UNL     1      -9.143  -1.484 124.212  0.00  0.00    +0.000 NA
ATOM     34  O   UNL     1      -8.901  -0.351 123.438  0.00  0.00    +0.000 OA
BRANCH  32  35
ATOM     35  C   UNL     1      -8.553  -2.088 126.528  0.00  0.00    +0.000 A 
ATOM     36  C   UNL     1      -9.242  -3.307 126.494  0.00  0.00    +0.000 A 
ATOM     37  C   UNL     1      -9.264  -4.129 127.624  0.00  0.00    +0.000 A 
ATOM     38  C   UNL     1      -8.531  -3.776 128.756  0.00  0.00    +0.000 A 
ATOM     39  C   UNL     1      -7.778  -2.603 128.763  0.00  0.00    +0.000 A 
ATOM     40  C   UNL     1      -7.829  -1.736 127.672  0.00  0.00    +0.000 A 
ENDBRANCH  32  35
ENDBRANCH  29  30
ENDBRANCH  27  29
ENDBRANCH  24  25
ENDBRANCH  10  24
TORSDOF 7
ENDMDL
