MODEL 1
REMARK VINA RESULT:      -9.1      0.000      0.000
REMARK  Name = CHEMBL196816
REMARK  9 active torsions:
REMARK  status: ('A' for Active; 'I' for Inactive)
REMARK    1  A    between atoms: C_1  and  C_2
REMARK    2  A    between atoms: C_2  and  C_25
REMARK    3  A    between atoms: N_3  and  N_4
REMARK    4  A    between atoms: C_5  and  C_7
REMARK    5  A    between atoms: C_7  and  N_8
REMARK    6  A    between atoms: N_8  and  C_9
REMARK    7  A    between atoms: N_8  and  S_16
REMARK    8  A    between atoms: S_16  and  C_19
REMARK    9  A    between atoms: C_30  and  O_31
REMARK                            x       y       z     vdW  Elec       q    Type
REMARK                         _______ _______ _______ _____ _____    ______ ____
ROOT
ATOM      1  N   UNL     1      -7.716  -1.530 127.381  0.00  0.00    +0.000 N 
ENDROOT
BRANCH   1   2
ATOM      2  C   UNL     1      -7.097  -2.339 128.396  0.00  0.00    +0.000 A 
ATOM      3  C   UNL     1      -7.819  -2.754 129.519  0.00  0.00    +0.000 A 
ATOM      4  C   UNL     1      -7.157  -3.335 130.606  0.00  0.00    +0.000 A 
ATOM      5  C   UNL     1      -5.806  -3.661 130.515  0.00  0.00    +0.000 A 
ATOM      6  C   UNL     1      -5.098  -3.289 129.385  0.00  0.00    +0.000 A 
ATOM      7 CL   UNL     1      -3.441  -3.718 129.216  0.00  0.00    +0.000 Cl
ATOM      8  C   UNL     1      -5.720  -2.540 128.394  0.00  0.00    +0.000 A 
ENDBRANCH   1   2
BRANCH   1   9
ATOM      9  S   UNL     1      -8.582  -2.232 126.074  0.00  0.00    +0.000 S 
ATOM     10  O   UNL     1      -8.995  -3.550 126.502  0.00  0.00    +0.000 OA
ATOM     11  O   UNL     1      -9.591  -1.272 125.648  0.00  0.00    +0.000 OA
BRANCH   9  12
ATOM     12  C   UNL     1      -7.459  -2.448 124.681  0.00  0.00    +0.000 A 
ATOM     13  C   UNL     1      -6.317  -3.245 124.801  0.00  0.00    +0.000 A 
ATOM     14  C   UNL     1      -5.342  -3.209 123.794  0.00  0.00    +0.000 A 
ATOM     15  C   UNL     1      -5.524  -2.417 122.659  0.00  0.00    +0.000 A 
ATOM     16  C   UNL     1      -6.707  -1.704 122.498  0.00  0.00    +0.000 A 
ATOM     17  C   UNL     1      -7.706  -1.786 123.472  0.00  0.00    +0.000 A 
ENDBRANCH   9  12
ENDBRANCH   1   9
BRANCH   1  18
ATOM     18  C   UNL     1      -7.593  -0.024 127.434  0.00  0.00    +0.000 C 
BRANCH  18  20
ATOM     19  N   UNL     1      -7.628   1.357 125.327  0.00  0.00    +0.000 N 
ATOM     20  C   UNL     1      -6.856   0.665 126.249  0.00  0.00    +0.000 C 
ATOM     21  O   UNL     1      -5.637   0.598 126.077  0.00  0.00    +0.000 OA
ATOM     22  H   UNL     1      -8.625   1.213 125.268  0.00  0.00    +0.000 HD
BRANCH  19  25
ATOM     23  C   UNL     1      -9.028   2.370 123.033  0.00  0.00    +0.000 C 
ATOM     24  C   UNL     1      -7.561   2.586 123.329  0.00  0.00    +0.000 C 
ATOM     25  N   UNL     1      -6.951   2.079 124.360  0.00  0.00    +0.000 NA
BRANCH  24  26
ATOM     26  C   UNL     1      -6.767   3.447 122.367  0.00  0.00    +0.000 A 
ATOM     27  C   UNL     1      -7.127   3.526 121.009  0.00  0.00    +0.000 A 
ATOM     28  C   UNL     1      -6.297   4.188 120.088  0.00  0.00    +0.000 A 
ATOM     29  C   UNL     1      -5.136   4.827 120.519  0.00  0.00    +0.000 A 
ATOM     30  C   UNL     1      -4.787   4.788 121.868  0.00  0.00    +0.000 A 
ATOM     31  C   UNL     1      -5.596   4.101 122.779  0.00  0.00    +0.000 A 
BRANCH  31  32
ATOM     32  O   UNL     1      -5.193   4.044 124.084  0.00  0.00    +0.000 OA
ATOM     33  H   UNL     1      -5.751   4.617 124.631  0.00  0.00    +0.000 HD
ENDBRANCH  31  32
ENDBRANCH  24  26
ENDBRANCH  19  25
ENDBRANCH  18  20
ENDBRANCH   1  18
TORSDOF 8
ENDMDL
MODEL 2
REMARK VINA RESULT:      -9.0      3.143      7.680
REMARK  Name = CHEMBL196816
REMARK  9 active torsions:
REMARK  status: ('A' for Active; 'I' for Inactive)
REMARK    1  A    between atoms: C_1  and  C_2
REMARK    2  A    between atoms: C_2  and  C_25
REMARK    3  A    between atoms: N_3  and  N_4
REMARK    4  A    between atoms: C_5  and  C_7
REMARK    5  A    between atoms: C_7  and  N_8
REMARK    6  A    between atoms: N_8  and  C_9
REMARK    7  A    between atoms: N_8  and  S_16
REMARK    8  A    between atoms: S_16  and  C_19
REMARK    9  A    between atoms: C_30  and  O_31
REMARK                            x       y       z     vdW  Elec       q    Type
REMARK                         _______ _______ _______ _____ _____    ______ ____
ROOT
ATOM      1  N   UNL     1      -8.578   2.212 123.481  0.00  0.00    +0.000 N 
ENDROOT
BRANCH   1   2
ATOM      2  C   UNL     1      -7.950   2.805 122.331  0.00  0.00    +0.000 A 
ATOM      3  C   UNL     1      -6.572   3.037 122.308  0.00  0.00    +0.000 A 
ATOM      4  C   UNL     1      -6.006   3.819 121.295  0.00  0.00    +0.000 A 
ATOM      5  C   UNL     1      -6.777   4.232 120.211  0.00  0.00    +0.000 A 
ATOM      6  C   UNL     1      -8.135   3.966 120.211  0.00  0.00    +0.000 A 
ATOM      7 CL   UNL     1      -9.110   4.416 118.866  0.00  0.00    +0.000 Cl
ATOM      8  C   UNL     1      -8.722   3.358 121.314  0.00  0.00    +0.000 A 
ENDBRANCH   1   2
BRANCH   1   9
ATOM      9  S   UNL     1      -9.628   0.860 123.338  0.00  0.00    +0.000 S 
ATOM     10  O   UNL     1     -10.425   0.816 124.543  0.00  0.00    +0.000 OA
ATOM     11  O   UNL     1     -10.293   0.954 122.046  0.00  0.00    +0.000 OA
BRANCH   9  12
ATOM     12  C   UNL     1      -8.635  -0.644 123.296  0.00  0.00    +0.000 A 
ATOM     13  C   UNL     1      -9.240  -1.894 123.135  0.00  0.00    +0.000 A 
ATOM     14  C   UNL     1      -8.485  -3.057 123.342  0.00  0.00    +0.000 A 
ATOM     15  C   UNL     1      -7.130  -2.974 123.667  0.00  0.00    +0.000 A 
ATOM     16  C   UNL     1      -6.510  -1.730 123.726  0.00  0.00    +0.000 A 
ATOM     17  C   UNL     1      -7.246  -0.573 123.461  0.00  0.00    +0.000 A 
ENDBRANCH   9  12
ENDBRANCH   1   9
BRANCH   1  18
ATOM     18  C   UNL     1      -8.340   2.793 124.857  0.00  0.00    +0.000 C 
BRANCH  18  20
ATOM     19  N   UNL     1      -8.247   1.001 126.624  0.00  0.00    +0.000 N 
ATOM     20  C   UNL     1      -7.538   1.918 125.862  0.00  0.00    +0.000 C 
ATOM     21  O   UNL     1      -6.321   2.022 126.032  0.00  0.00    +0.000 OA
ATOM     22  H   UNL     1      -9.249   1.067 126.722  0.00  0.00    +0.000 HD
BRANCH  19  25
ATOM     23  C   UNL     1      -8.863  -1.804 126.662  0.00  0.00    +0.000 C 
ATOM     24  C   UNL     1      -7.734  -1.146 127.421  0.00  0.00    +0.000 C 
ATOM     25  N   UNL     1      -7.507   0.135 127.410  0.00  0.00    +0.000 NA
BRANCH  24  26
ATOM     26  C   UNL     1      -6.816  -2.039 128.233  0.00  0.00    +0.000 A 
ATOM     27  C   UNL     1      -7.345  -3.011 129.102  0.00  0.00    +0.000 A 
ATOM     28  C   UNL     1      -6.502  -3.721 129.975  0.00  0.00    +0.000 A 
ATOM     29  C   UNL     1      -5.124  -3.514 129.947  0.00  0.00    +0.000 A 
ATOM     30  C   UNL     1      -4.584  -2.581 129.064  0.00  0.00    +0.000 A 
ATOM     31  C   UNL     1      -5.426  -1.850 128.218  0.00  0.00    +0.000 A 
BRANCH  31  32
ATOM     32  O   UNL     1      -4.862  -0.910 127.403  0.00  0.00    +0.000 OA
ATOM     33  H   UNL     1      -5.453  -0.146 127.317  0.00  0.00    +0.000 HD
ENDBRANCH  31  32
ENDBRANCH  24  26
ENDBRANCH  19  25
ENDBRANCH  18  20
ENDBRANCH   1  18
TORSDOF 8
ENDMDL
MODEL 3
REMARK VINA RESULT:      -9.0      2.250      4.248
REMARK  Name = CHEMBL196816
REMARK  9 active torsions:
REMARK  status: ('A' for Active; 'I' for Inactive)
REMARK    1  A    between atoms: C_1  and  C_2
REMARK    2  A    between atoms: C_2  and  C_25
REMARK    3  A    between atoms: N_3  and  N_4
REMARK    4  A    between atoms: C_5  and  C_7
REMARK    5  A    between atoms: C_7  and  N_8
REMARK    6  A    between atoms: N_8  and  C_9
REMARK    7  A    between atoms: N_8  and  S_16
REMARK    8  A    between atoms: S_16  and  C_19
REMARK    9  A    between atoms: C_30  and  O_31
REMARK                            x       y       z     vdW  Elec       q    Type
REMARK                         _______ _______ _______ _____ _____    ______ ____
ROOT
ATOM      1  N   UNL     1      -7.984  -0.216 126.858  0.00  0.00    +0.000 N 
ENDROOT
BRANCH   1   2
ATOM      2  C   UNL     1      -7.918  -1.371 126.004  0.00  0.00    +0.000 A 
ATOM      3  C   UNL     1      -8.879  -2.381 126.091  0.00  0.00    +0.000 A 
ATOM      4  C   UNL     1      -8.682  -3.599 125.431  0.00  0.00    +0.000 A 
ATOM      5  C   UNL     1      -7.616  -3.758 124.549  0.00  0.00    +0.000 A 
ATOM      6  C   UNL     1      -6.686  -2.741 124.428  0.00  0.00    +0.000 A 
ATOM      7 CL   UNL     1      -5.384  -2.879 123.312  0.00  0.00    +0.000 Cl
ATOM      8  C   UNL     1      -6.784  -1.613 125.234  0.00  0.00    +0.000 A 
ENDBRANCH   1   2
BRANCH   1   9
ATOM      9  S   UNL     1      -6.986  -0.065 128.248  0.00  0.00    +0.000 S 
ATOM     10  O   UNL     1      -5.777   0.608 127.829  0.00  0.00    +0.000 OA
ATOM     11  O   UNL     1      -7.795   0.518 129.310  0.00  0.00    +0.000 OA
BRANCH   9  12
ATOM     12  C   UNL     1      -6.516  -1.713 128.808  0.00  0.00    +0.000 A 
ATOM     13  C   UNL     1      -7.414  -2.507 129.526  0.00  0.00    +0.000 A 
ATOM     14  C   UNL     1      -6.956  -3.675 130.152  0.00  0.00    +0.000 A 
ATOM     15  C   UNL     1      -5.622  -4.068 130.028  0.00  0.00    +0.000 A 
ATOM     16  C   UNL     1      -4.756  -3.328 129.229  0.00  0.00    +0.000 A 
ATOM     17  C   UNL     1      -5.226  -2.197 128.556  0.00  0.00    +0.000 A 
ENDBRANCH   9  12
ENDBRANCH   1   9
BRANCH   1  18
ATOM     18  C   UNL     1      -8.965   0.894 126.556  0.00  0.00    +0.000 C 
BRANCH  18  20
ATOM     19  N   UNL     1      -7.554   1.825 124.688  0.00  0.00    +0.000 N 
ATOM     20  C   UNL     1      -8.834   1.593 125.172  0.00  0.00    +0.000 C 
ATOM     21  O   UNL     1      -9.802   1.974 124.509  0.00  0.00    +0.000 OA
ATOM     22  H   UNL     1      -6.751   1.787 125.297  0.00  0.00    +0.000 HD
BRANCH  19  25
ATOM     23  C   UNL     1      -6.078   4.234 124.173  0.00  0.00    +0.000 C 
ATOM     24  C   UNL     1      -6.759   3.385 123.125  0.00  0.00    +0.000 C 
ATOM     25  N   UNL     1      -7.453   2.318 123.399  0.00  0.00    +0.000 NA
BRANCH  24  26
ATOM     26  C   UNL     1      -6.616   3.805 121.676  0.00  0.00    +0.000 A 
ATOM     27  C   UNL     1      -5.400   4.324 121.195  0.00  0.00    +0.000 A 
ATOM     28  C   UNL     1      -5.317   4.866 119.901  0.00  0.00    +0.000 A 
ATOM     29  C   UNL     1      -6.425   4.840 119.055  0.00  0.00    +0.000 A 
ATOM     30  C   UNL     1      -7.625   4.294 119.505  0.00  0.00    +0.000 A 
ATOM     31  C   UNL     1      -7.717   3.785 120.805  0.00  0.00    +0.000 A 
BRANCH  31  32
ATOM     32  O   UNL     1      -8.925   3.304 121.226  0.00  0.00    +0.000 OA
ATOM     33  H   UNL     1      -9.204   2.565 120.664  0.00  0.00    +0.000 HD
ENDBRANCH  31  32
ENDBRANCH  24  26
ENDBRANCH  19  25
ENDBRANCH  18  20
ENDBRANCH   1  18
TORSDOF 8
ENDMDL
MODEL 4
REMARK VINA RESULT:      -9.0      2.713      3.393
REMARK  Name = CHEMBL196816
REMARK  9 active torsions:
REMARK  status: ('A' for Active; 'I' for Inactive)
REMARK    1  A    between atoms: C_1  and  C_2
REMARK    2  A    between atoms: C_2  and  C_25
REMARK    3  A    between atoms: N_3  and  N_4
REMARK    4  A    between atoms: C_5  and  C_7
REMARK    5  A    between atoms: C_7  and  N_8
REMARK    6  A    between atoms: N_8  and  C_9
REMARK    7  A    between atoms: N_8  and  S_16
REMARK    8  A    between atoms: S_16  and  C_19
REMARK    9  A    between atoms: C_30  and  O_31
REMARK                            x       y       z     vdW  Elec       q    Type
REMARK                         _______ _______ _______ _____ _____    ______ ____
ROOT
ATOM      1  N   UNL     1      -8.682  -0.094 126.146  0.00  0.00    +0.000 N 
ENDROOT
BRANCH   1   2
ATOM      2  C   UNL     1      -7.707   0.576 126.963  0.00  0.00    +0.000 A 
ATOM      3  C   UNL     1      -8.005   0.938 128.280  0.00  0.00    +0.000 A 
ATOM      4  C   UNL     1      -7.147   1.788 128.987  0.00  0.00    +0.000 A 
ATOM      5  C   UNL     1      -5.912   2.146 128.453  0.00  0.00    +0.000 A 
ATOM      6  C   UNL     1      -5.597   1.752 127.164  0.00  0.00    +0.000 A 
ATOM      7 CL   UNL     1      -4.061   2.133 126.488  0.00  0.00    +0.000 Cl
ATOM      8  C   UNL     1      -6.536   1.072 126.398  0.00  0.00    +0.000 A 
ENDBRANCH   1   2
BRANCH   1   9
ATOM      9  S   UNL     1      -8.594  -1.781 125.838  0.00  0.00    +0.000 S 
ATOM     10  O   UNL     1      -8.343  -2.428 127.107  0.00  0.00    +0.000 OA
ATOM     11  O   UNL     1      -9.774  -2.152 125.070  0.00  0.00    +0.000 OA
BRANCH   9  12
ATOM     12  C   UNL     1      -7.170  -2.106 124.780  0.00  0.00    +0.000 A 
ATOM     13  C   UNL     1      -7.122  -1.609 123.476  0.00  0.00    +0.000 A 
ATOM     14  C   UNL     1      -6.128  -2.067 122.599  0.00  0.00    +0.000 A 
ATOM     15  C   UNL     1      -5.166  -2.980 123.033  0.00  0.00    +0.000 A 
ATOM     16  C   UNL     1      -5.158  -3.394 124.361  0.00  0.00    +0.000 A 
ATOM     17  C   UNL     1      -6.112  -2.893 125.252  0.00  0.00    +0.000 A 
ENDBRANCH   9  12
ENDBRANCH   1   9
BRANCH   1  18
ATOM     18  C   UNL     1      -9.808   0.692 125.513  0.00  0.00    +0.000 C 
BRANCH  18  20
ATOM     19  N   UNL     1      -9.077   2.651 124.108  0.00  0.00    +0.000 N 
ATOM     20  C   UNL     1      -9.524   1.338 124.126  0.00  0.00    +0.000 C 
ATOM     21  O   UNL     1      -9.706   0.753 123.055  0.00  0.00    +0.000 OA
ATOM     22  H   UNL     1      -9.176   3.247 124.916  0.00  0.00    +0.000 HD
BRANCH  19  25
ATOM     23  C   UNL     1      -6.306   3.154 123.546  0.00  0.00    +0.000 C 
ATOM     24  C   UNL     1      -7.447   3.368 122.579  0.00  0.00    +0.000 C 
ATOM     25  N   UNL     1      -8.697   3.166 122.881  0.00  0.00    +0.000 NA
BRANCH  24  26
ATOM     26  C   UNL     1      -7.106   3.841 121.180  0.00  0.00    +0.000 A 
ATOM     27  C   UNL     1      -5.817   4.320 120.878  0.00  0.00    +0.000 A 
ATOM     28  C   UNL     1      -5.550   4.911 119.631  0.00  0.00    +0.000 A 
ATOM     29  C   UNL     1      -6.544   4.976 118.655  0.00  0.00    +0.000 A 
ATOM     30  C   UNL     1      -7.813   4.472 118.929  0.00  0.00    +0.000 A 
ATOM     31  C   UNL     1      -8.089   3.913 120.181  0.00  0.00    +0.000 A 
BRANCH  31  32
ATOM     32  O   UNL     1      -9.360   3.476 120.427  0.00  0.00    +0.000 OA
ATOM     33  H   UNL     1      -9.694   3.866 121.250  0.00  0.00    +0.000 HD
ENDBRANCH  31  32
ENDBRANCH  24  26
ENDBRANCH  19  25
ENDBRANCH  18  20
ENDBRANCH   1  18
TORSDOF 8
ENDMDL
MODEL 5
REMARK VINA RESULT:      -8.6      5.206      7.169
REMARK  Name = CHEMBL196816
REMARK  9 active torsions:
REMARK  status: ('A' for Active; 'I' for Inactive)
REMARK    1  A    between atoms: C_1  and  C_2
REMARK    2  A    between atoms: C_2  and  C_25
REMARK    3  A    between atoms: N_3  and  N_4
REMARK    4  A    between atoms: C_5  and  C_7
REMARK    5  A    between atoms: C_7  and  N_8
REMARK    6  A    between atoms: N_8  and  C_9
REMARK    7  A    between atoms: N_8  and  S_16
REMARK    8  A    between atoms: S_16  and  C_19
REMARK    9  A    between atoms: C_30  and  O_31
REMARK                            x       y       z     vdW  Elec       q    Type
REMARK                         _______ _______ _______ _____ _____    ______ ____
ROOT
ATOM      1  N   UNL     1      -7.144   1.295 126.487  0.00  0.00    +0.000 N 
ENDROOT
BRANCH   1   2
ATOM      2  C   UNL     1      -7.677   1.826 125.262  0.00  0.00    +0.000 A 
ATOM      3  C   UNL     1      -9.031   1.677 124.946  0.00  0.00    +0.000 A 
ATOM      4  C   UNL     1      -9.493   1.985 123.661  0.00  0.00    +0.000 A 
ATOM      5  C   UNL     1      -8.649   2.599 122.739  0.00  0.00    +0.000 A 
ATOM      6  C   UNL     1      -7.318   2.787 123.065  0.00  0.00    +0.000 A 
ATOM      7 CL   UNL     1      -6.258   3.587 121.971  0.00  0.00    +0.000 Cl
ATOM      8  C   UNL     1      -6.825   2.301 124.270  0.00  0.00    +0.000 A 
ENDBRANCH   1   2
BRANCH   1   9
ATOM      9  S   UNL     1      -6.836  -0.384 126.682  0.00  0.00    +0.000 S 
ATOM     10  O   UNL     1      -5.408  -0.532 126.856  0.00  0.00    +0.000 OA
ATOM     11  O   UNL     1      -7.735  -0.880 127.714  0.00  0.00    +0.000 OA
BRANCH   9  12
ATOM     12  C   UNL     1      -7.281  -1.238 125.158  0.00  0.00    +0.000 A 
ATOM     13  C   UNL     1      -6.407  -1.257 124.068  0.00  0.00    +0.000 A 
ATOM     14  C   UNL     1      -6.864  -1.716 122.825  0.00  0.00    +0.000 A 
ATOM     15  C   UNL     1      -8.169  -2.190 122.681  0.00  0.00    +0.000 A 
ATOM     16  C   UNL     1      -9.003  -2.263 123.792  0.00  0.00    +0.000 A 
ATOM     17  C   UNL     1      -8.530  -1.862 125.044  0.00  0.00    +0.000 A 
ENDBRANCH   9  12
ENDBRANCH   1   9
BRANCH   1  18
ATOM     18  C   UNL     1      -6.863   2.216 127.652  0.00  0.00    +0.000 C 
BRANCH  18  20
ATOM     19  N   UNL     1      -7.916   4.409 128.308  0.00  0.00    +0.000 N 
ATOM     20  C   UNL     1      -8.064   3.032 128.211  0.00  0.00    +0.000 C 
ATOM     21  O   UNL     1      -9.115   2.515 128.596  0.00  0.00    +0.000 OA
ATOM     22  H   UNL     1      -7.005   4.840 128.269  0.00  0.00    +0.000 HD
BRANCH  19  25
ATOM     23  C   UNL     1      -8.036   5.690 130.875  0.00  0.00    +0.000 C 
ATOM     24  C   UNL     1      -9.108   5.760 129.812  0.00  0.00    +0.000 C 
ATOM     25  N   UNL     1      -9.036   5.134 128.673  0.00  0.00    +0.000 NA
BRANCH  24  26
ATOM     26  C   UNL     1     -10.328   6.613 130.096  0.00  0.00    +0.000 A 
ATOM     27  C   UNL     1     -11.131   6.365 131.225  0.00  0.00    +0.000 A 
ATOM     28  C   UNL     1     -12.349   7.044 131.397  0.00  0.00    +0.000 A 
ATOM     29  C   UNL     1     -12.749   8.017 130.482  0.00  0.00    +0.000 A 
ATOM     30  C   UNL     1     -11.945   8.298 129.380  0.00  0.00    +0.000 A 
ATOM     31  C   UNL     1     -10.748   7.599 129.190  0.00  0.00    +0.000 A 
BRANCH  31  32
ATOM     32  O   UNL     1     -10.013   7.869 128.070  0.00  0.00    +0.000 OA
ATOM     33  H   UNL     1     -10.175   8.779 127.777  0.00  0.00    +0.000 HD
ENDBRANCH  31  32
ENDBRANCH  24  26
ENDBRANCH  19  25
ENDBRANCH  18  20
ENDBRANCH   1  18
TORSDOF 8
ENDMDL
MODEL 6
REMARK VINA RESULT:      -8.5      5.969      7.847
REMARK  Name = CHEMBL196816
REMARK  9 active torsions:
REMARK  status: ('A' for Active; 'I' for Inactive)
REMARK    1  A    between atoms: C_1  and  C_2
REMARK    2  A    between atoms: C_2  and  C_25
REMARK    3  A    between atoms: N_3  and  N_4
REMARK    4  A    between atoms: C_5  and  C_7
REMARK    5  A    between atoms: C_7  and  N_8
REMARK    6  A    between atoms: N_8  and  C_9
REMARK    7  A    between atoms: N_8  and  S_16
REMARK    8  A    between atoms: S_16  and  C_19
REMARK    9  A    between atoms: C_30  and  O_31
REMARK                            x       y       z     vdW  Elec       q    Type
REMARK                         _______ _______ _______ _____ _____    ______ ____
ROOT
ATOM      1  N   UNL     1      -5.084   3.255 128.144  0.00  0.00    +0.000 N 
ENDROOT
BRANCH   1   2
ATOM      2  C   UNL     1      -4.312   4.398 128.551  0.00  0.00    +0.000 A 
ATOM      3  C   UNL     1      -4.201   5.518 127.723  0.00  0.00    +0.000 A 
ATOM      4  C   UNL     1      -3.269   6.520 128.015  0.00  0.00    +0.000 A 
ATOM      5  C   UNL     1      -2.565   6.498 129.216  0.00  0.00    +0.000 A 
ATOM      6  C   UNL     1      -2.706   5.409 130.059  0.00  0.00    +0.000 A 
ATOM      7 CL   UNL     1      -1.891   5.370 131.574  0.00  0.00    +0.000 Cl
ATOM      8  C   UNL     1      -3.486   4.328 129.669  0.00  0.00    +0.000 A 
ENDBRANCH   1   2
BRANCH   1   9
ATOM      9  S   UNL     1      -4.610   2.274 126.817  0.00  0.00    +0.000 S 
ATOM     10  O   UNL     1      -3.208   2.534 126.580  0.00  0.00    +0.000 OA
ATOM     11  O   UNL     1      -5.046   0.913 127.097  0.00  0.00    +0.000 OA
BRANCH   9  12
ATOM     12  C   UNL     1      -5.509   2.809 125.348  0.00  0.00    +0.000 A 
ATOM     13  C   UNL     1      -6.500   2.001 124.784  0.00  0.00    +0.000 A 
ATOM     14  C   UNL     1      -7.015   2.322 123.520  0.00  0.00    +0.000 A 
ATOM     15  C   UNL     1      -6.574   3.461 122.843  0.00  0.00    +0.000 A 
ATOM     16  C   UNL     1      -5.662   4.316 123.454  0.00  0.00    +0.000 A 
ATOM     17  C   UNL     1      -5.192   4.029 124.739  0.00  0.00    +0.000 A 
ENDBRANCH   9  12
ENDBRANCH   1   9
BRANCH   1  18
ATOM     18  C   UNL     1      -6.361   2.904 128.875  0.00  0.00    +0.000 C 
BRANCH  18  20
ATOM     19  N   UNL     1      -8.394   4.220 129.570  0.00  0.00    +0.000 N 
ATOM     20  C   UNL     1      -7.627   3.735 128.520  0.00  0.00    +0.000 C 
ATOM     21  O   UNL     1      -7.993   3.953 127.363  0.00  0.00    +0.000 OA
ATOM     22  H   UNL     1      -8.297   3.847 130.502  0.00  0.00    +0.000 HD
BRANCH  19  25
ATOM     23  C   UNL     1      -8.611   6.790 130.833  0.00  0.00    +0.000 C 
ATOM     24  C   UNL     1      -9.541   6.258 129.767  0.00  0.00    +0.000 C 
ATOM     25  N   UNL     1      -9.435   5.071 129.244  0.00  0.00    +0.000 NA
BRANCH  24  26
ATOM     26  C   UNL     1     -10.654   7.166 129.285  0.00  0.00    +0.000 A 
ATOM     27  C   UNL     1     -11.548   7.755 130.199  0.00  0.00    +0.000 A 
ATOM     28  C   UNL     1     -12.675   8.460 129.742  0.00  0.00    +0.000 A 
ATOM     29  C   UNL     1     -12.889   8.636 128.376  0.00  0.00    +0.000 A 
ATOM     30  C   UNL     1     -11.991   8.090 127.461  0.00  0.00    +0.000 A 
ATOM     31  C   UNL     1     -10.887   7.360 127.915  0.00  0.00    +0.000 A 
BRANCH  31  32
ATOM     32  O   UNL     1     -10.058   6.799 126.985  0.00  0.00    +0.000 OA
ATOM     33  H   UNL     1      -9.143   7.076 127.143  0.00  0.00    +0.000 HD
ENDBRANCH  31  32
ENDBRANCH  24  26
ENDBRANCH  19  25
ENDBRANCH  18  20
ENDBRANCH   1  18
TORSDOF 8
ENDMDL
MODEL 7
REMARK VINA RESULT:      -8.5      2.426      7.721
REMARK  Name = CHEMBL196816
REMARK  9 active torsions:
REMARK  status: ('A' for Active; 'I' for Inactive)
REMARK    1  A    between atoms: C_1  and  C_2
REMARK    2  A    between atoms: C_2  and  C_25
REMARK    3  A    between atoms: N_3  and  N_4
REMARK    4  A    between atoms: C_5  and  C_7
REMARK    5  A    between atoms: C_7  and  N_8
REMARK    6  A    between atoms: N_8  and  C_9
REMARK    7  A    between atoms: N_8  and  S_16
REMARK    8  A    between atoms: S_16  and  C_19
REMARK    9  A    between atoms: C_30  and  O_31
REMARK                            x       y       z     vdW  Elec       q    Type
REMARK                         _______ _______ _______ _____ _____    ______ ____
ROOT
ATOM      1  N   UNL     1      -8.313   1.433 125.011  0.00  0.00    +0.000 N 
ENDROOT
BRANCH   1   2
ATOM      2  C   UNL     1      -8.253   0.369 124.046  0.00  0.00    +0.000 A 
ATOM      3  C   UNL     1      -9.397  -0.030 123.349  0.00  0.00    +0.000 A 
ATOM      4  C   UNL     1      -9.386  -1.207 122.592  0.00  0.00    +0.000 A 
ATOM      5  C   UNL     1      -8.196  -1.902 122.389  0.00  0.00    +0.000 A 
ATOM      6  C   UNL     1      -7.052  -1.484 123.045  0.00  0.00    +0.000 A 
ATOM      7 CL   UNL     1      -5.554  -2.287 122.779  0.00  0.00    +0.000 Cl
ATOM      8  C   UNL     1      -7.117  -0.429 123.947  0.00  0.00    +0.000 A 
ENDBRANCH   1   2
BRANCH   1   9
ATOM      9  S   UNL     1      -7.692   2.997 124.667  0.00  0.00    +0.000 S 
ATOM     10  O   UNL     1      -8.691   3.951 125.093  0.00  0.00    +0.000 OA
ATOM     11  O   UNL     1      -6.350   3.071 125.228  0.00  0.00    +0.000 OA
BRANCH   9  12
ATOM     12  C   UNL     1      -7.512   3.171 122.881  0.00  0.00    +0.000 A 
ATOM     13  C   UNL     1      -6.246   3.246 122.295  0.00  0.00    +0.000 A 
ATOM     14  C   UNL     1      -6.130   3.617 120.947  0.00  0.00    +0.000 A 
ATOM     15  C   UNL     1      -7.270   3.872 120.182  0.00  0.00    +0.000 A 
ATOM     16  C   UNL     1      -8.531   3.697 120.744  0.00  0.00    +0.000 A 
ATOM     17  C   UNL     1      -8.649   3.269 122.069  0.00  0.00    +0.000 A 
ENDBRANCH   9  12
ENDBRANCH   1   9
BRANCH   1  18
ATOM     18  C   UNL     1      -8.913   1.184 126.377  0.00  0.00    +0.000 C 
BRANCH  18  20
ATOM     19  N   UNL     1      -7.935  -0.842 127.511  0.00  0.00    +0.000 N 
ATOM     20  C   UNL     1      -7.983   0.543 127.448  0.00  0.00    +0.000 C 
ATOM     21  O   UNL     1      -7.321   1.201 128.253  0.00  0.00    +0.000 OA
ATOM     22  H   UNL     1      -8.646  -1.409 127.075  0.00  0.00    +0.000 HD
BRANCH  19  25
ATOM     23  C   UNL     1      -8.280  -3.523 128.483  0.00  0.00    +0.000 C 
ATOM     24  C   UNL     1      -7.108  -2.622 128.798  0.00  0.00    +0.000 C 
ATOM     25  N   UNL     1      -7.003  -1.397 128.370  0.00  0.00    +0.000 NA
BRANCH  24  26
ATOM     26  C   UNL     1      -5.995  -3.188 129.657  0.00  0.00    +0.000 A 
ATOM     27  C   UNL     1      -6.273  -4.133 130.662  0.00  0.00    +0.000 A 
ATOM     28  C   UNL     1      -5.272  -4.530 131.565  0.00  0.00    +0.000 A 
ATOM     29  C   UNL     1      -3.974  -4.039 131.438  0.00  0.00    +0.000 A 
ATOM     30  C   UNL     1      -3.676  -3.131 130.423  0.00  0.00    +0.000 A 
ATOM     31  C   UNL     1      -4.681  -2.710 129.545  0.00  0.00    +0.000 A 
BRANCH  31  32
ATOM     32  O   UNL     1      -4.359  -1.780 128.596  0.00  0.00    +0.000 OA
ATOM     33  H   UNL     1      -3.445  -1.909 128.300  0.00  0.00    +0.000 HD
ENDBRANCH  31  32
ENDBRANCH  24  26
ENDBRANCH  19  25
ENDBRANCH  18  20
ENDBRANCH   1  18
TORSDOF 8
ENDMDL
MODEL 8
REMARK VINA RESULT:      -8.4      3.259      3.909
REMARK  Name = CHEMBL196816
REMARK  9 active torsions:
REMARK  status: ('A' for Active; 'I' for Inactive)
REMARK    1  A    between atoms: C_1  and  C_2
REMARK    2  A    between atoms: C_2  and  C_25
REMARK    3  A    between atoms: N_3  and  N_4
REMARK    4  A    between atoms: C_5  and  C_7
REMARK    5  A    between atoms: C_7  and  N_8
REMARK    6  A    between atoms: N_8  and  C_9
REMARK    7  A    between atoms: N_8  and  S_16
REMARK    8  A    between atoms: S_16  and  C_19
REMARK    9  A    between atoms: C_30  and  O_31
REMARK                            x       y       z     vdW  Elec       q    Type
REMARK                         _______ _______ _______ _____ _____    ______ ____
ROOT
ATOM      1  N   UNL     1      -8.944  -1.225 125.446  0.00  0.00    +0.000 N 
ENDROOT
BRANCH   1   2
ATOM      2  C   UNL     1      -8.611  -2.150 126.496  0.00  0.00    +0.000 A 
ATOM      3  C   UNL     1      -9.410  -3.270 126.742  0.00  0.00    +0.000 A 
ATOM      4  C   UNL     1      -9.218  -4.031 127.901  0.00  0.00    +0.000 A 
ATOM      5  C   UNL     1      -8.127  -3.785 128.732  0.00  0.00    +0.000 A 
ATOM      6  C   UNL     1      -7.309  -2.702 128.465  0.00  0.00    +0.000 A 
ATOM      7 CL   UNL     1      -5.924  -2.396 129.439  0.00  0.00    +0.000 Cl
ATOM      8  C   UNL     1      -7.622  -1.837 127.423  0.00  0.00    +0.000 A 
ENDBRANCH   1   2
BRANCH   1   9
ATOM      9  S   UNL     1      -8.686  -1.608 123.792  0.00  0.00    +0.000 S 
ATOM     10  O   UNL     1      -9.779  -2.461 123.382  0.00  0.00    +0.000 OA
ATOM     11  O   UNL     1      -8.451  -0.359 123.082  0.00  0.00    +0.000 OA
BRANCH   9  12
ATOM     12  C   UNL     1      -7.170  -2.573 123.648  0.00  0.00    +0.000 A 
ATOM     13  C   UNL     1      -7.070  -3.838 124.233  0.00  0.00    +0.000 A 
ATOM     14  C   UNL     1      -5.818  -4.465 124.314  0.00  0.00    +0.000 A 
ATOM     15  C   UNL     1      -4.684  -3.852 123.780  0.00  0.00    +0.000 A 
ATOM     16  C   UNL     1      -4.806  -2.639 123.109  0.00  0.00    +0.000 A 
ATOM     17  C   UNL     1      -6.062  -2.042 122.975  0.00  0.00    +0.000 A 
ENDBRANCH   9  12
ENDBRANCH   1   9
BRANCH   1  18
ATOM     18  C   UNL     1      -9.515   0.133 125.787  0.00  0.00    +0.000 C 
BRANCH  18  20
ATOM     19  N   UNL     1      -7.225   1.182 125.734  0.00  0.00    +0.000 N 
ATOM     20  C   UNL     1      -8.508   1.222 126.260  0.00  0.00    +0.000 C 
ATOM     21  O   UNL     1      -8.787   2.088 127.093  0.00  0.00    +0.000 OA
ATOM     22  H   UNL     1      -6.874   0.355 125.276  0.00  0.00    +0.000 HD
BRANCH  19  25
ATOM     23  C   UNL     1      -5.199   0.857 127.743  0.00  0.00    +0.000 C 
ATOM     24  C   UNL     1      -5.432   2.110 126.930  0.00  0.00    +0.000 C 
ATOM     25  N   UNL     1      -6.385   2.234 126.054  0.00  0.00    +0.000 NA
BRANCH  24  26
ATOM     26  C   UNL     1      -4.493   3.279 127.153  0.00  0.00    +0.000 A 
ATOM     27  C   UNL     1      -3.101   3.119 127.015  0.00  0.00    +0.000 A 
ATOM     28  C   UNL     1      -2.224   4.154 127.382  0.00  0.00    +0.000 A 
ATOM     29  C   UNL     1      -2.725   5.375 127.830  0.00  0.00    +0.000 A 
ATOM     30  C   UNL     1      -4.102   5.560 127.935  0.00  0.00    +0.000 A 
ATOM     31  C   UNL     1      -4.974   4.518 127.602  0.00  0.00    +0.000 A 
BRANCH  31  32
ATOM     32  O   UNL     1      -6.315   4.722 127.767  0.00  0.00    +0.000 OA
ATOM     33  H   UNL     1      -6.592   5.523 127.295  0.00  0.00    +0.000 HD
ENDBRANCH  31  32
ENDBRANCH  24  26
ENDBRANCH  19  25
ENDBRANCH  18  20
ENDBRANCH   1  18
TORSDOF 8
ENDMDL
MODEL 9
REMARK VINA RESULT:      -8.3      7.347      9.581
REMARK  Name = CHEMBL196816
REMARK  9 active torsions:
REMARK  status: ('A' for Active; 'I' for Inactive)
REMARK    1  A    between atoms: C_1  and  C_2
REMARK    2  A    between atoms: C_2  and  C_25
REMARK    3  A    between atoms: N_3  and  N_4
REMARK    4  A    between atoms: C_5  and  C_7
REMARK    5  A    between atoms: C_7  and  N_8
REMARK    6  A    between atoms: N_8  and  C_9
REMARK    7  A    between atoms: N_8  and  S_16
REMARK    8  A    between atoms: S_16  and  C_19
REMARK    9  A    between atoms: C_30  and  O_31
REMARK                            x       y       z     vdW  Elec       q    Type
REMARK                         _______ _______ _______ _____ _____    ______ ____
ROOT
ATOM      1  N   UNL     1      -5.504   3.230 129.921  0.00  0.00    +0.000 N 
ENDROOT
BRANCH   1   2
ATOM      2  C   UNL     1      -4.725   4.330 129.421  0.00  0.00    +0.000 A 
ATOM      3  C   UNL     1      -3.652   4.111 128.553  0.00  0.00    +0.000 A 
ATOM      4  C   UNL     1      -2.761   5.150 128.258  0.00  0.00    +0.000 A 
ATOM      5  C   UNL     1      -3.026   6.447 128.687  0.00  0.00    +0.000 A 
ATOM      6  C   UNL     1      -4.114   6.675 129.512  0.00  0.00    +0.000 A 
ATOM      7 CL   UNL     1      -4.502   8.272 130.021  0.00  0.00    +0.000 Cl
ATOM      8  C   UNL     1      -4.880   5.605 129.958  0.00  0.00    +0.000 A 
ENDBRANCH   1   2
BRANCH   1   9
ATOM      9  S   UNL     1      -5.174   2.513 131.447  0.00  0.00    +0.000 S 
ATOM     10  O   UNL     1      -5.516   1.113 131.337  0.00  0.00    +0.000 OA
ATOM     11  O   UNL     1      -3.819   2.889 131.826  0.00  0.00    +0.000 OA
BRANCH   9  12
ATOM     12  C   UNL     1      -6.272   3.238 132.680  0.00  0.00    +0.000 A 
ATOM     13  C   UNL     1      -7.481   2.621 133.009  0.00  0.00    +0.000 A 
ATOM     14  C   UNL     1      -8.421   3.315 133.785  0.00  0.00    +0.000 A 
ATOM     15  C   UNL     1      -8.138   4.596 134.261  0.00  0.00    +0.000 A 
ATOM     16  C   UNL     1      -6.893   5.164 134.016  0.00  0.00    +0.000 A 
ATOM     17  C   UNL     1      -5.933   4.450 133.293  0.00  0.00    +0.000 A 
ENDBRANCH   9  12
ENDBRANCH   1   9
BRANCH   1  18
ATOM     18  C   UNL     1      -6.630   2.660 129.089  0.00  0.00    +0.000 C 
BRANCH  18  20
ATOM     19  N   UNL     1      -8.695   3.774 130.008  0.00  0.00    +0.000 N 
ATOM     20  C   UNL     1      -7.889   3.555 128.900  0.00  0.00    +0.000 C 
ATOM     21  O   UNL     1      -8.215   4.047 127.817  0.00  0.00    +0.000 OA
ATOM     22  H   UNL     1      -8.629   3.187 130.825  0.00  0.00    +0.000 HD
BRANCH  19  25
ATOM     23  C   UNL     1      -8.400   6.471 130.951  0.00  0.00    +0.000 C 
ATOM     24  C   UNL     1      -9.615   5.921 130.240  0.00  0.00    +0.000 C 
ATOM     25  N   UNL     1      -9.729   4.682 129.860  0.00  0.00    +0.000 NA
BRANCH  24  26
ATOM     26  C   UNL     1     -10.757   6.876 129.953  0.00  0.00    +0.000 A 
ATOM     27  C   UNL     1     -10.676   7.793 128.889  0.00  0.00    +0.000 A 
ATOM     28  C   UNL     1     -11.658   8.786 128.727  0.00  0.00    +0.000 A 
ATOM     29  C   UNL     1     -12.756   8.837 129.584  0.00  0.00    +0.000 A 
ATOM     30  C   UNL     1     -12.867   7.911 130.619  0.00  0.00    +0.000 A 
ATOM     31  C   UNL     1     -11.873   6.943 130.801  0.00  0.00    +0.000 A 
BRANCH  31  32
ATOM     32  O   UNL     1     -11.993   6.086 131.858  0.00  0.00    +0.000 OA
ATOM     33  H   UNL     1     -11.116   5.819 132.173  0.00  0.00    +0.000 HD
ENDBRANCH  31  32
ENDBRANCH  24  26
ENDBRANCH  19  25
ENDBRANCH  18  20
ENDBRANCH   1  18
TORSDOF 8
ENDMDL
