MODEL 1
REMARK VINA RESULT:      -6.0      0.000      0.000
REMARK  Name = "1	2-Benzodiazepine"
REMARK  0 active torsions:
REMARK  status: ('A' for Active; 'I' for Inactive)
REMARK                            x       y       z     vdW  Elec       q    Type
REMARK                         _______ _______ _______ _____ _____    ______ ____
ROOT
ATOM      1  N   UNL     1     -11.561   6.268 131.796  0.00  0.00    +0.000 N 
ATOM      2  N   UNL     1     -10.550   5.833 132.566  0.00  0.00    +0.000 NA
ATOM      3  C   UNL     1      -9.300   6.007 132.327  0.00  0.00    +0.000 C 
ATOM      4  C   UNL     1      -8.555   6.665 131.251  0.00  0.00    +0.000 C 
ATOM      5  C   UNL     1      -9.081   7.283 130.196  0.00  0.00    +0.000 C 
ATOM      6  C   UNL     1     -10.491   7.454 129.854  0.00  0.00    +0.000 A 
ATOM      7  C   UNL     1     -10.708   8.168 128.652  0.00  0.00    +0.000 A 
ATOM      8  C   UNL     1     -11.983   8.427 128.166  0.00  0.00    +0.000 A 
ATOM      9  C   UNL     1     -13.078   7.975 128.878  0.00  0.00    +0.000 A 
ATOM     10  C   UNL     1     -12.881   7.268 130.068  0.00  0.00    +0.000 A 
ATOM     11  C   UNL     1     -11.591   6.989 130.588  0.00  0.00    +0.000 A 
ATOM     12  H   UNL     1     -12.483   6.030 132.158  0.00  0.00    +0.000 HD
ENDROOT
TORSDOF 0
ENDMDL
MODEL 2
REMARK VINA RESULT:      -5.8      2.390      4.487
REMARK  Name = "1	2-Benzodiazepine"
REMARK  0 active torsions:
REMARK  status: ('A' for Active; 'I' for Inactive)
REMARK                            x       y       z     vdW  Elec       q    Type
REMARK                         _______ _______ _______ _____ _____    ______ ____
ROOT
ATOM      1  N   UNL     1     -10.342   6.875 127.688  0.00  0.00    +0.000 N 
ATOM      2  N   UNL     1     -11.054   7.030 126.560  0.00  0.00    +0.000 NA
ATOM      3  C   UNL     1     -12.334   7.121 126.490  0.00  0.00    +0.000 C 
ATOM      4  C   UNL     1     -13.408   7.094 127.485  0.00  0.00    +0.000 C 
ATOM      5  C   UNL     1     -13.257   6.959 128.801  0.00  0.00    +0.000 C 
ATOM      6  C   UNL     1     -12.019   6.806 129.560  0.00  0.00    +0.000 A 
ATOM      7  C   UNL     1     -12.213   6.686 130.957  0.00  0.00    +0.000 A 
ATOM      8  C   UNL     1     -11.152   6.532 131.841  0.00  0.00    +0.000 A 
ATOM      9  C   UNL     1      -9.863   6.496 131.343  0.00  0.00    +0.000 A 
ATOM     10  C   UNL     1      -9.654   6.613 129.965  0.00  0.00    +0.000 A 
ATOM     11  C   UNL     1     -10.718   6.771 129.040  0.00  0.00    +0.000 A 
ATOM     12  H   UNL     1      -9.336   6.825 127.534  0.00  0.00    +0.000 HD
ENDROOT
TORSDOF 0
ENDMDL
MODEL 3
REMARK VINA RESULT:      -5.8      1.062      3.949
REMARK  Name = "1	2-Benzodiazepine"
REMARK  0 active torsions:
REMARK  status: ('A' for Active; 'I' for Inactive)
REMARK                            x       y       z     vdW  Elec       q    Type
REMARK                         _______ _______ _______ _____ _____    ______ ____
ROOT
ATOM      1  N   UNL     1     -11.295   6.095 132.227  0.00  0.00    +0.000 N 
ATOM      2  N   UNL     1     -12.377   6.480 131.530  0.00  0.00    +0.000 NA
ATOM      3  C   UNL     1     -12.360   7.112 130.412  0.00  0.00    +0.000 C 
ATOM      4  C   UNL     1     -11.290   7.612 129.546  0.00  0.00    +0.000 C 
ATOM      5  C   UNL     1      -9.983   7.496 129.766  0.00  0.00    +0.000 C 
ATOM      6  C   UNL     1      -9.306   6.863 130.895  0.00  0.00    +0.000 A 
ATOM      7  C   UNL     1      -7.893   6.914 130.820  0.00  0.00    +0.000 A 
ATOM      8  C   UNL     1      -7.080   6.365 131.804  0.00  0.00    +0.000 A 
ATOM      9  C   UNL     1      -7.667   5.745 132.891  0.00  0.00    +0.000 A 
ATOM     10  C   UNL     1      -9.061   5.685 132.980  0.00  0.00    +0.000 A 
ATOM     11  C   UNL     1      -9.915   6.238 131.991  0.00  0.00    +0.000 A 
ATOM     12  H   UNL     1     -11.518   5.605 133.092  0.00  0.00    +0.000 HD
ENDROOT
TORSDOF 0
ENDMDL
MODEL 4
REMARK VINA RESULT:      -5.8      1.467      3.742
REMARK  Name = "1	2-Benzodiazepine"
REMARK  0 active torsions:
REMARK  status: ('A' for Active; 'I' for Inactive)
REMARK                            x       y       z     vdW  Elec       q    Type
REMARK                         _______ _______ _______ _____ _____    ______ ____
ROOT
ATOM      1  N   UNL     1     -12.779   7.078 130.038  0.00  0.00    +0.000 N 
ATOM      2  N   UNL     1     -13.259   7.649 128.921  0.00  0.00    +0.000 NA
ATOM      3  C   UNL     1     -12.552   8.196 127.997  0.00  0.00    +0.000 C 
ATOM      4  C   UNL     1     -11.114   8.398 127.807  0.00  0.00    +0.000 C 
ATOM      5  C   UNL     1     -10.150   8.013 128.639  0.00  0.00    +0.000 C 
ATOM      6  C   UNL     1     -10.279   7.313 129.915  0.00  0.00    +0.000 A 
ATOM      7  C   UNL     1      -9.043   7.051 130.553  0.00  0.00    +0.000 A 
ATOM      8  C   UNL     1      -8.966   6.395 131.776  0.00  0.00    +0.000 A 
ATOM      9  C   UNL     1     -10.134   5.984 132.390  0.00  0.00    +0.000 A 
ATOM     10  C   UNL     1     -11.363   6.235 131.774  0.00  0.00    +0.000 A 
ATOM     11  C   UNL     1     -11.470   6.902 130.526  0.00  0.00    +0.000 A 
ATOM     12  H   UNL     1     -13.501   6.699 130.648  0.00  0.00    +0.000 HD
ENDROOT
TORSDOF 0
ENDMDL
MODEL 5
REMARK VINA RESULT:      -5.7      1.416      2.252
REMARK  Name = "1	2-Benzodiazepine"
REMARK  0 active torsions:
REMARK  status: ('A' for Active; 'I' for Inactive)
REMARK                            x       y       z     vdW  Elec       q    Type
REMARK                         _______ _______ _______ _____ _____    ______ ____
ROOT
ATOM      1  N   UNL     1      -9.087   7.434 129.998  0.00  0.00    +0.000 N 
ATOM      2  N   UNL     1      -8.448   6.848 131.024  0.00  0.00    +0.000 NA
ATOM      3  C   UNL     1      -9.010   6.256 132.016  0.00  0.00    +0.000 C 
ATOM      4  C   UNL     1     -10.405   6.010 132.392  0.00  0.00    +0.000 C 
ATOM      5  C   UNL     1     -11.481   6.387 131.706  0.00  0.00    +0.000 C 
ATOM      6  C   UNL     1     -11.541   7.121 130.444  0.00  0.00    +0.000 A 
ATOM      7  C   UNL     1     -12.857   7.362 129.983  0.00  0.00    +0.000 A 
ATOM      8  C   UNL     1     -13.113   8.047 128.801  0.00  0.00    +0.000 A 
ATOM      9  C   UNL     1     -12.049   8.508 128.049  0.00  0.00    +0.000 A 
ATOM     10  C   UNL     1     -10.742   8.278 128.490  0.00  0.00    +0.000 A 
ATOM     11  C   UNL     1     -10.452   7.582 129.693  0.00  0.00    +0.000 A 
ATOM     12  H   UNL     1      -8.462   7.848 129.309  0.00  0.00    +0.000 HD
ENDROOT
TORSDOF 0
ENDMDL
MODEL 6
REMARK VINA RESULT:      -5.7      9.971     10.800
REMARK  Name = "1	2-Benzodiazepine"
REMARK  0 active torsions:
REMARK  status: ('A' for Active; 'I' for Inactive)
REMARK                            x       y       z     vdW  Elec       q    Type
REMARK                         _______ _______ _______ _____ _____    ______ ____
ROOT
ATOM      1  N   UNL     1      -5.752   3.768 122.571  0.00  0.00    +0.000 N 
ATOM      2  N   UNL     1      -6.342   3.161 123.614  0.00  0.00    +0.000 NA
ATOM      3  C   UNL     1      -7.555   2.736 123.644  0.00  0.00    +0.000 C 
ATOM      4  C   UNL     1      -8.655   2.741 122.676  0.00  0.00    +0.000 C 
ATOM      5  C   UNL     1      -8.613   3.236 121.442  0.00  0.00    +0.000 C 
ATOM      6  C   UNL     1      -7.493   3.881 120.761  0.00  0.00    +0.000 A 
ATOM      7  C   UNL     1      -7.786   4.295 119.439  0.00  0.00    +0.000 A 
ATOM      8  C   UNL     1      -6.845   4.928 118.637  0.00  0.00    +0.000 A 
ATOM      9  C   UNL     1      -5.580   5.161 119.142  0.00  0.00    +0.000 A 
ATOM     10  C   UNL     1      -5.274   4.759 120.446  0.00  0.00    +0.000 A 
ATOM     11  C   UNL     1      -6.215   4.110 121.287  0.00  0.00    +0.000 A 
ATOM     12  H   UNL     1      -4.783   4.030 122.745  0.00  0.00    +0.000 HD
ENDROOT
TORSDOF 0
ENDMDL
MODEL 7
REMARK VINA RESULT:      -5.3     11.094     11.539
REMARK  Name = "1	2-Benzodiazepine"
REMARK  0 active torsions:
REMARK  status: ('A' for Active; 'I' for Inactive)
REMARK                            x       y       z     vdW  Elec       q    Type
REMARK                         _______ _______ _______ _____ _____    ______ ____
ROOT
ATOM      1  N   UNL     1      -6.358  -2.068 126.539  0.00  0.00    +0.000 N 
ATOM      2  N   UNL     1      -6.314  -2.263 127.868  0.00  0.00    +0.000 NA
ATOM      3  C   UNL     1      -7.214  -2.857 128.566  0.00  0.00    +0.000 C 
ATOM      4  C   UNL     1      -8.497  -3.486 128.243  0.00  0.00    +0.000 C 
ATOM      5  C   UNL     1      -9.043  -3.580 127.034  0.00  0.00    +0.000 C 
ATOM      6  C   UNL     1      -8.518  -3.093 125.761  0.00  0.00    +0.000 A 
ATOM      7  C   UNL     1      -9.357  -3.360 124.653  0.00  0.00    +0.000 A 
ATOM      8  C   UNL     1      -9.023  -2.971 123.361  0.00  0.00    +0.000 A 
ATOM      9  C   UNL     1      -7.833  -2.302 123.149  0.00  0.00    +0.000 A 
ATOM     10  C   UNL     1      -6.992  -2.030 124.232  0.00  0.00    +0.000 A 
ATOM     11  C   UNL     1      -7.308  -2.416 125.561  0.00  0.00    +0.000 A 
ATOM     12  H   UNL     1      -5.546  -1.576 126.171  0.00  0.00    +0.000 HD
ENDROOT
TORSDOF 0
ENDMDL
MODEL 8
REMARK VINA RESULT:      -5.3     11.129     11.907
REMARK  Name = "1	2-Benzodiazepine"
REMARK  0 active torsions:
REMARK  status: ('A' for Active; 'I' for Inactive)
REMARK                            x       y       z     vdW  Elec       q    Type
REMARK                         _______ _______ _______ _____ _____    ______ ____
ROOT
ATOM      1  N   UNL     1      -6.854  -1.471 124.761  0.00  0.00    +0.000 N 
ATOM      2  N   UNL     1      -7.122  -1.430 123.445  0.00  0.00    +0.000 NA
ATOM      3  C   UNL     1      -8.071  -2.063 122.855  0.00  0.00    +0.000 C 
ATOM      4  C   UNL     1      -9.120  -2.977 123.315  0.00  0.00    +0.000 C 
ATOM      5  C   UNL     1      -9.321  -3.373 124.569  0.00  0.00    +0.000 C 
ATOM      6  C   UNL     1      -8.570  -3.009 125.767  0.00  0.00    +0.000 A 
ATOM      7  C   UNL     1      -9.052  -3.613 126.953  0.00  0.00    +0.000 A 
ATOM      8  C   UNL     1      -8.463  -3.385 128.191  0.00  0.00    +0.000 A 
ATOM      9  C   UNL     1      -7.371  -2.542 128.270  0.00  0.00    +0.000 A 
ATOM     10  C   UNL     1      -6.882  -1.938 127.108  0.00  0.00    +0.000 A 
ATOM     11  C   UNL     1      -7.463  -2.152 125.831  0.00  0.00    +0.000 A 
ATOM     12  H   UNL     1      -6.058  -0.897 125.035  0.00  0.00    +0.000 HD
ENDROOT
TORSDOF 0
ENDMDL
MODEL 9
REMARK VINA RESULT:      -5.1     10.325     10.888
REMARK  Name = "1	2-Benzodiazepine"
REMARK  0 active torsions:
REMARK  status: ('A' for Active; 'I' for Inactive)
REMARK                            x       y       z     vdW  Elec       q    Type
REMARK                         _______ _______ _______ _____ _____    ______ ____
ROOT
ATOM      1  N   UNL     1      -9.374   0.218 125.668  0.00  0.00    +0.000 N 
ATOM      2  N   UNL     1      -9.816   1.350 125.097  0.00  0.00    +0.000 NA
ATOM      3  C   UNL     1     -10.070   1.508 123.847  0.00  0.00    +0.000 C 
ATOM      4  C   UNL     1      -9.989   0.630 122.677  0.00  0.00    +0.000 C 
ATOM      5  C   UNL     1      -9.598  -0.642 122.676  0.00  0.00    +0.000 C 
ATOM      6  C   UNL     1      -9.164  -1.459 123.806  0.00  0.00    +0.000 A 
ATOM      7  C   UNL     1      -8.814  -2.785 123.456  0.00  0.00    +0.000 A 
ATOM      8  C   UNL     1      -8.376  -3.708 124.398  0.00  0.00    +0.000 A 
ATOM      9  C   UNL     1      -8.279  -3.321 125.721  0.00  0.00    +0.000 A 
ATOM     10  C   UNL     1      -8.620  -2.015 126.084  0.00  0.00    +0.000 A 
ATOM     11  C   UNL     1      -9.070  -1.052 125.144  0.00  0.00    +0.000 A 
ATOM     12  H   UNL     1      -9.233   0.294 126.674  0.00  0.00    +0.000 HD
ENDROOT
TORSDOF 0
ENDMDL
