MODEL 1
REMARK VINA RESULT:      -8.1      0.000      0.000
REMARK  Name = "2	2'-Dibenzothiazyl disulfide"
REMARK  3 active torsions:
REMARK  status: ('A' for Active; 'I' for Inactive)
REMARK    1  A    between atoms: S_1  and  S_2
REMARK    2  A    between atoms: S_1  and  C_12
REMARK    3  A    between atoms: S_2  and  C_3
REMARK                            x       y       z     vdW  Elec       q    Type
REMARK                         _______ _______ _______ _____ _____    ______ ____
ROOT
ATOM      1  S   UNL     1      -9.228   2.090 123.724  0.00  0.00    +0.000 S 
ENDROOT
BRANCH   1   2
ATOM      2  C   UNL     1      -8.145   2.897 122.573  0.00  0.00    +0.000 A 
ATOM      3  N   UNL     1      -8.617   3.235 121.389  0.00  0.00    +0.000 NA
ATOM      4  C   UNL     1      -7.638   3.866 120.631  0.00  0.00    +0.000 A 
ATOM      5  C   UNL     1      -7.783   4.374 119.320  0.00  0.00    +0.000 A 
ATOM      6  C   UNL     1      -6.702   4.998 118.684  0.00  0.00    +0.000 A 
ATOM      7  C   UNL     1      -5.479   5.121 119.336  0.00  0.00    +0.000 A 
ATOM      8  C   UNL     1      -5.307   4.622 120.630  0.00  0.00    +0.000 A 
ATOM      9  C   UNL     1      -6.400   3.998 121.261  0.00  0.00    +0.000 A 
ATOM     10  S   UNL     1      -6.496   3.300 122.832  0.00  0.00    +0.000 S 
ENDBRANCH   1   2
BRANCH   1  11
ATOM     11  S   UNL     1      -9.061   0.072 123.301  0.00  0.00    +0.000 S 
BRANCH  11  12
ATOM     12  C   UNL     1      -8.731  -0.703 124.863  0.00  0.00    +0.000 A 
ATOM     13  N   UNL     1      -9.226  -1.904 125.091  0.00  0.00    +0.000 NA
ATOM     14  C   UNL     1      -8.855  -2.359 126.352  0.00  0.00    +0.000 A 
ATOM     15  C   UNL     1      -9.192  -3.602 126.932  0.00  0.00    +0.000 A 
ATOM     16  C   UNL     1      -8.732  -3.926 128.217  0.00  0.00    +0.000 A 
ATOM     17  C   UNL     1      -7.945  -3.027 128.928  0.00  0.00    +0.000 A 
ATOM     18  C   UNL     1      -7.602  -1.787 128.378  0.00  0.00    +0.000 A 
ATOM     19  C   UNL     1      -8.066  -1.473 127.087  0.00  0.00    +0.000 A 
ATOM     20  S   UNL     1      -7.810  -0.048 126.155  0.00  0.00    +0.000 S 
ENDBRANCH  11  12
ENDBRANCH   1  11
TORSDOF 3
ENDMDL
MODEL 2
REMARK VINA RESULT:      -8.1      0.057      8.906
REMARK  Name = "2	2'-Dibenzothiazyl disulfide"
REMARK  3 active torsions:
REMARK  status: ('A' for Active; 'I' for Inactive)
REMARK    1  A    between atoms: S_1  and  S_2
REMARK    2  A    between atoms: S_1  and  C_12
REMARK    3  A    between atoms: S_2  and  C_3
REMARK                            x       y       z     vdW  Elec       q    Type
REMARK                         _______ _______ _______ _____ _____    ______ ____
ROOT
ATOM      1  S   UNL     1      -9.168   0.114 123.336  0.00  0.00    +0.000 S 
ENDROOT
BRANCH   1   2
ATOM      2  C   UNL     1      -8.806  -0.684 124.880  0.00  0.00    +0.000 A 
ATOM      3  N   UNL     1      -9.292  -1.890 125.099  0.00  0.00    +0.000 NA
ATOM      4  C   UNL     1      -8.897  -2.361 126.346  0.00  0.00    +0.000 A 
ATOM      5  C   UNL     1      -9.218  -3.614 126.915  0.00  0.00    +0.000 A 
ATOM      6  C   UNL     1      -8.733  -3.954 128.185  0.00  0.00    +0.000 A 
ATOM      7  C   UNL     1      -7.936  -3.062 128.895  0.00  0.00    +0.000 A 
ATOM      8  C   UNL     1      -7.609  -1.814 128.358  0.00  0.00    +0.000 A 
ATOM      9  C   UNL     1      -8.098  -1.483 127.080  0.00  0.00    +0.000 A 
ATOM     10  S   UNL     1      -7.865  -0.043 126.165  0.00  0.00    +0.000 S 
ENDBRANCH   1   2
BRANCH   1  11
ATOM     11  S   UNL     1      -9.264   2.132 123.779  0.00  0.00    +0.000 S 
BRANCH  11  12
ATOM     12  C   UNL     1      -8.171   2.914 122.620  0.00  0.00    +0.000 A 
ATOM     13  N   UNL     1      -8.643   3.257 121.437  0.00  0.00    +0.000 NA
ATOM     14  C   UNL     1      -7.656   3.867 120.671  0.00  0.00    +0.000 A 
ATOM     15  C   UNL     1      -7.799   4.372 119.360  0.00  0.00    +0.000 A 
ATOM     16  C   UNL     1      -6.709   4.974 118.715  0.00  0.00    +0.000 A 
ATOM     17  C   UNL     1      -5.480   5.075 119.359  0.00  0.00    +0.000 A 
ATOM     18  C   UNL     1      -5.311   4.577 120.655  0.00  0.00    +0.000 A 
ATOM     19  C   UNL     1      -6.413   3.978 121.295  0.00  0.00    +0.000 A 
ATOM     20  S   UNL     1      -6.514   3.287 122.868  0.00  0.00    +0.000 S 
ENDBRANCH  11  12
ENDBRANCH   1  11
TORSDOF 3
ENDMDL
MODEL 3
REMARK VINA RESULT:      -7.6      1.959      8.437
REMARK  Name = "2	2'-Dibenzothiazyl disulfide"
REMARK  3 active torsions:
REMARK  status: ('A' for Active; 'I' for Inactive)
REMARK    1  A    between atoms: S_1  and  S_2
REMARK    2  A    between atoms: S_1  and  C_12
REMARK    3  A    between atoms: S_2  and  C_3
REMARK                            x       y       z     vdW  Elec       q    Type
REMARK                         _______ _______ _______ _____ _____    ______ ____
ROOT
ATOM      1  S   UNL     1      -8.182   2.663 125.309  0.00  0.00    +0.000 S 
ENDROOT
BRANCH   1   2
ATOM      2  C   UNL     1      -8.414   0.907 125.187  0.00  0.00    +0.000 A 
ATOM      3  N   UNL     1      -8.721   0.390 124.013  0.00  0.00    +0.000 NA
ATOM      4  C   UNL     1      -8.849  -0.991 124.103  0.00  0.00    +0.000 A 
ATOM      5  C   UNL     1      -9.160  -1.880 123.049  0.00  0.00    +0.000 A 
ATOM      6  C   UNL     1      -9.244  -3.257 123.293  0.00  0.00    +0.000 A 
ATOM      7  C   UNL     1      -9.025  -3.759 124.571  0.00  0.00    +0.000 A 
ATOM      8  C   UNL     1      -8.722  -2.902 125.632  0.00  0.00    +0.000 A 
ATOM      9  C   UNL     1      -8.638  -1.520 125.377  0.00  0.00    +0.000 A 
ATOM     10  S   UNL     1      -8.282  -0.233 126.463  0.00  0.00    +0.000 S 
ENDBRANCH   1   2
BRANCH   1  11
ATOM     11  S   UNL     1      -6.292   3.013 124.547  0.00  0.00    +0.000 S 
BRANCH  11  12
ATOM     12  C   UNL     1      -6.555   3.511 122.864  0.00  0.00    +0.000 A 
ATOM     13  N   UNL     1      -5.624   4.224 122.262  0.00  0.00    +0.000 NA
ATOM     14  C   UNL     1      -5.992   4.509 120.951  0.00  0.00    +0.000 A 
ATOM     15  C   UNL     1      -5.241   5.241 120.005  0.00  0.00    +0.000 A 
ATOM     16  C   UNL     1      -5.742   5.438 118.710  0.00  0.00    +0.000 A 
ATOM     17  C   UNL     1      -6.981   4.917 118.349  0.00  0.00    +0.000 A 
ATOM     18  C   UNL     1      -7.746   4.194 119.269  0.00  0.00    +0.000 A 
ATOM     19  C   UNL     1      -7.233   3.999 120.566  0.00  0.00    +0.000 A 
ATOM     20  S   UNL     1      -7.929   3.160 121.897  0.00  0.00    +0.000 S 
ENDBRANCH  11  12
ENDBRANCH   1  11
TORSDOF 3
ENDMDL
MODEL 4
REMARK VINA RESULT:      -7.6      2.236      2.844
REMARK  Name = "2	2'-Dibenzothiazyl disulfide"
REMARK  3 active torsions:
REMARK  status: ('A' for Active; 'I' for Inactive)
REMARK    1  A    between atoms: S_1  and  S_2
REMARK    2  A    between atoms: S_1  and  C_12
REMARK    3  A    between atoms: S_2  and  C_3
REMARK                            x       y       z     vdW  Elec       q    Type
REMARK                         _______ _______ _______ _____ _____    ______ ____
ROOT
ATOM      1  S   UNL     1      -8.541   2.632 124.969  0.00  0.00    +0.000 S 
ENDROOT
BRANCH   1   2
ATOM      2  C   UNL     1      -8.024   3.123 123.344  0.00  0.00    +0.000 A 
ATOM      3  N   UNL     1      -8.932   3.221 122.393  0.00  0.00    +0.000 NA
ATOM      4  C   UNL     1      -8.352   3.629 121.198  0.00  0.00    +0.000 A 
ATOM      5  C   UNL     1      -9.016   3.849 119.970  0.00  0.00    +0.000 A 
ATOM      6  C   UNL     1      -8.293   4.273 118.846  0.00  0.00    +0.000 A 
ATOM      7  C   UNL     1      -6.920   4.476 118.930  0.00  0.00    +0.000 A 
ATOM      8  C   UNL     1      -6.238   4.260 120.131  0.00  0.00    +0.000 A 
ATOM      9  C   UNL     1      -6.973   3.836 121.255  0.00  0.00    +0.000 A 
ATOM     10  S   UNL     1      -6.423   3.496 122.850  0.00  0.00    +0.000 S 
ENDBRANCH   1   2
BRANCH   1  11
ATOM     11  S   UNL     1      -9.654   0.912 124.686  0.00  0.00    +0.000 S 
BRANCH  11  12
ATOM     12  C   UNL     1      -8.466  -0.406 124.633  0.00  0.00    +0.000 A 
ATOM     13  N   UNL     1      -7.721  -0.543 123.554  0.00  0.00    +0.000 NA
ATOM     14  C   UNL     1      -6.842  -1.611 123.695  0.00  0.00    +0.000 A 
ATOM     15  C   UNL     1      -5.889  -2.049 122.748  0.00  0.00    +0.000 A 
ATOM     16  C   UNL     1      -5.059  -3.142 123.039  0.00  0.00    +0.000 A 
ATOM     17  C   UNL     1      -5.170  -3.803 124.258  0.00  0.00    +0.000 A 
ATOM     18  C   UNL     1      -6.110  -3.392 125.209  0.00  0.00    +0.000 A 
ATOM     19  C   UNL     1      -6.935  -2.292 124.909  0.00  0.00    +0.000 A 
ATOM     20  S   UNL     1      -8.165  -1.561 125.866  0.00  0.00    +0.000 S 
ENDBRANCH  11  12
ENDBRANCH   1  11
TORSDOF 3
ENDMDL
MODEL 5
REMARK VINA RESULT:      -7.5      1.087      9.222
REMARK  Name = "2	2'-Dibenzothiazyl disulfide"
REMARK  3 active torsions:
REMARK  status: ('A' for Active; 'I' for Inactive)
REMARK    1  A    between atoms: S_1  and  S_2
REMARK    2  A    between atoms: S_1  and  C_12
REMARK    3  A    between atoms: S_2  and  C_3
REMARK                            x       y       z     vdW  Elec       q    Type
REMARK                         _______ _______ _______ _____ _____    ______ ____
ROOT
ATOM      1  S   UNL     1      -7.427  -0.011 123.683  0.00  0.00    +0.000 S 
ENDROOT
BRANCH   1   2
ATOM      2  C   UNL     1      -7.596  -0.871 125.227  0.00  0.00    +0.000 A 
ATOM      3  N   UNL     1      -8.413  -1.904 125.290  0.00  0.00    +0.000 NA
ATOM      4  C   UNL     1      -8.407  -2.459 126.564  0.00  0.00    +0.000 A 
ATOM      5  C   UNL     1      -9.149  -3.581 126.999  0.00  0.00    +0.000 A 
ATOM      6  C   UNL     1      -9.029  -4.033 128.320  0.00  0.00    +0.000 A 
ATOM      7  C   UNL     1      -8.182  -3.383 129.211  0.00  0.00    +0.000 A 
ATOM      8  C   UNL     1      -7.442  -2.268 128.808  0.00  0.00    +0.000 A 
ATOM      9  C   UNL     1      -7.568  -1.822 127.479  0.00  0.00    +0.000 A 
ATOM     10  S   UNL     1      -6.792  -0.499 126.697  0.00  0.00    +0.000 S 
ENDBRANCH   1   2
BRANCH   1  11
ATOM     11  S   UNL     1      -7.861   1.965 124.115  0.00  0.00    +0.000 S 
BRANCH  11  12
ATOM     12  C   UNL     1      -7.584   2.843 122.597  0.00  0.00    +0.000 A 
ATOM     13  N   UNL     1      -6.399   3.383 122.386  0.00  0.00    +0.000 NA
ATOM     14  C   UNL     1      -6.360   4.013 121.147  0.00  0.00    +0.000 A 
ATOM     15  C   UNL     1      -5.257   4.689 120.579  0.00  0.00    +0.000 A 
ATOM     16  C   UNL     1      -5.365   5.269 119.308  0.00  0.00    +0.000 A 
ATOM     17  C   UNL     1      -6.559   5.187 118.598  0.00  0.00    +0.000 A 
ATOM     18  C   UNL     1      -7.667   4.529 119.140  0.00  0.00    +0.000 A 
ATOM     19  C   UNL     1      -7.547   3.946 120.416  0.00  0.00    +0.000 A 
ATOM     20  S   UNL     1      -8.718   3.078 121.331  0.00  0.00    +0.000 S 
ENDBRANCH  11  12
ENDBRANCH   1  11
TORSDOF 3
ENDMDL
MODEL 6
REMARK VINA RESULT:      -7.4      2.131      3.272
REMARK  Name = "2	2'-Dibenzothiazyl disulfide"
REMARK  3 active torsions:
REMARK  status: ('A' for Active; 'I' for Inactive)
REMARK    1  A    between atoms: S_1  and  S_2
REMARK    2  A    between atoms: S_1  and  C_12
REMARK    3  A    between atoms: S_2  and  C_3
REMARK                            x       y       z     vdW  Elec       q    Type
REMARK                         _______ _______ _______ _____ _____    ______ ____
ROOT
ATOM      1  S   UNL     1      -6.367   2.932 126.280  0.00  0.00    +0.000 S 
ENDROOT
BRANCH   1   2
ATOM      2  C   UNL     1      -6.650   3.238 124.555  0.00  0.00    +0.000 A 
ATOM      3  N   UNL     1      -5.654   3.696 123.822  0.00  0.00    +0.000 NA
ATOM      4  C   UNL     1      -6.052   3.860 122.500  0.00  0.00    +0.000 A 
ATOM      5  C   UNL     1      -5.252   4.321 121.430  0.00  0.00    +0.000 A 
ATOM      6  C   UNL     1      -5.793   4.425 120.141  0.00  0.00    +0.000 A 
ATOM      7  C   UNL     1      -7.120   4.078 119.907  0.00  0.00    +0.000 A 
ATOM      8  C   UNL     1      -7.934   3.625 120.949  0.00  0.00    +0.000 A 
ATOM      9  C   UNL     1      -7.380   3.522 122.239  0.00  0.00    +0.000 A 
ATOM     10  S   UNL     1      -8.121   3.000 123.702  0.00  0.00    +0.000 S 
ENDBRANCH   1   2
BRANCH   1  11
ATOM     11  S   UNL     1      -5.323   1.148 126.349  0.00  0.00    +0.000 S 
BRANCH  11  12
ATOM     12  C   UNL     1      -6.478  -0.086 125.805  0.00  0.00    +0.000 A 
ATOM     13  N   UNL     1      -6.592  -0.320 124.512  0.00  0.00    +0.000 NA
ATOM     14  C   UNL     1      -7.526  -1.322 124.273  0.00  0.00    +0.000 A 
ATOM     15  C   UNL     1      -7.901  -1.842 123.015  0.00  0.00    +0.000 A 
ATOM     16  C   UNL     1      -8.856  -2.866 122.933  0.00  0.00    +0.000 A 
ATOM     17  C   UNL     1      -9.440  -3.375 124.088  0.00  0.00    +0.000 A 
ATOM     18  C   UNL     1      -9.090  -2.873 125.346  0.00  0.00    +0.000 A 
ATOM     19  C   UNL     1      -8.129  -1.847 125.417  0.00  0.00    +0.000 A 
ATOM     20  S   UNL     1      -7.497  -1.042 126.801  0.00  0.00    +0.000 S 
ENDBRANCH  11  12
ENDBRANCH   1  11
TORSDOF 3
ENDMDL
MODEL 7
REMARK VINA RESULT:      -7.3      8.217      9.549
REMARK  Name = "2	2'-Dibenzothiazyl disulfide"
REMARK  3 active torsions:
REMARK  status: ('A' for Active; 'I' for Inactive)
REMARK    1  A    between atoms: S_1  and  S_2
REMARK    2  A    between atoms: S_1  and  C_12
REMARK    3  A    between atoms: S_2  and  C_3
REMARK                            x       y       z     vdW  Elec       q    Type
REMARK                         _______ _______ _______ _____ _____    ______ ____
ROOT
ATOM      1  S   UNL     1      -5.916   6.817 131.115  0.00  0.00    +0.000 S 
ENDROOT
BRANCH   1   2
ATOM      2  C   UNL     1      -5.000   5.895 129.906  0.00  0.00    +0.000 A 
ATOM      3  N   UNL     1      -5.654   5.344 128.902  0.00  0.00    +0.000 NA
ATOM      4  C   UNL     1      -4.779   4.678 128.051  0.00  0.00    +0.000 A 
ATOM      5  C   UNL     1      -5.118   3.981 126.869  0.00  0.00    +0.000 A 
ATOM      6  C   UNL     1      -4.117   3.365 126.105  0.00  0.00    +0.000 A 
ATOM      7  C   UNL     1      -2.787   3.433 126.504  0.00  0.00    +0.000 A 
ATOM      8  C   UNL     1      -2.425   4.111 127.672  0.00  0.00    +0.000 A 
ATOM      9  C   UNL     1      -3.437   4.728 128.432  0.00  0.00    +0.000 A 
ATOM     10  S   UNL     1      -3.305   5.627 129.894  0.00  0.00    +0.000 S 
ENDBRANCH   1   2
BRANCH   1  11
ATOM     11  S   UNL     1      -7.430   5.548 131.729  0.00  0.00    +0.000 S 
BRANCH  11  12
ATOM     12  C   UNL     1      -8.925   6.276 131.109  0.00  0.00    +0.000 A 
ATOM     13  N   UNL     1      -8.867   7.002 130.009  0.00  0.00    +0.000 NA
ATOM     14  C   UNL     1     -10.129   7.477 129.666  0.00  0.00    +0.000 A 
ATOM     15  C   UNL     1     -10.452   8.277 128.548  0.00  0.00    +0.000 A 
ATOM     16  C   UNL     1     -11.779   8.671 128.325  0.00  0.00    +0.000 A 
ATOM     17  C   UNL     1     -12.785   8.280 129.204  0.00  0.00    +0.000 A 
ATOM     18  C   UNL     1     -12.489   7.493 130.321  0.00  0.00    +0.000 A 
ATOM     19  C   UNL     1     -11.154   7.100 130.534  0.00  0.00    +0.000 A 
ATOM     20  S   UNL     1     -10.491   6.140 131.799  0.00  0.00    +0.000 S 
ENDBRANCH  11  12
ENDBRANCH   1  11
TORSDOF 3
ENDMDL
MODEL 8
REMARK VINA RESULT:      -7.3      8.240      9.742
REMARK  Name = "2	2'-Dibenzothiazyl disulfide"
REMARK  3 active torsions:
REMARK  status: ('A' for Active; 'I' for Inactive)
REMARK    1  A    between atoms: S_1  and  S_2
REMARK    2  A    between atoms: S_1  and  C_12
REMARK    3  A    between atoms: S_2  and  C_3
REMARK                            x       y       z     vdW  Elec       q    Type
REMARK                         _______ _______ _______ _____ _____    ______ ____
ROOT
ATOM      1  S   UNL     1      -7.406   5.592 131.795  0.00  0.00    +0.000 S 
ENDROOT
BRANCH   1   2
ATOM      2  C   UNL     1      -8.908   6.296 131.164  0.00  0.00    +0.000 A 
ATOM      3  N   UNL     1      -8.854   7.016 130.060  0.00  0.00    +0.000 NA
ATOM      4  C   UNL     1     -10.119   7.472 129.708  0.00  0.00    +0.000 A 
ATOM      5  C   UNL     1     -10.449   8.261 128.583  0.00  0.00    +0.000 A 
ATOM      6  C   UNL     1     -11.780   8.636 128.353  0.00  0.00    +0.000 A 
ATOM      7  C   UNL     1     -12.784   8.237 129.229  0.00  0.00    +0.000 A 
ATOM      8  C   UNL     1     -12.484   7.461 130.352  0.00  0.00    +0.000 A 
ATOM      9  C   UNL     1     -11.145   7.088 130.574  0.00  0.00    +0.000 A 
ATOM     10  S   UNL     1     -10.474   6.145 131.848  0.00  0.00    +0.000 S 
ENDBRANCH   1   2
BRANCH   1  11
ATOM     11  S   UNL     1      -5.900   6.842 131.125  0.00  0.00    +0.000 S 
BRANCH  11  12
ATOM     12  C   UNL     1      -4.995   5.883 129.937  0.00  0.00    +0.000 A 
ATOM     13  N   UNL     1      -5.647   5.361 128.917  0.00  0.00    +0.000 NA
ATOM     14  C   UNL     1      -4.780   4.659 128.086  0.00  0.00    +0.000 A 
ATOM     15  C   UNL     1      -5.120   3.978 126.896  0.00  0.00    +0.000 A 
ATOM     16  C   UNL     1      -4.128   3.320 126.154  0.00  0.00    +0.000 A 
ATOM     17  C   UNL     1      -2.806   3.331 126.585  0.00  0.00    +0.000 A 
ATOM     18  C   UNL     1      -2.445   3.993 127.763  0.00  0.00    +0.000 A 
ATOM     19  C   UNL     1      -3.447   4.653 128.499  0.00  0.00    +0.000 A 
ATOM     20  S   UNL     1      -3.312   5.545 129.965  0.00  0.00    +0.000 S 
ENDBRANCH  11  12
ENDBRANCH   1  11
TORSDOF 3
ENDMDL
MODEL 9
REMARK VINA RESULT:      -7.2      8.510      9.949
REMARK  Name = "2	2'-Dibenzothiazyl disulfide"
REMARK  3 active torsions:
REMARK  status: ('A' for Active; 'I' for Inactive)
REMARK    1  A    between atoms: S_1  and  S_2
REMARK    2  A    between atoms: S_1  and  C_12
REMARK    3  A    between atoms: S_2  and  C_3
REMARK                            x       y       z     vdW  Elec       q    Type
REMARK                         _______ _______ _______ _____ _____    ______ ____
ROOT
ATOM      1  S   UNL     1      -7.647   4.441 131.231  0.00  0.00    +0.000 S 
ENDROOT
BRANCH   1   2
ATOM      2  C   UNL     1      -6.017   4.994 130.795  0.00  0.00    +0.000 A 
ATOM      3  N   UNL     1      -5.773   5.318 129.540  0.00  0.00    +0.000 NA
ATOM      4  C   UNL     1      -4.458   5.739 129.388  0.00  0.00    +0.000 A 
ATOM      5  C   UNL     1      -3.843   6.172 128.191  0.00  0.00    +0.000 A 
ATOM      6  C   UNL     1      -2.503   6.581 128.196  0.00  0.00    +0.000 A 
ATOM      7  C   UNL     1      -1.767   6.562 129.377  0.00  0.00    +0.000 A 
ATOM      8  C   UNL     1      -2.349   6.133 130.573  0.00  0.00    +0.000 A 
ATOM      9  C   UNL     1      -3.697   5.727 130.558  0.00  0.00    +0.000 A 
ATOM     10  S   UNL     1      -4.677   5.161 131.855  0.00  0.00    +0.000 S 
ENDBRANCH   1   2
BRANCH   1  11
ATOM     11  S   UNL     1      -8.636   6.137 131.883  0.00  0.00    +0.000 S 
BRANCH  11  12
ATOM     12  C   UNL     1      -9.897   6.433 130.670  0.00  0.00    +0.000 A 
ATOM     13  N   UNL     1      -9.533   6.739 129.440  0.00  0.00    +0.000 NA
ATOM     14  C   UNL     1     -10.647   6.921 128.627  0.00  0.00    +0.000 A 
ATOM     15  C   UNL     1     -10.643   7.247 127.253  0.00  0.00    +0.000 A 
ATOM     16  C   UNL     1     -11.854   7.388 126.560  0.00  0.00    +0.000 A 
ATOM     17  C   UNL     1     -13.065   7.211 127.220  0.00  0.00    +0.000 A 
ATOM     18  C   UNL     1     -13.096   6.894 128.582  0.00  0.00    +0.000 A 
ATOM     19  C   UNL     1     -11.875   6.752 129.267  0.00  0.00    +0.000 A 
ATOM     20  S   UNL     1     -11.594   6.366 130.921  0.00  0.00    +0.000 S 
ENDBRANCH  11  12
ENDBRANCH   1  11
TORSDOF 3
ENDMDL
