MODEL 1
REMARK VINA RESULT:      -5.2      0.000      0.000
REMARK  Name = 2-mercaptobenzothiazole
REMARK  0 active torsions:
REMARK  status: ('A' for Active; 'I' for Inactive)
REMARK                            x       y       z     vdW  Elec       q    Type
REMARK                         _______ _______ _______ _____ _____    ______ ____
ROOT
ATOM      1  S   UNL     1      -8.759   2.308 124.257  0.00  0.00    +0.000 S 
ATOM      2  C   UNL     1      -7.893   3.005 123.029  0.00  0.00    +0.000 A 
ATOM      3  N   UNL     1      -8.411   3.274 121.781  0.00  0.00    +0.000 N 
ATOM      4  C   UNL     1      -7.525   3.872 120.882  0.00  0.00    +0.000 A 
ATOM      5  C   UNL     1      -6.257   4.077 121.422  0.00  0.00    +0.000 A 
ATOM      6  S   UNL     1      -6.201   3.515 123.101  0.00  0.00    +0.000 S 
ATOM      7  C   UNL     1      -5.247   4.651 120.670  0.00  0.00    +0.000 A 
ATOM      8  C   UNL     1      -5.536   5.029 119.356  0.00  0.00    +0.000 A 
ATOM      9  C   UNL     1      -6.818   4.827 118.818  0.00  0.00    +0.000 A 
ATOM     10  C   UNL     1      -7.829   4.240 119.584  0.00  0.00    +0.000 A 
ATOM     11  H   UNL     1      -9.368   3.046 121.548  0.00  0.00    +0.000 HD
ENDROOT
TORSDOF 0
ENDMDL
MODEL 2
REMARK VINA RESULT:      -5.0      9.683     10.507
REMARK  Name = 2-mercaptobenzothiazole
REMARK  0 active torsions:
REMARK  status: ('A' for Active; 'I' for Inactive)
REMARK                            x       y       z     vdW  Elec       q    Type
REMARK                         _______ _______ _______ _____ _____    ______ ____
ROOT
ATOM      1  S   UNL     1      -8.348   5.853 132.587  0.00  0.00    +0.000 S 
ATOM      2  C   UNL     1      -9.537   6.427 131.587  0.00  0.00    +0.000 A 
ATOM      3  N   UNL     1      -9.291   7.096 130.407  0.00  0.00    +0.000 N 
ATOM      4  C   UNL     1     -10.426   7.495 129.699  0.00  0.00    +0.000 A 
ATOM      5  C   UNL     1     -11.616   7.146 130.334  0.00  0.00    +0.000 A 
ATOM      6  S   UNL     1     -11.281   6.284 131.845  0.00  0.00    +0.000 S 
ATOM      7  C   UNL     1     -12.841   7.470 129.779  0.00  0.00    +0.000 A 
ATOM      8  C   UNL     1     -12.855   8.150 128.559  0.00  0.00    +0.000 A 
ATOM      9  C   UNL     1     -11.652   8.494 127.917  0.00  0.00    +0.000 A 
ATOM     10  C   UNL     1     -10.419   8.168 128.490  0.00  0.00    +0.000 A 
ATOM     11  H   UNL     1      -8.348   7.278 130.093  0.00  0.00    +0.000 HD
ENDROOT
TORSDOF 0
ENDMDL
MODEL 3
REMARK VINA RESULT:      -5.0     10.186     11.209
REMARK  Name = 2-mercaptobenzothiazole
REMARK  0 active torsions:
REMARK  status: ('A' for Active; 'I' for Inactive)
REMARK                            x       y       z     vdW  Elec       q    Type
REMARK                         _______ _______ _______ _____ _____    ______ ____
ROOT
ATOM      1  S   UNL     1      -8.435   4.602 133.864  0.00  0.00    +0.000 S 
ATOM      2  C   UNL     1      -9.214   5.479 132.693  0.00  0.00    +0.000 A 
ATOM      3  N   UNL     1     -10.561   5.769 132.721  0.00  0.00    +0.000 N 
ATOM      4  C   UNL     1     -11.031   6.526 131.647  0.00  0.00    +0.000 A 
ATOM      5  C   UNL     1     -10.034   6.843 130.725  0.00  0.00    +0.000 A 
ATOM      6  S   UNL     1      -8.477   6.179 131.246  0.00  0.00    +0.000 S 
ATOM      7  C   UNL     1     -10.321   7.583 129.592  0.00  0.00    +0.000 A 
ATOM      8  C   UNL     1     -11.637   8.012 129.399  0.00  0.00    +0.000 A 
ATOM      9  C   UNL     1     -12.637   7.697 130.334  0.00  0.00    +0.000 A 
ATOM     10  C   UNL     1     -12.338   6.944 131.473  0.00  0.00    +0.000 A 
ATOM     11  H   UNL     1     -11.153   5.445 133.474  0.00  0.00    +0.000 HD
ENDROOT
TORSDOF 0
ENDMDL
MODEL 4
REMARK VINA RESULT:      -4.7     10.284     11.136
REMARK  Name = 2-mercaptobenzothiazole
REMARK  0 active torsions:
REMARK  status: ('A' for Active; 'I' for Inactive)
REMARK                            x       y       z     vdW  Elec       q    Type
REMARK                         _______ _______ _______ _____ _____    ______ ____
ROOT
ATOM      1  S   UNL     1     -13.057   8.504 128.479  0.00  0.00    +0.000 S 
ATOM      2  C   UNL     1     -12.015   7.807 129.562  0.00  0.00    +0.000 A 
ATOM      3  N   UNL     1     -10.644   7.810 129.419  0.00  0.00    +0.000 N 
ATOM      4  C   UNL     1      -9.936   7.177 130.442  0.00  0.00    +0.000 A 
ATOM      5  C   UNL     1     -10.763   6.640 131.427  0.00  0.00    +0.000 A 
ATOM      6  S   UNL     1     -12.463   6.962 131.050  0.00  0.00    +0.000 S 
ATOM      7  C   UNL     1     -10.232   5.967 132.513  0.00  0.00    +0.000 A 
ATOM      8  C   UNL     1      -8.843   5.847 132.602  0.00  0.00    +0.000 A 
ATOM      9  C   UNL     1      -8.012   6.397 131.611  0.00  0.00    +0.000 A 
ATOM     10  C   UNL     1      -8.558   7.069 130.513  0.00  0.00    +0.000 A 
ATOM     11  H   UNL     1     -10.200   8.244 128.622  0.00  0.00    +0.000 HD
ENDROOT
TORSDOF 0
ENDMDL
MODEL 5
REMARK VINA RESULT:      -4.4      4.884      6.745
REMARK  Name = 2-mercaptobenzothiazole
REMARK  0 active torsions:
REMARK  status: ('A' for Active; 'I' for Inactive)
REMARK                            x       y       z     vdW  Elec       q    Type
REMARK                         _______ _______ _______ _____ _____    ______ ____
ROOT
ATOM      1  S   UNL     1      -8.350   3.117 124.608  0.00  0.00    +0.000 S 
ATOM      2  C   UNL     1      -8.600   1.481 124.682  0.00  0.00    +0.000 A 
ATOM      3  N   UNL     1      -8.659   0.664 123.574  0.00  0.00    +0.000 N 
ATOM      4  C   UNL     1      -8.870  -0.690 123.842  0.00  0.00    +0.000 A 
ATOM      5  C   UNL     1      -8.996  -0.965 125.202  0.00  0.00    +0.000 A 
ATOM      6  S   UNL     1      -8.826   0.522 126.151  0.00  0.00    +0.000 S 
ATOM      7  C   UNL     1      -9.218  -2.254 125.652  0.00  0.00    +0.000 A 
ATOM      8  C   UNL     1      -9.305  -3.278 124.705  0.00  0.00    +0.000 A 
ATOM      9  C   UNL     1      -9.170  -2.999 123.334  0.00  0.00    +0.000 A 
ATOM     10  C   UNL     1      -8.952  -1.691 122.890  0.00  0.00    +0.000 A 
ATOM     11  H   UNL     1      -8.556   1.035 122.640  0.00  0.00    +0.000 HD
ENDROOT
TORSDOF 0
ENDMDL
MODEL 6
REMARK VINA RESULT:      -4.3      7.030      9.184
REMARK  Name = 2-mercaptobenzothiazole
REMARK  0 active torsions:
REMARK  status: ('A' for Active; 'I' for Inactive)
REMARK                            x       y       z     vdW  Elec       q    Type
REMARK                         _______ _______ _______ _____ _____    ______ ____
ROOT
ATOM      1  S   UNL     1      -6.712  -1.563 122.923  0.00  0.00    +0.000 S 
ATOM      2  C   UNL     1      -6.917  -1.940 124.523  0.00  0.00    +0.000 A 
ATOM      3  N   UNL     1      -7.985  -2.663 125.010  0.00  0.00    +0.000 N 
ATOM      4  C   UNL     1      -7.976  -2.885 126.388  0.00  0.00    +0.000 A 
ATOM      5  C   UNL     1      -6.877  -2.314 127.026  0.00  0.00    +0.000 A 
ATOM      6  S   UNL     1      -5.834  -1.498 125.849  0.00  0.00    +0.000 S 
ATOM      7  C   UNL     1      -6.710  -2.426 128.395  0.00  0.00    +0.000 A 
ATOM      8  C   UNL     1      -7.669  -3.136 129.121  0.00  0.00    +0.000 A 
ATOM      9  C   UNL     1      -8.772  -3.717 128.473  0.00  0.00    +0.000 A 
ATOM     10  C   UNL     1      -8.936  -3.592 127.090  0.00  0.00    +0.000 A 
ATOM     11  H   UNL     1      -8.715  -2.999 124.397  0.00  0.00    +0.000 HD
ENDROOT
TORSDOF 0
ENDMDL
MODEL 7
REMARK VINA RESULT:      -4.3      2.073      3.993
REMARK  Name = 2-mercaptobenzothiazole
REMARK  0 active torsions:
REMARK  status: ('A' for Active; 'I' for Inactive)
REMARK                            x       y       z     vdW  Elec       q    Type
REMARK                         _______ _______ _______ _____ _____    ______ ____
ROOT
ATOM      1  S   UNL     1      -6.013   5.392 118.643  0.00  0.00    +0.000 S 
ATOM      2  C   UNL     1      -6.368   4.590 120.049  0.00  0.00    +0.000 A 
ATOM      3  N   UNL     1      -7.621   4.106 120.360  0.00  0.00    +0.000 N 
ATOM      4  C   UNL     1      -7.719   3.451 121.590  0.00  0.00    +0.000 A 
ATOM      5  C   UNL     1      -6.514   3.419 122.289  0.00  0.00    +0.000 A 
ATOM      6  S   UNL     1      -5.237   4.220 121.358  0.00  0.00    +0.000 S 
ATOM      7  C   UNL     1      -6.427   2.817 123.531  0.00  0.00    +0.000 A 
ATOM      8  C   UNL     1      -7.579   2.234 124.065  0.00  0.00    +0.000 A 
ATOM      9  C   UNL     1      -8.790   2.261 123.353  0.00  0.00    +0.000 A 
ATOM     10  C   UNL     1      -8.870   2.878 122.101  0.00  0.00    +0.000 A 
ATOM     11  H   UNL     1      -8.403   4.227 119.732  0.00  0.00    +0.000 HD
ENDROOT
TORSDOF 0
ENDMDL
MODEL 8
REMARK VINA RESULT:      -4.2      7.832      8.552
REMARK  Name = 2-mercaptobenzothiazole
REMARK  0 active torsions:
REMARK  status: ('A' for Active; 'I' for Inactive)
REMARK                            x       y       z     vdW  Elec       q    Type
REMARK                         _______ _______ _______ _____ _____    ______ ____
ROOT
ATOM      1  S   UNL     1      -4.970  -1.897 128.904  0.00  0.00    +0.000 S 
ATOM      2  C   UNL     1      -6.124  -2.225 127.762  0.00  0.00    +0.000 A 
ATOM      3  N   UNL     1      -5.871  -2.271 126.407  0.00  0.00    +0.000 N 
ATOM      4  C   UNL     1      -6.973  -2.571 125.604  0.00  0.00    +0.000 A 
ATOM      5  C   UNL     1      -8.145  -2.760 126.334  0.00  0.00    +0.000 A 
ATOM      6  S   UNL     1      -7.832  -2.568 128.067  0.00  0.00    +0.000 S 
ATOM      7  C   UNL     1      -9.339  -3.057 125.701  0.00  0.00    +0.000 A 
ATOM      8  C   UNL     1      -9.337  -3.171 124.308  0.00  0.00    +0.000 A 
ATOM      9  C   UNL     1      -8.152  -2.987 123.576  0.00  0.00    +0.000 A 
ATOM     10  C   UNL     1      -6.952  -2.681 124.225  0.00  0.00    +0.000 A 
ATOM     11  H   UNL     1      -4.947  -2.095 126.039  0.00  0.00    +0.000 HD
ENDROOT
TORSDOF 0
ENDMDL
MODEL 9
REMARK VINA RESULT:      -4.2      6.820      7.819
REMARK  Name = 2-mercaptobenzothiazole
REMARK  0 active torsions:
REMARK  status: ('A' for Active; 'I' for Inactive)
REMARK                            x       y       z     vdW  Elec       q    Type
REMARK                         _______ _______ _______ _____ _____    ______ ____
ROOT
ATOM      1  S   UNL     1      -6.780  -2.371 129.043  0.00  0.00    +0.000 S 
ATOM      2  C   UNL     1      -7.121  -2.323 127.422  0.00  0.00    +0.000 A 
ATOM      3  N   UNL     1      -8.219  -2.929 126.852  0.00  0.00    +0.000 N 
ATOM      4  C   UNL     1      -8.338  -2.769 125.470  0.00  0.00    +0.000 A 
ATOM      5  C   UNL     1      -7.299  -2.024 124.915  0.00  0.00    +0.000 A 
ATOM      6  S   UNL     1      -6.167  -1.508 126.176  0.00  0.00    +0.000 S 
ATOM      7  C   UNL     1      -7.249  -1.773 123.555  0.00  0.00    +0.000 A 
ATOM      8  C   UNL     1      -8.275  -2.280 122.752  0.00  0.00    +0.000 A 
ATOM      9  C   UNL     1      -9.325  -3.024 123.316  0.00  0.00    +0.000 A 
ATOM     10  C   UNL     1      -9.362  -3.278 124.691  0.00  0.00    +0.000 A 
ATOM     11  H   UNL     1      -8.881  -3.450 127.409  0.00  0.00    +0.000 HD
ENDROOT
TORSDOF 0
ENDMDL
