MODEL 1
REMARK VINA RESULT:      -6.7      0.000      0.000
REMARK  Name = 4-(Isopropylamino)diphenylamine
REMARK  6 active torsions:
REMARK  status: ('A' for Active; 'I' for Inactive)
REMARK    1  A    between atoms: C_1  and  C_2
REMARK    2  A    between atoms: C_2  and  C_3
REMARK    3  A    between atoms: C_2  and  N_4
REMARK    4  A    between atoms: N_4  and  C_5
REMARK    5  A    between atoms: C_8  and  N_9
REMARK    6  A    between atoms: N_9  and  C_10
REMARK                            x       y       z     vdW  Elec       q    Type
REMARK                         _______ _______ _______ _____ _____    ______ ____
ROOT
ATOM      1  C   UNL     1     -11.145   7.742 129.808  0.00  0.00    +0.000 A 
ATOM      2  C   UNL     1      -9.822   7.328 130.025  0.00  0.00    +0.000 A 
ATOM      3  C   UNL     1      -9.491   6.470 131.103  0.00  0.00    +0.000 A 
ATOM      4  C   UNL     1     -10.453   6.098 132.043  0.00  0.00    +0.000 A 
ATOM      5  C   UNL     1     -11.758   6.529 131.820  0.00  0.00    +0.000 A 
ATOM      6  C   UNL     1     -12.085   7.286 130.713  0.00  0.00    +0.000 A 
ENDROOT
BRANCH   1   7
ATOM      7  N   UNL     1     -11.502   8.564 128.756  0.00  0.00    +0.000 N 
ATOM      8  H   UNL     1     -11.494   9.560 128.938  0.00  0.00    +0.000 HD
BRANCH   7  10
ATOM      9  C   UNL     1     -10.923   7.520 126.623  0.00  0.00    +0.000 C 
ATOM     10  C   UNL     1     -12.055   8.103 127.472  0.00  0.00    +0.000 C 
ATOM     11  C   UNL     1     -13.121   7.014 127.592  0.00  0.00    +0.000 C 
ENDBRANCH   7  10
ENDBRANCH   1   7
BRANCH   4  12
ATOM     12  N   UNL     1     -10.160   5.312 133.166  0.00  0.00    +0.000 N 
ATOM     13  H   UNL     1     -10.763   5.420 133.973  0.00  0.00    +0.000 HD
BRANCH  12  14
ATOM     14  C   UNL     1      -9.229   4.259 133.239  0.00  0.00    +0.000 A 
ATOM     15  C   UNL     1      -8.131   4.324 134.101  0.00  0.00    +0.000 A 
ATOM     16  C   UNL     1      -7.227   3.258 134.178  0.00  0.00    +0.000 A 
ATOM     17  C   UNL     1      -7.448   2.095 133.438  0.00  0.00    +0.000 A 
ATOM     18  C   UNL     1      -8.563   2.000 132.613  0.00  0.00    +0.000 A 
ATOM     19  C   UNL     1      -9.436   3.079 132.507  0.00  0.00    +0.000 A 
ENDBRANCH  12  14
ENDBRANCH   4  12
TORSDOF 4
ENDMDL
MODEL 2
REMARK VINA RESULT:      -6.6      8.967      9.878
REMARK  Name = 4-(Isopropylamino)diphenylamine
REMARK  6 active torsions:
REMARK  status: ('A' for Active; 'I' for Inactive)
REMARK    1  A    between atoms: C_1  and  C_2
REMARK    2  A    between atoms: C_2  and  C_3
REMARK    3  A    between atoms: C_2  and  N_4
REMARK    4  A    between atoms: N_4  and  C_5
REMARK    5  A    between atoms: C_8  and  N_9
REMARK    6  A    between atoms: N_9  and  C_10
REMARK                            x       y       z     vdW  Elec       q    Type
REMARK                         _______ _______ _______ _____ _____    ______ ____
ROOT
ATOM      1  C   UNL     1      -7.835   3.125 122.210  0.00  0.00    +0.000 A 
ATOM      2  C   UNL     1      -9.016   2.418 122.486  0.00  0.00    +0.000 A 
ATOM      3  C   UNL     1      -9.091   1.516 123.574  0.00  0.00    +0.000 A 
ATOM      4  C   UNL     1      -7.961   1.223 124.340  0.00  0.00    +0.000 A 
ATOM      5  C   UNL     1      -6.795   1.923 124.044  0.00  0.00    +0.000 A 
ATOM      6  C   UNL     1      -6.761   2.871 123.041  0.00  0.00    +0.000 A 
ENDROOT
BRANCH   1   7
ATOM      7  N   UNL     1      -7.737   4.026 121.165  0.00  0.00    +0.000 N 
ATOM      8  H   UNL     1      -8.473   4.719 121.096  0.00  0.00    +0.000 HD
BRANCH   7  10
ATOM      9  C   UNL     1      -7.413   4.478 118.785  0.00  0.00    +0.000 C 
ATOM     10  C   UNL     1      -6.764   3.942 120.064  0.00  0.00    +0.000 C 
ATOM     11  C   UNL     1      -5.486   4.752 120.281  0.00  0.00    +0.000 C 
ENDBRANCH   7  10
ENDBRANCH   1   7
BRANCH   4  12
ATOM     12  N   UNL     1      -7.967   0.283 125.381  0.00  0.00    +0.000 N 
ATOM     13  H   UNL     1      -8.042   0.643 126.325  0.00  0.00    +0.000 HD
BRANCH  12  14
ATOM     14  C   UNL     1      -8.058  -1.115 125.254  0.00  0.00    +0.000 A 
ATOM     15  C   UNL     1      -9.077  -1.833 125.885  0.00  0.00    +0.000 A 
ATOM     16  C   UNL     1      -9.165  -3.221 125.730  0.00  0.00    +0.000 A 
ATOM     17  C   UNL     1      -8.272  -3.894 124.894  0.00  0.00    +0.000 A 
ATOM     18  C   UNL     1      -7.282  -3.183 124.223  0.00  0.00    +0.000 A 
ATOM     19  C   UNL     1      -7.171  -1.809 124.414  0.00  0.00    +0.000 A 
ENDBRANCH  12  14
ENDBRANCH   4  12
TORSDOF 4
ENDMDL
MODEL 3
REMARK VINA RESULT:      -6.6      8.621     11.479
REMARK  Name = 4-(Isopropylamino)diphenylamine
REMARK  6 active torsions:
REMARK  status: ('A' for Active; 'I' for Inactive)
REMARK    1  A    between atoms: C_1  and  C_2
REMARK    2  A    between atoms: C_2  and  C_3
REMARK    3  A    between atoms: C_2  and  N_4
REMARK    4  A    between atoms: N_4  and  C_5
REMARK    5  A    between atoms: C_8  and  N_9
REMARK    6  A    between atoms: N_9  and  C_10
REMARK                            x       y       z     vdW  Elec       q    Type
REMARK                         _______ _______ _______ _____ _____    ______ ____
ROOT
ATOM      1  C   UNL     1      -8.492  -0.589 124.910  0.00  0.00    +0.000 A 
ATOM      2  C   UNL     1      -7.336  -0.213 124.207  0.00  0.00    +0.000 A 
ATOM      3  C   UNL     1      -7.201   1.086 123.662  0.00  0.00    +0.000 A 
ATOM      4  C   UNL     1      -8.256   1.999 123.716  0.00  0.00    +0.000 A 
ATOM      5  C   UNL     1      -9.400   1.606 124.405  0.00  0.00    +0.000 A 
ATOM      6  C   UNL     1      -9.482   0.369 125.014  0.00  0.00    +0.000 A 
ENDROOT
BRANCH   1   7
ATOM      7  N   UNL     1      -8.646  -1.844 125.468  0.00  0.00    +0.000 N 
ATOM      8  H   UNL     1      -8.545  -1.906 126.473  0.00  0.00    +0.000 HD
BRANCH   7  10
ATOM      9  C   UNL     1      -9.408  -2.802 123.352  0.00  0.00    +0.000 C 
ATOM     10  C   UNL     1      -8.763  -3.099 124.708  0.00  0.00    +0.000 C 
ATOM     11  C   UNL     1      -7.432  -3.795 124.419  0.00  0.00    +0.000 C 
ENDBRANCH   7  10
ENDBRANCH   1   7
BRANCH   4  12
ATOM     12  N   UNL     1      -8.197   3.270 123.129  0.00  0.00    +0.000 N 
ATOM     13  H   UNL     1      -8.307   4.067 123.745  0.00  0.00    +0.000 HD
BRANCH  12  14
ATOM     14  C   UNL     1      -7.825   3.572 121.805  0.00  0.00    +0.000 A 
ATOM     15  C   UNL     1      -8.787   3.766 120.811  0.00  0.00    +0.000 A 
ATOM     16  C   UNL     1      -8.400   4.087 119.505  0.00  0.00    +0.000 A 
ATOM     17  C   UNL     1      -7.051   4.277 119.197  0.00  0.00    +0.000 A 
ATOM     18  C   UNL     1      -6.088   4.134 120.190  0.00  0.00    +0.000 A 
ATOM     19  C   UNL     1      -6.474   3.772 121.478  0.00  0.00    +0.000 A 
ENDBRANCH  12  14
ENDBRANCH   4  12
TORSDOF 4
ENDMDL
MODEL 4
REMARK VINA RESULT:      -6.6      0.254      1.657
REMARK  Name = 4-(Isopropylamino)diphenylamine
REMARK  6 active torsions:
REMARK  status: ('A' for Active; 'I' for Inactive)
REMARK    1  A    between atoms: C_1  and  C_2
REMARK    2  A    between atoms: C_2  and  C_3
REMARK    3  A    between atoms: C_2  and  N_4
REMARK    4  A    between atoms: N_4  and  C_5
REMARK    5  A    between atoms: C_8  and  N_9
REMARK    6  A    between atoms: N_9  and  C_10
REMARK                            x       y       z     vdW  Elec       q    Type
REMARK                         _______ _______ _______ _____ _____    ______ ____
ROOT
ATOM      1  C   UNL     1     -10.876   7.701 129.750  0.00  0.00    +0.000 A 
ATOM      2  C   UNL     1     -11.948   7.351 130.587  0.00  0.00    +0.000 A 
ATOM      3  C   UNL     1     -11.740   6.593 131.764  0.00  0.00    +0.000 A 
ATOM      4  C   UNL     1     -10.478   6.081 132.072  0.00  0.00    +0.000 A 
ATOM      5  C   UNL     1      -9.429   6.425 131.224  0.00  0.00    +0.000 A 
ATOM      6  C   UNL     1      -9.629   7.245 130.131  0.00  0.00    +0.000 A 
ENDROOT
BRANCH   1   7
ATOM      7  N   UNL     1     -11.046   8.454 128.603  0.00  0.00    +0.000 N 
ATOM      8  H   UNL     1     -10.875   9.449 128.688  0.00  0.00    +0.000 HD
BRANCH   7  10
ATOM      9  C   UNL     1     -10.561   7.138 126.601  0.00  0.00    +0.000 C 
ATOM     10  C   UNL     1     -11.620   7.958 127.342  0.00  0.00    +0.000 C 
ATOM     11  C   UNL     1     -12.840   7.052 127.510  0.00  0.00    +0.000 C 
ENDBRANCH   7  10
ENDBRANCH   1   7
BRANCH   4  12
ATOM     12  N   UNL     1     -10.236   5.265 133.186  0.00  0.00    +0.000 N 
ATOM     13  H   UNL     1     -10.877   5.349 133.966  0.00  0.00    +0.000 HD
BRANCH  12  14
ATOM     14  C   UNL     1      -9.306   4.212 133.275  0.00  0.00    +0.000 A 
ATOM     15  C   UNL     1      -9.466   3.042 132.529  0.00  0.00    +0.000 A 
ATOM     16  C   UNL     1      -8.520   2.014 132.613  0.00  0.00    +0.000 A 
ATOM     17  C   UNL     1      -7.375   2.174 133.396  0.00  0.00    +0.000 A 
ATOM     18  C   UNL     1      -7.181   3.354 134.106  0.00  0.00    +0.000 A 
ATOM     19  C   UNL     1      -8.146   4.357 134.053  0.00  0.00    +0.000 A 
ENDBRANCH  12  14
ENDBRANCH   4  12
TORSDOF 4
ENDMDL
MODEL 5
REMARK VINA RESULT:      -6.3      8.790      9.932
REMARK  Name = 4-(Isopropylamino)diphenylamine
REMARK  6 active torsions:
REMARK  status: ('A' for Active; 'I' for Inactive)
REMARK    1  A    between atoms: C_1  and  C_2
REMARK    2  A    between atoms: C_2  and  C_3
REMARK    3  A    between atoms: C_2  and  N_4
REMARK    4  A    between atoms: N_4  and  C_5
REMARK    5  A    between atoms: C_8  and  N_9
REMARK    6  A    between atoms: N_9  and  C_10
REMARK                            x       y       z     vdW  Elec       q    Type
REMARK                         _______ _______ _______ _____ _____    ______ ____
ROOT
ATOM      1  C   UNL     1      -8.864  -2.791 126.625  0.00  0.00    +0.000 A 
ATOM      2  C   UNL     1      -8.160  -1.613 126.923  0.00  0.00    +0.000 A 
ATOM      3  C   UNL     1      -7.546  -1.429 128.186  0.00  0.00    +0.000 A 
ATOM      4  C   UNL     1      -7.712  -2.366 129.207  0.00  0.00    +0.000 A 
ATOM      5  C   UNL     1      -8.425  -3.521 128.898  0.00  0.00    +0.000 A 
ATOM      6  C   UNL     1      -8.938  -3.732 127.633  0.00  0.00    +0.000 A 
ENDROOT
BRANCH   1   7
ATOM      7  N   UNL     1      -9.459  -3.007 125.396  0.00  0.00    +0.000 N 
ATOM      8  H   UNL     1     -10.465  -2.902 125.357  0.00  0.00    +0.000 HD
BRANCH   7  10
ATOM      9  C   UNL     1      -8.935  -2.553 123.052  0.00  0.00    +0.000 C 
ATOM     10  C   UNL     1      -8.776  -3.544 124.207  0.00  0.00    +0.000 C 
ATOM     11  C   UNL     1      -7.276  -3.776 124.385  0.00  0.00    +0.000 C 
ENDBRANCH   7  10
ENDBRANCH   1   7
BRANCH   4  12
ATOM     12  N   UNL     1      -7.186  -2.194 130.495  0.00  0.00    +0.000 N 
ATOM     13  H   UNL     1      -7.293  -1.278 130.917  0.00  0.00    +0.000 HD
BRANCH  12  14
ATOM     14  C   UNL     1      -6.682  -3.198 131.342  0.00  0.00    +0.000 A 
ATOM     15  C   UNL     1      -5.744  -4.127 130.882  0.00  0.00    +0.000 A 
ATOM     16  C   UNL     1      -5.237  -5.106 131.744  0.00  0.00    +0.000 A 
ATOM     17  C   UNL     1      -5.616  -5.124 133.088  0.00  0.00    +0.000 A 
ATOM     18  C   UNL     1      -6.512  -4.175 133.568  0.00  0.00    +0.000 A 
ATOM     19  C   UNL     1      -7.047  -3.230 132.697  0.00  0.00    +0.000 A 
ENDBRANCH  12  14
ENDBRANCH   4  12
TORSDOF 4
ENDMDL
MODEL 6
REMARK VINA RESULT:      -6.3      2.479      6.637
REMARK  Name = 4-(Isopropylamino)diphenylamine
REMARK  6 active torsions:
REMARK  status: ('A' for Active; 'I' for Inactive)
REMARK    1  A    between atoms: C_1  and  C_2
REMARK    2  A    between atoms: C_2  and  C_3
REMARK    3  A    between atoms: C_2  and  N_4
REMARK    4  A    between atoms: N_4  and  C_5
REMARK    5  A    between atoms: C_8  and  N_9
REMARK    6  A    between atoms: N_9  and  C_10
REMARK                            x       y       z     vdW  Elec       q    Type
REMARK                         _______ _______ _______ _____ _____    ______ ____
ROOT
ATOM      1  C   UNL     1      -7.776   5.914 131.794  0.00  0.00    +0.000 A 
ATOM      2  C   UNL     1      -8.714   5.516 132.759  0.00  0.00    +0.000 A 
ATOM      3  C   UNL     1     -10.093   5.794 132.598  0.00  0.00    +0.000 A 
ATOM      4  C   UNL     1     -10.546   6.566 131.527  0.00  0.00    +0.000 A 
ATOM      5  C   UNL     1      -9.600   6.965 130.587  0.00  0.00    +0.000 A 
ATOM      6  C   UNL     1      -8.273   6.605 130.706  0.00  0.00    +0.000 A 
ENDROOT
BRANCH   1   7
ATOM      7  N   UNL     1      -6.426   5.641 131.916  0.00  0.00    +0.000 N 
ATOM      8  H   UNL     1      -6.166   4.664 131.968  0.00  0.00    +0.000 HD
BRANCH   7  10
ATOM      9  C   UNL     1      -4.318   6.050 133.084  0.00  0.00    +0.000 C 
ATOM     10  C   UNL     1      -5.377   6.646 132.153  0.00  0.00    +0.000 C 
ATOM     11  C   UNL     1      -4.643   7.110 130.894  0.00  0.00    +0.000 C 
ENDBRANCH   7  10
ENDBRANCH   1   7
BRANCH   4  12
ATOM     12  N   UNL     1     -11.890   6.931 131.363  0.00  0.00    +0.000 N 
ATOM     13  H   UNL     1     -12.456   6.992 132.201  0.00  0.00    +0.000 HD
BRANCH  12  14
ATOM     14  C   UNL     1     -12.501   7.396 130.183  0.00  0.00    +0.000 A 
ATOM     15  C   UNL     1     -12.631   8.763 129.926  0.00  0.00    +0.000 A 
ATOM     16  C   UNL     1     -13.221   9.207 128.738  0.00  0.00    +0.000 A 
ATOM     17  C   UNL     1     -13.630   8.288 127.769  0.00  0.00    +0.000 A 
ATOM     18  C   UNL     1     -13.462   6.926 127.993  0.00  0.00    +0.000 A 
ATOM     19  C   UNL     1     -12.914   6.487 129.195  0.00  0.00    +0.000 A 
ENDBRANCH  12  14
ENDBRANCH   4  12
TORSDOF 4
ENDMDL
MODEL 7
REMARK VINA RESULT:      -6.2      8.046      9.129
REMARK  Name = 4-(Isopropylamino)diphenylamine
REMARK  6 active torsions:
REMARK  status: ('A' for Active; 'I' for Inactive)
REMARK    1  A    between atoms: C_1  and  C_2
REMARK    2  A    between atoms: C_2  and  C_3
REMARK    3  A    between atoms: C_2  and  N_4
REMARK    4  A    between atoms: N_4  and  C_5
REMARK    5  A    between atoms: C_8  and  N_9
REMARK    6  A    between atoms: N_9  and  C_10
REMARK                            x       y       z     vdW  Elec       q    Type
REMARK                         _______ _______ _______ _____ _____    ______ ____
ROOT
ATOM      1  C   UNL     1      -7.419   2.654 123.152  0.00  0.00    +0.000 A 
ATOM      2  C   UNL     1      -6.830   1.379 123.134  0.00  0.00    +0.000 A 
ATOM      3  C   UNL     1      -7.501   0.256 123.677  0.00  0.00    +0.000 A 
ATOM      4  C   UNL     1      -8.720   0.402 124.340  0.00  0.00    +0.000 A 
ATOM      5  C   UNL     1      -9.283   1.675 124.361  0.00  0.00    +0.000 A 
ATOM      6  C   UNL     1      -8.664   2.744 123.744  0.00  0.00    +0.000 A 
ENDROOT
BRANCH   1   7
ATOM      7  N   UNL     1      -6.797   3.765 122.615  0.00  0.00    +0.000 N 
ATOM      8  H   UNL     1      -7.142   4.667 122.920  0.00  0.00    +0.000 HD
BRANCH   7  10
ATOM      9  C   UNL     1      -6.527   4.070 120.204  0.00  0.00    +0.000 C 
ATOM     10  C   UNL     1      -5.815   3.739 121.518  0.00  0.00    +0.000 C 
ATOM     11  C   UNL     1      -4.672   4.743 121.664  0.00  0.00    +0.000 C 
ENDBRANCH   7  10
ENDBRANCH   1   7
BRANCH   4  12
ATOM     12  N   UNL     1      -9.386  -0.666 124.957  0.00  0.00    +0.000 N 
ATOM     13  H   UNL     1     -10.249  -0.979 124.528  0.00  0.00    +0.000 HD
BRANCH  12  14
ATOM     14  C   UNL     1      -8.902  -1.470 126.006  0.00  0.00    +0.000 A 
ATOM     15  C   UNL     1      -8.090  -0.937 127.010  0.00  0.00    +0.000 A 
ATOM     16  C   UNL     1      -7.635  -1.747 128.057  0.00  0.00    +0.000 A 
ATOM     17  C   UNL     1      -8.040  -3.081 128.141  0.00  0.00    +0.000 A 
ATOM     18  C   UNL     1      -8.887  -3.610 127.173  0.00  0.00    +0.000 A 
ATOM     19  C   UNL     1      -9.302  -2.813 126.110  0.00  0.00    +0.000 A 
ENDBRANCH  12  14
ENDBRANCH   4  12
TORSDOF 4
ENDMDL
MODEL 8
REMARK VINA RESULT:      -6.2      8.023     10.798
REMARK  Name = 4-(Isopropylamino)diphenylamine
REMARK  6 active torsions:
REMARK  status: ('A' for Active; 'I' for Inactive)
REMARK    1  A    between atoms: C_1  and  C_2
REMARK    2  A    between atoms: C_2  and  C_3
REMARK    3  A    between atoms: C_2  and  N_4
REMARK    4  A    between atoms: N_4  and  C_5
REMARK    5  A    between atoms: C_8  and  N_9
REMARK    6  A    between atoms: N_9  and  C_10
REMARK                            x       y       z     vdW  Elec       q    Type
REMARK                         _______ _______ _______ _____ _____    ______ ____
ROOT
ATOM      1  C   UNL     1      -8.910  -0.789 125.270  0.00  0.00    +0.000 A 
ATOM      2  C   UNL     1      -7.958  -0.774 124.238  0.00  0.00    +0.000 A 
ATOM      3  C   UNL     1      -7.726   0.396 123.475  0.00  0.00    +0.000 A 
ATOM      4  C   UNL     1      -8.511   1.536 123.655  0.00  0.00    +0.000 A 
ATOM      5  C   UNL     1      -9.459   1.499 124.673  0.00  0.00    +0.000 A 
ATOM      6  C   UNL     1      -9.610   0.384 125.474  0.00  0.00    +0.000 A 
ENDROOT
BRANCH   1   7
ATOM      7  N   UNL     1      -9.146  -1.910 126.044  0.00  0.00    +0.000 N 
ATOM      8  H   UNL     1     -10.108  -2.222 126.105  0.00  0.00    +0.000 HD
BRANCH   7  10
ATOM      9  C   UNL     1      -7.574  -1.523 127.875  0.00  0.00    +0.000 C 
ATOM     10  C   UNL     1      -8.154  -2.563 126.914  0.00  0.00    +0.000 C 
ATOM     11  C   UNL     1      -8.711  -3.696 127.776  0.00  0.00    +0.000 C 
ENDBRANCH   7  10
ENDBRANCH   1   7
BRANCH   4  12
ATOM     12  N   UNL     1      -8.369   2.692 122.875  0.00  0.00    +0.000 N 
ATOM     13  H   UNL     1      -9.210   3.225 122.685  0.00  0.00    +0.000 HD
BRANCH  12  14
ATOM     14  C   UNL     1      -7.163   3.296 122.473  0.00  0.00    +0.000 A 
ATOM     15  C   UNL     1      -6.881   3.517 121.123  0.00  0.00    +0.000 A 
ATOM     16  C   UNL     1      -5.686   4.139 120.742  0.00  0.00    +0.000 A 
ATOM     17  C   UNL     1      -4.793   4.600 121.711  0.00  0.00    +0.000 A 
ATOM     18  C   UNL     1      -5.086   4.428 123.060  0.00  0.00    +0.000 A 
ATOM     19  C   UNL     1      -6.255   3.771 123.433  0.00  0.00    +0.000 A 
ENDBRANCH  12  14
ENDBRANCH   4  12
TORSDOF 4
ENDMDL
MODEL 9
REMARK VINA RESULT:      -6.1      9.146     10.079
REMARK  Name = 4-(Isopropylamino)diphenylamine
REMARK  6 active torsions:
REMARK  status: ('A' for Active; 'I' for Inactive)
REMARK    1  A    between atoms: C_1  and  C_2
REMARK    2  A    between atoms: C_2  and  C_3
REMARK    3  A    between atoms: C_2  and  N_4
REMARK    4  A    between atoms: N_4  and  C_5
REMARK    5  A    between atoms: C_8  and  N_9
REMARK    6  A    between atoms: N_9  and  C_10
REMARK                            x       y       z     vdW  Elec       q    Type
REMARK                         _______ _______ _______ _____ _____    ______ ____
ROOT
ATOM      1  C   UNL     1      -7.606  -3.008 125.744  0.00  0.00    +0.000 A 
ATOM      2  C   UNL     1      -8.584  -3.620 126.544  0.00  0.00    +0.000 A 
ATOM      3  C   UNL     1      -8.623  -3.407 127.943  0.00  0.00    +0.000 A 
ATOM      4  C   UNL     1      -7.627  -2.667 128.582  0.00  0.00    +0.000 A 
ATOM      5  C   UNL     1      -6.657  -2.079 127.776  0.00  0.00    +0.000 A 
ATOM      6  C   UNL     1      -6.685  -2.215 126.402  0.00  0.00    +0.000 A 
ENDROOT
BRANCH   1   7
ATOM      7  N   UNL     1      -7.553  -3.183 124.374  0.00  0.00    +0.000 N 
ATOM      8  H   UNL     1      -6.777  -3.729 124.018  0.00  0.00    +0.000 HD
BRANCH   7  10
ATOM      9  C   UNL     1      -9.714  -3.297 123.238  0.00  0.00    +0.000 C 
ATOM     10  C   UNL     1      -8.417  -2.499 123.398  0.00  0.00    +0.000 C 
ATOM     11  C   UNL     1      -8.821  -1.078 123.792  0.00  0.00    +0.000 C 
ENDBRANCH   7  10
ENDBRANCH   1   7
BRANCH   4  12
ATOM     12  N   UNL     1      -7.581  -2.488 129.972  0.00  0.00    +0.000 N 
ATOM     13  H   UNL     1      -8.210  -1.799 130.369  0.00  0.00    +0.000 HD
BRANCH  12  14
ATOM     14  C   UNL     1      -6.886  -3.283 130.903  0.00  0.00    +0.000 A 
ATOM     15  C   UNL     1      -7.071  -3.115 132.277  0.00  0.00    +0.000 A 
ATOM     16  C   UNL     1      -6.388  -3.930 133.188  0.00  0.00    +0.000 A 
ATOM     17  C   UNL     1      -5.563  -4.959 132.730  0.00  0.00    +0.000 A 
ATOM     18  C   UNL     1      -5.409  -5.166 131.363  0.00  0.00    +0.000 A 
ATOM     19  C   UNL     1      -6.056  -4.327 130.461  0.00  0.00    +0.000 A 
ENDBRANCH  12  14
ENDBRANCH   4  12
TORSDOF 4
ENDMDL
