MODEL 1
REMARK VINA RESULT:      -6.1      0.000      0.000
REMARK  Name = 5-O-phosphono-alpha-D-ribofuranosyl diphosphate
REMARK  14 active torsions:
REMARK  status: ('A' for Active; 'I' for Inactive)
REMARK    1  A    between atoms: O_1  and  C_2
REMARK    2  A    between atoms: C_3  and  O_4
REMARK    3  A    between atoms: C_5  and  O_6
REMARK    4  A    between atoms: O_6  and  P_7
REMARK    5  A    between atoms: P_7  and  O_8
REMARK    6  A    between atoms: P_7  and  O_10
REMARK    7  A    between atoms: O_10  and  P_11
REMARK    8  A    between atoms: P_11  and  O_12
REMARK    9  A    between atoms: P_11  and  O_13
REMARK   10  A    between atoms: C_16  and  C_17
REMARK   11  A    between atoms: C_17  and  O_18
REMARK   12  A    between atoms: O_18  and  P_19
REMARK   13  A    between atoms: P_19  and  O_20
REMARK   14  A    between atoms: P_19  and  O_21
REMARK                            x       y       z     vdW  Elec       q    Type
REMARK                         _______ _______ _______ _____ _____    ______ ____
ROOT
ATOM      1  C   UNL     1     -10.756   6.412 131.701  0.00  0.00    +0.000 C 
ATOM      2  C   UNL     1      -9.392   6.523 131.042  0.00  0.00    +0.000 C 
ATOM      3  C   UNL     1      -9.323   5.203 130.209  0.00  0.00    +0.000 C 
ATOM      4  O   UNL     1     -10.648   4.841 129.871  0.00  0.00    +0.000 OA
ATOM      5  C   UNL     1     -11.562   5.663 130.645  0.00  0.00    +0.000 C 
ENDROOT
BRANCH   1   6
ATOM      6  O   UNL     1     -10.667   5.648 132.912  0.00  0.00    +0.000 OA
ATOM      7  H   UNL     1     -10.807   4.717 132.651  0.00  0.00    +0.000 HD
ENDBRANCH   1   6
BRANCH   2   8
ATOM      8  O   UNL     1      -8.381   6.701 132.042  0.00  0.00    +0.000 OA
ATOM      9  H   UNL     1      -7.537   6.469 131.605  0.00  0.00    +0.000 HD
ENDBRANCH   2   8
BRANCH   3  10
ATOM     10  O   UNL     1      -8.714   4.320 131.043  0.00  0.00    +0.000 OA
BRANCH  10  11
ATOM     11  P   UNL     1      -8.492   2.861 131.946  0.00  0.00    +0.000 P 
ATOM     12  O   UNL     1      -8.129   2.120 130.658  0.00  0.00    +0.000 OA
BRANCH  11  13
ATOM     13  O   UNL     1     -10.110   2.803 132.143  0.00  0.00    +0.000 OA
ATOM     14  H   UNL     1     -10.308   2.555 133.066  0.00  0.00    +0.000 HD
ENDBRANCH  11  13
BRANCH  11  15
ATOM     15  O   UNL     1      -8.270   1.402 132.848  0.00  0.00    +0.000 OA
BRANCH  15  16
ATOM     16  P   UNL     1      -8.094   0.071 131.757  0.00  0.00    +0.000 P 
ATOM     17  O   UNL     1      -7.935  -1.120 130.781  0.00  0.00    +0.000 OA
BRANCH  16  18
ATOM     18  O   UNL     1      -7.850  -0.868 133.093  0.00  0.00    +0.000 OA
ATOM     19  H   UNL     1      -7.225  -1.592 132.890  0.00  0.00    +0.000 HD
ENDBRANCH  16  18
BRANCH  16  20
ATOM     20  O   UNL     1      -9.727   0.001 131.866  0.00  0.00    +0.000 OA
ATOM     21  H   UNL     1     -10.098   0.890 131.697  0.00  0.00    +0.000 HD
ENDBRANCH  16  20
ENDBRANCH  15  16
ENDBRANCH  11  15
ENDBRANCH  10  11
ENDBRANCH   3  10
BRANCH   5  22
ATOM     22  C   UNL     1     -12.205   6.652 129.687  0.00  0.00    +0.000 C 
BRANCH  22  23
ATOM     23  O   UNL     1     -12.147   6.246 128.306  0.00  0.00    +0.000 OA
BRANCH  23  24
ATOM     24  P   UNL     1     -11.404   7.352 127.202  0.00  0.00    +0.000 P 
ATOM     25  O   UNL     1     -10.740   8.342 126.214  0.00  0.00    +0.000 OA
BRANCH  24  26
ATOM     26  O   UNL     1     -10.078   6.390 127.182  0.00  0.00    +0.000 OA
ATOM     27  H   UNL     1      -9.775   6.188 126.273  0.00  0.00    +0.000 HD
ENDBRANCH  24  26
BRANCH  24  28
ATOM     28  O   UNL     1     -12.247   6.534 126.061  0.00  0.00    +0.000 OA
ATOM     29  H   UNL     1     -13.202   6.565 126.250  0.00  0.00    +0.000 HD
ENDBRANCH  24  28
ENDBRANCH  23  24
ENDBRANCH  22  23
ENDBRANCH   5  22
TORSDOF 14
ENDMDL
MODEL 2
REMARK VINA RESULT:      -5.9      1.023      1.436
REMARK  Name = 5-O-phosphono-alpha-D-ribofuranosyl diphosphate
REMARK  14 active torsions:
REMARK  status: ('A' for Active; 'I' for Inactive)
REMARK    1  A    between atoms: O_1  and  C_2
REMARK    2  A    between atoms: C_3  and  O_4
REMARK    3  A    between atoms: C_5  and  O_6
REMARK    4  A    between atoms: O_6  and  P_7
REMARK    5  A    between atoms: P_7  and  O_8
REMARK    6  A    between atoms: P_7  and  O_10
REMARK    7  A    between atoms: O_10  and  P_11
REMARK    8  A    between atoms: P_11  and  O_12
REMARK    9  A    between atoms: P_11  and  O_13
REMARK   10  A    between atoms: C_16  and  C_17
REMARK   11  A    between atoms: C_17  and  O_18
REMARK   12  A    between atoms: O_18  and  P_19
REMARK   13  A    between atoms: P_19  and  O_20
REMARK   14  A    between atoms: P_19  and  O_21
REMARK                            x       y       z     vdW  Elec       q    Type
REMARK                         _______ _______ _______ _____ _____    ______ ____
ROOT
ATOM      1  C   UNL     1     -10.740   6.407 131.646  0.00  0.00    +0.000 C 
ATOM      2  C   UNL     1      -9.292   6.526 131.203  0.00  0.00    +0.000 C 
ATOM      3  C   UNL     1      -9.150   5.316 130.224  0.00  0.00    +0.000 C 
ATOM      4  O   UNL     1     -10.423   5.069 129.662  0.00  0.00    +0.000 OA
ATOM      5  C   UNL     1     -11.411   5.836 130.400  0.00  0.00    +0.000 C 
ENDROOT
BRANCH   1   6
ATOM      6  O   UNL     1     -10.853   5.496 132.749  0.00  0.00    +0.000 OA
ATOM      7  H   UNL     1     -11.151   4.649 132.366  0.00  0.00    +0.000 HD
ENDBRANCH   1   6
BRANCH   2   8
ATOM      8  O   UNL     1      -8.431   6.527 132.348  0.00  0.00    +0.000 OA
ATOM      9  H   UNL     1      -7.570   6.864 132.028  0.00  0.00    +0.000 HD
ENDBRANCH   2   8
BRANCH   3  10
ATOM     10  O   UNL     1      -8.698   4.307 131.014  0.00  0.00    +0.000 OA
BRANCH  10  11
ATOM     11  P   UNL     1      -8.719   2.786 131.838  0.00  0.00    +0.000 P 
ATOM     12  O   UNL     1     -10.208   2.637 131.525  0.00  0.00    +0.000 OA
BRANCH  11  13
ATOM     13  O   UNL     1      -8.559   3.607 133.240  0.00  0.00    +0.000 OA
ATOM     14  H   UNL     1      -7.797   4.213 133.167  0.00  0.00    +0.000 HD
ENDBRANCH  11  13
BRANCH  11  15
ATOM     15  O   UNL     1      -8.740   1.266 132.664  0.00  0.00    +0.000 OA
BRANCH  15  16
ATOM     16  P   UNL     1      -7.192   0.507 132.515  0.00  0.00    +0.000 P 
ATOM     17  O   UNL     1      -5.808  -0.172 132.381  0.00  0.00    +0.000 OA
BRANCH  16  18
ATOM     18  O   UNL     1      -6.736   1.828 131.636  0.00  0.00    +0.000 OA
ATOM     19  H   UNL     1      -5.815   2.077 131.851  0.00  0.00    +0.000 HD
ENDBRANCH  16  18
BRANCH  16  20
ATOM     20  O   UNL     1      -6.904   1.227 133.958  0.00  0.00    +0.000 OA
ATOM     21  H   UNL     1      -6.374   0.624 134.516  0.00  0.00    +0.000 HD
ENDBRANCH  16  20
ENDBRANCH  15  16
ENDBRANCH  11  15
ENDBRANCH  10  11
ENDBRANCH   3  10
BRANCH   5  22
ATOM     22  C   UNL     1     -11.874   6.967 129.498  0.00  0.00    +0.000 C 
BRANCH  22  23
ATOM     23  O   UNL     1     -12.180   6.551 128.153  0.00  0.00    +0.000 OA
BRANCH  23  24
ATOM     24  P   UNL     1     -11.396   7.414 126.875  0.00  0.00    +0.000 P 
ATOM     25  O   UNL     1     -10.695   8.188 125.732  0.00  0.00    +0.000 OA
BRANCH  24  26
ATOM     26  O   UNL     1     -10.141   6.366 126.981  0.00  0.00    +0.000 OA
ATOM     27  H   UNL     1      -9.371   6.648 126.446  0.00  0.00    +0.000 HD
ENDBRANCH  24  26
BRANCH  24  28
ATOM     28  O   UNL     1     -12.328   6.493 125.893  0.00  0.00    +0.000 OA
ATOM     29  H   UNL     1     -12.680   5.723 126.375  0.00  0.00    +0.000 HD
ENDBRANCH  24  28
ENDBRANCH  23  24
ENDBRANCH  22  23
ENDBRANCH   5  22
TORSDOF 14
ENDMDL
MODEL 3
REMARK VINA RESULT:      -5.6      5.898      8.121
REMARK  Name = 5-O-phosphono-alpha-D-ribofuranosyl diphosphate
REMARK  14 active torsions:
REMARK  status: ('A' for Active; 'I' for Inactive)
REMARK    1  A    between atoms: O_1  and  C_2
REMARK    2  A    between atoms: C_3  and  O_4
REMARK    3  A    between atoms: C_5  and  O_6
REMARK    4  A    between atoms: O_6  and  P_7
REMARK    5  A    between atoms: P_7  and  O_8
REMARK    6  A    between atoms: P_7  and  O_10
REMARK    7  A    between atoms: O_10  and  P_11
REMARK    8  A    between atoms: P_11  and  O_12
REMARK    9  A    between atoms: P_11  and  O_13
REMARK   10  A    between atoms: C_16  and  C_17
REMARK   11  A    between atoms: C_17  and  O_18
REMARK   12  A    between atoms: O_18  and  P_19
REMARK   13  A    between atoms: P_19  and  O_20
REMARK   14  A    between atoms: P_19  and  O_21
REMARK                            x       y       z     vdW  Elec       q    Type
REMARK                         _______ _______ _______ _____ _____    ______ ____
ROOT
ATOM      1  C   UNL     1      -8.747   2.521 123.944  0.00  0.00    +0.000 C 
ATOM      2  C   UNL     1      -7.289   2.754 123.584  0.00  0.00    +0.000 C 
ATOM      3  C   UNL     1      -6.546   1.964 124.710  0.00  0.00    +0.000 C 
ATOM      4  O   UNL     1      -7.391   0.907 125.120  0.00  0.00    +0.000 OA
ATOM      5  C   UNL     1      -8.709   1.121 124.549  0.00  0.00    +0.000 C 
ENDROOT
BRANCH   1   6
ATOM      6  O   UNL     1      -9.184   3.485 124.913  0.00  0.00    +0.000 OA
ATOM      7  H   UNL     1      -9.708   2.985 125.568  0.00  0.00    +0.000 HD
ENDBRANCH   1   6
BRANCH   2   8
ATOM      8  O   UNL     1      -7.025   4.159 123.508  0.00  0.00    +0.000 OA
ATOM      9  H   UNL     1      -6.846   4.341 122.564  0.00  0.00    +0.000 HD
ENDBRANCH   2   8
BRANCH   3  10
ATOM     10  O   UNL     1      -6.330   2.896 125.676  0.00  0.00    +0.000 OA
BRANCH  10  11
ATOM     11  P   UNL     1      -6.626   3.807 127.115  0.00  0.00    +0.000 P 
ATOM     12  O   UNL     1      -7.022   5.017 126.268  0.00  0.00    +0.000 OA
BRANCH  11  13
ATOM     13  O   UNL     1      -5.012   3.844 127.356  0.00  0.00    +0.000 OA
ATOM     14  H   UNL     1      -4.652   2.947 127.221  0.00  0.00    +0.000 HD
ENDBRANCH  11  13
BRANCH  11  15
ATOM     15  O   UNL     1      -6.920   4.720 128.556  0.00  0.00    +0.000 OA
BRANCH  15  16
ATOM     16  P   UNL     1      -8.474   4.305 129.193  0.00  0.00    +0.000 P 
ATOM     17  O   UNL     1      -9.865   3.934 129.764  0.00  0.00    +0.000 OA
BRANCH  16  18
ATOM     18  O   UNL     1      -9.069   5.561 128.303  0.00  0.00    +0.000 OA
ATOM     19  H   UNL     1      -9.610   6.150 128.865  0.00  0.00    +0.000 HD
ENDBRANCH  16  18
BRANCH  16  20
ATOM     20  O   UNL     1      -8.505   3.253 127.938  0.00  0.00    +0.000 OA
ATOM     21  H   UNL     1      -9.390   3.275 127.523  0.00  0.00    +0.000 HD
ENDBRANCH  16  20
ENDBRANCH  15  16
ENDBRANCH  11  15
ENDBRANCH  10  11
ENDBRANCH   3  10
BRANCH   5  22
ATOM     22  C   UNL     1      -8.905   0.081 123.459  0.00  0.00    +0.000 C 
BRANCH  22  23
ATOM     23  O   UNL     1      -9.660  -1.071 123.883  0.00  0.00    +0.000 OA
BRANCH  23  24
ATOM     24  P   UNL     1      -8.776  -2.542 124.100  0.00  0.00    +0.000 P 
ATOM     25  O   UNL     1      -7.984  -3.857 124.295  0.00  0.00    +0.000 OA
BRANCH  24  26
ATOM     26  O   UNL     1     -10.067  -3.365 123.518  0.00  0.00    +0.000 OA
ATOM     27  H   UNL     1     -10.909  -3.085 123.934  0.00  0.00    +0.000 HD
ENDBRANCH  24  26
BRANCH  24  28
ATOM     28  O   UNL     1      -8.116  -2.175 122.647  0.00  0.00    +0.000 OA
ATOM     29  H   UNL     1      -7.195  -1.877 122.752  0.00  0.00    +0.000 HD
ENDBRANCH  24  28
ENDBRANCH  23  24
ENDBRANCH  22  23
ENDBRANCH   5  22
TORSDOF 14
ENDMDL
MODEL 4
REMARK VINA RESULT:      -5.4      3.028      4.398
REMARK  Name = 5-O-phosphono-alpha-D-ribofuranosyl diphosphate
REMARK  14 active torsions:
REMARK  status: ('A' for Active; 'I' for Inactive)
REMARK    1  A    between atoms: O_1  and  C_2
REMARK    2  A    between atoms: C_3  and  O_4
REMARK    3  A    between atoms: C_5  and  O_6
REMARK    4  A    between atoms: O_6  and  P_7
REMARK    5  A    between atoms: P_7  and  O_8
REMARK    6  A    between atoms: P_7  and  O_10
REMARK    7  A    between atoms: O_10  and  P_11
REMARK    8  A    between atoms: P_11  and  O_12
REMARK    9  A    between atoms: P_11  and  O_13
REMARK   10  A    between atoms: C_16  and  C_17
REMARK   11  A    between atoms: C_17  and  O_18
REMARK   12  A    between atoms: O_18  and  P_19
REMARK   13  A    between atoms: P_19  and  O_20
REMARK   14  A    between atoms: P_19  and  O_21
REMARK                            x       y       z     vdW  Elec       q    Type
REMARK                         _______ _______ _______ _____ _____    ______ ____
ROOT
ATOM      1  C   UNL     1     -10.350   5.044 131.248  0.00  0.00    +0.000 C 
ATOM      2  C   UNL     1     -10.046   6.358 131.947  0.00  0.00    +0.000 C 
ATOM      3  C   UNL     1      -9.197   7.110 130.872  0.00  0.00    +0.000 C 
ATOM      4  O   UNL     1      -9.606   6.644 129.601  0.00  0.00    +0.000 OA
ATOM      5  C   UNL     1     -10.442   5.471 129.786  0.00  0.00    +0.000 C 
ENDROOT
BRANCH   1   6
ATOM      6  O   UNL     1      -9.275   4.113 131.442  0.00  0.00    +0.000 OA
ATOM      7  H   UNL     1      -9.318   3.849 132.381  0.00  0.00    +0.000 HD
ENDBRANCH   1   6
BRANCH   2   8
ATOM      8  O   UNL     1      -9.408   6.105 133.204  0.00  0.00    +0.000 OA
ATOM      9  H   UNL     1     -10.038   6.416 133.885  0.00  0.00    +0.000 HD
ENDBRANCH   2   8
BRANCH   3  10
ATOM     10  O   UNL     1      -7.914   6.788 131.184  0.00  0.00    +0.000 OA
BRANCH  10  11
ATOM     11  P   UNL     1      -6.295   6.236 130.930  0.00  0.00    +0.000 P 
ATOM     12  O   UNL     1      -5.917   7.606 130.365  0.00  0.00    +0.000 OA
BRANCH  11  13
ATOM     13  O   UNL     1      -6.862   5.307 129.714  0.00  0.00    +0.000 OA
ATOM     14  H   UNL     1      -6.453   5.599 128.877  0.00  0.00    +0.000 HD
ENDBRANCH  11  13
BRANCH  11  15
ATOM     15  O   UNL     1      -4.675   5.684 130.675  0.00  0.00    +0.000 OA
BRANCH  15  16
ATOM     16  P   UNL     1      -4.613   4.725 129.236  0.00  0.00    +0.000 P 
ATOM     17  O   UNL     1      -4.558   3.868 127.948  0.00  0.00    +0.000 OA
BRANCH  16  18
ATOM     18  O   UNL     1      -4.393   6.141 128.416  0.00  0.00    +0.000 OA
ATOM     19  H   UNL     1      -5.114   6.769 128.624  0.00  0.00    +0.000 HD
ENDBRANCH  16  18
BRANCH  16  20
ATOM     20  O   UNL     1      -3.029   4.573 129.624  0.00  0.00    +0.000 OA
ATOM     21  H   UNL     1      -2.918   4.726 130.584  0.00  0.00    +0.000 HD
ENDBRANCH  16  20
ENDBRANCH  15  16
ENDBRANCH  11  15
ENDBRANCH  10  11
ENDBRANCH   3  10
BRANCH   5  22
ATOM     22  C   UNL     1     -11.869   5.874 129.454  0.00  0.00    +0.000 C 
BRANCH  22  23
ATOM     23  O   UNL     1     -11.984   6.676 128.262  0.00  0.00    +0.000 OA
BRANCH  23  24
ATOM     24  P   UNL     1     -12.716   8.234 128.442  0.00  0.00    +0.000 P 
ATOM     25  O   UNL     1     -13.371   9.627 128.602  0.00  0.00    +0.000 OA
BRANCH  24  26
ATOM     26  O   UNL     1     -12.451   8.135 130.056  0.00  0.00    +0.000 OA
ATOM     27  H   UNL     1     -11.544   7.831 130.269  0.00  0.00    +0.000 HD
ENDBRANCH  24  26
BRANCH  24  28
ATOM     28  O   UNL     1     -11.233   8.802 128.043  0.00  0.00    +0.000 OA
ATOM     29  H   UNL     1     -11.307   9.575 127.455  0.00  0.00    +0.000 HD
ENDBRANCH  24  28
ENDBRANCH  23  24
ENDBRANCH  22  23
ENDBRANCH   5  22
TORSDOF 14
ENDMDL
MODEL 5
REMARK VINA RESULT:      -5.2      3.101      6.554
REMARK  Name = 5-O-phosphono-alpha-D-ribofuranosyl diphosphate
REMARK  14 active torsions:
REMARK  status: ('A' for Active; 'I' for Inactive)
REMARK    1  A    between atoms: O_1  and  C_2
REMARK    2  A    between atoms: C_3  and  O_4
REMARK    3  A    between atoms: C_5  and  O_6
REMARK    4  A    between atoms: O_6  and  P_7
REMARK    5  A    between atoms: P_7  and  O_8
REMARK    6  A    between atoms: P_7  and  O_10
REMARK    7  A    between atoms: O_10  and  P_11
REMARK    8  A    between atoms: P_11  and  O_12
REMARK    9  A    between atoms: P_11  and  O_13
REMARK   10  A    between atoms: C_16  and  C_17
REMARK   11  A    between atoms: C_17  and  O_18
REMARK   12  A    between atoms: O_18  and  P_19
REMARK   13  A    between atoms: P_19  and  O_20
REMARK   14  A    between atoms: P_19  and  O_21
REMARK                            x       y       z     vdW  Elec       q    Type
REMARK                         _______ _______ _______ _____ _____    ______ ____
ROOT
ATOM      1  C   UNL     1      -7.841   6.296 131.643  0.00  0.00    +0.000 C 
ATOM      2  C   UNL     1      -8.749   5.550 132.606  0.00  0.00    +0.000 C 
ATOM      3  C   UNL     1      -9.276   4.378 131.717  0.00  0.00    +0.000 C 
ATOM      4  O   UNL     1      -8.285   4.099 130.747  0.00  0.00    +0.000 OA
ATOM      5  C   UNL     1      -7.301   5.166 130.771  0.00  0.00    +0.000 C 
ENDROOT
BRANCH   1   6
ATOM      6  O   UNL     1      -8.600   7.228 130.859  0.00  0.00    +0.000 OA
ATOM      7  H   UNL     1      -8.943   7.889 131.490  0.00  0.00    +0.000 HD
ENDBRANCH   1   6
BRANCH   2   8
ATOM      8  O   UNL     1      -9.735   6.443 133.136  0.00  0.00    +0.000 OA
ATOM      9  H   UNL     1      -9.233   7.166 133.561  0.00  0.00    +0.000 HD
ENDBRANCH   2   8
BRANCH   3  10
ATOM     10  O   UNL     1     -10.433   4.860 131.190  0.00  0.00    +0.000 OA
BRANCH  10  11
ATOM     11  P   UNL     1     -11.491   5.539 130.003  0.00  0.00    +0.000 P 
ATOM     12  O   UNL     1     -10.303   5.742 129.061  0.00  0.00    +0.000 OA
BRANCH  11  13
ATOM     13  O   UNL     1     -11.629   6.854 130.960  0.00  0.00    +0.000 OA
ATOM     14  H   UNL     1     -12.104   6.604 131.774  0.00  0.00    +0.000 HD
ENDBRANCH  11  13
BRANCH  11  15
ATOM     15  O   UNL     1     -12.549   6.220 128.815  0.00  0.00    +0.000 OA
BRANCH  15  16
ATOM     16  P   UNL     1     -11.689   7.398 127.884  0.00  0.00    +0.000 P 
ATOM     17  O   UNL     1     -10.919   8.451 127.052  0.00  0.00    +0.000 OA
BRANCH  16  18
ATOM     18  O   UNL     1     -12.077   6.494 126.559  0.00  0.00    +0.000 OA
ATOM     19  H   UNL     1     -12.156   7.065 125.770  0.00  0.00    +0.000 HD
ENDBRANCH  16  18
BRANCH  16  20
ATOM     20  O   UNL     1     -13.122   8.191 127.903  0.00  0.00    +0.000 OA
ATOM     21  H   UNL     1     -12.991   9.099 127.563  0.00  0.00    +0.000 HD
ENDBRANCH  16  20
ENDBRANCH  15  16
ENDBRANCH  11  15
ENDBRANCH  10  11
ENDBRANCH   3  10
BRANCH   5  22
ATOM     22  C   UNL     1      -6.032   4.599 131.387  0.00  0.00    +0.000 C 
BRANCH  22  23
ATOM     23  O   UNL     1      -4.847   5.359 131.081  0.00  0.00    +0.000 OA
BRANCH  23  24
ATOM     24  P   UNL     1      -4.373   5.421 129.418  0.00  0.00    +0.000 P 
ATOM     25  O   UNL     1      -3.949   5.476 127.930  0.00  0.00    +0.000 OA
BRANCH  24  26
ATOM     26  O   UNL     1      -4.562   7.049 129.460  0.00  0.00    +0.000 OA
ATOM     27  H   UNL     1      -4.794   7.376 130.353  0.00  0.00    +0.000 HD
ENDBRANCH  24  26
BRANCH  24  28
ATOM     28  O   UNL     1      -2.849   5.393 130.014  0.00  0.00    +0.000 OA
ATOM     29  H   UNL     1      -2.213   5.130 129.325  0.00  0.00    +0.000 HD
ENDBRANCH  24  28
ENDBRANCH  23  24
ENDBRANCH  22  23
ENDBRANCH   5  22
TORSDOF 14
ENDMDL
MODEL 6
REMARK VINA RESULT:      -5.2      3.196      5.134
REMARK  Name = 5-O-phosphono-alpha-D-ribofuranosyl diphosphate
REMARK  14 active torsions:
REMARK  status: ('A' for Active; 'I' for Inactive)
REMARK    1  A    between atoms: O_1  and  C_2
REMARK    2  A    between atoms: C_3  and  O_4
REMARK    3  A    between atoms: C_5  and  O_6
REMARK    4  A    between atoms: O_6  and  P_7
REMARK    5  A    between atoms: P_7  and  O_8
REMARK    6  A    between atoms: P_7  and  O_10
REMARK    7  A    between atoms: O_10  and  P_11
REMARK    8  A    between atoms: P_11  and  O_12
REMARK    9  A    between atoms: P_11  and  O_13
REMARK   10  A    between atoms: C_16  and  C_17
REMARK   11  A    between atoms: C_17  and  O_18
REMARK   12  A    between atoms: O_18  and  P_19
REMARK   13  A    between atoms: P_19  and  O_20
REMARK   14  A    between atoms: P_19  and  O_21
REMARK                            x       y       z     vdW  Elec       q    Type
REMARK                         _______ _______ _______ _____ _____    ______ ____
ROOT
ATOM      1  C   UNL     1      -8.921   4.598 129.395  0.00  0.00    +0.000 C 
ATOM      2  C   UNL     1      -8.462   3.742 130.563  0.00  0.00    +0.000 C 
ATOM      3  C   UNL     1      -8.277   4.805 131.693  0.00  0.00    +0.000 C 
ATOM      4  O   UNL     1      -9.173   5.867 131.432  0.00  0.00    +0.000 OA
ATOM      5  C   UNL     1      -9.711   5.699 130.094  0.00  0.00    +0.000 C 
ENDROOT
BRANCH   1   6
ATOM      6  O   UNL     1      -7.790   5.144 128.700  0.00  0.00    +0.000 OA
ATOM      7  H   UNL     1      -8.157   5.643 127.945  0.00  0.00    +0.000 HD
ENDBRANCH   1   6
BRANCH   2   8
ATOM      8  O   UNL     1      -7.299   2.993 130.192  0.00  0.00    +0.000 OA
ATOM      9  H   UNL     1      -7.506   2.602 129.320  0.00  0.00    +0.000 HD
ENDBRANCH   2   8
BRANCH   3  10
ATOM     10  O   UNL     1      -6.968   5.160 131.598  0.00  0.00    +0.000 OA
BRANCH  10  11
ATOM     11  P   UNL     1      -5.603   6.179 131.298  0.00  0.00    +0.000 P 
ATOM     12  O   UNL     1      -5.401   6.351 132.805  0.00  0.00    +0.000 OA
BRANCH  11  13
ATOM     13  O   UNL     1      -6.643   7.323 130.777  0.00  0.00    +0.000 OA
ATOM     14  H   UNL     1      -7.505   6.905 130.588  0.00  0.00    +0.000 HD
ENDBRANCH  11  13
BRANCH  11  15
ATOM     15  O   UNL     1      -4.239   7.199 130.999  0.00  0.00    +0.000 OA
BRANCH  15  16
ATOM     16  P   UNL     1      -3.608   6.870 129.422  0.00  0.00    +0.000 P 
ATOM     17  O   UNL     1      -3.044   6.576 128.011  0.00  0.00    +0.000 OA
BRANCH  16  18
ATOM     18  O   UNL     1      -4.954   5.946 129.180  0.00  0.00    +0.000 OA
ATOM     19  H   UNL     1      -5.385   6.187 128.336  0.00  0.00    +0.000 HD
ENDBRANCH  16  18
BRANCH  16  20
ATOM     20  O   UNL     1      -4.361   8.271 129.028  0.00  0.00    +0.000 OA
ATOM     21  H   UNL     1      -4.624   8.240 128.087  0.00  0.00    +0.000 HD
ENDBRANCH  16  20
ENDBRANCH  15  16
ENDBRANCH  11  15
ENDBRANCH  10  11
ENDBRANCH   3  10
BRANCH   5  22
ATOM     22  C   UNL     1     -11.165   5.279 130.240  0.00  0.00    +0.000 C 
BRANCH  22  23
ATOM     23  O   UNL     1     -12.037   5.848 129.245  0.00  0.00    +0.000 OA
BRANCH  23  24
ATOM     24  P   UNL     1     -11.488   7.290 128.464  0.00  0.00    +0.000 P 
ATOM     25  O   UNL     1     -10.996   8.582 127.766  0.00  0.00    +0.000 OA
BRANCH  24  26
ATOM     26  O   UNL     1     -11.930   6.640 127.026  0.00  0.00    +0.000 OA
ATOM     27  H   UNL     1     -11.914   5.661 127.037  0.00  0.00    +0.000 HD
ENDBRANCH  24  26
BRANCH  24  28
ATOM     28  O   UNL     1     -12.962   7.880 128.864  0.00  0.00    +0.000 OA
ATOM     29  H   UNL     1     -12.881   8.757 129.281  0.00  0.00    +0.000 HD
ENDBRANCH  24  28
ENDBRANCH  23  24
ENDBRANCH  22  23
ENDBRANCH   5  22
TORSDOF 14
ENDMDL
MODEL 7
REMARK VINA RESULT:      -5.1      1.545      2.304
REMARK  Name = 5-O-phosphono-alpha-D-ribofuranosyl diphosphate
REMARK  14 active torsions:
REMARK  status: ('A' for Active; 'I' for Inactive)
REMARK    1  A    between atoms: O_1  and  C_2
REMARK    2  A    between atoms: C_3  and  O_4
REMARK    3  A    between atoms: C_5  and  O_6
REMARK    4  A    between atoms: O_6  and  P_7
REMARK    5  A    between atoms: P_7  and  O_8
REMARK    6  A    between atoms: P_7  and  O_10
REMARK    7  A    between atoms: O_10  and  P_11
REMARK    8  A    between atoms: P_11  and  O_12
REMARK    9  A    between atoms: P_11  and  O_13
REMARK   10  A    between atoms: C_16  and  C_17
REMARK   11  A    between atoms: C_17  and  O_18
REMARK   12  A    between atoms: O_18  and  P_19
REMARK   13  A    between atoms: P_19  and  O_20
REMARK   14  A    between atoms: P_19  and  O_21
REMARK                            x       y       z     vdW  Elec       q    Type
REMARK                         _______ _______ _______ _____ _____    ______ ____
ROOT
ATOM      1  C   UNL     1     -10.687   4.989 130.998  0.00  0.00    +0.000 C 
ATOM      2  C   UNL     1      -9.915   5.643 132.131  0.00  0.00    +0.000 C 
ATOM      3  C   UNL     1      -8.457   5.653 131.569  0.00  0.00    +0.000 C 
ATOM      4  O   UNL     1      -8.543   5.714 130.159  0.00  0.00    +0.000 OA
ATOM      5  C   UNL     1      -9.921   5.467 129.769  0.00  0.00    +0.000 C 
ENDROOT
BRANCH   1   6
ATOM      6  O   UNL     1     -10.629   3.559 131.112  0.00  0.00    +0.000 OA
ATOM      7  H   UNL     1     -11.270   3.321 131.810  0.00  0.00    +0.000 HD
ENDBRANCH   1   6
BRANCH   2   8
ATOM      8  O   UNL     1     -10.126   4.916 133.348  0.00  0.00    +0.000 OA
ATOM      9  H   UNL     1      -9.235   4.649 133.651  0.00  0.00    +0.000 HD
ENDBRANCH   2   8
BRANCH   3  10
ATOM     10  O   UNL     1      -7.918   4.495 132.033  0.00  0.00    +0.000 OA
BRANCH  10  11
ATOM     11  P   UNL     1      -7.130   2.957 131.968  0.00  0.00    +0.000 P 
ATOM     12  O   UNL     1      -5.782   3.657 131.783  0.00  0.00    +0.000 OA
BRANCH  11  13
ATOM     13  O   UNL     1      -7.808   2.734 130.501  0.00  0.00    +0.000 OA
ATOM     14  H   UNL     1      -7.134   2.376 129.892  0.00  0.00    +0.000 HD
ENDBRANCH  11  13
BRANCH  11  15
ATOM     15  O   UNL     1      -6.340   1.419 131.902  0.00  0.00    +0.000 OA
BRANCH  15  16
ATOM     16  P   UNL     1      -6.323   0.712 133.481  0.00  0.00    +0.000 P 
ATOM     17  O   UNL     1      -6.306   0.080 134.894  0.00  0.00    +0.000 OA
BRANCH  16  18
ATOM     18  O   UNL     1      -7.134   2.057 133.988  0.00  0.00    +0.000 OA
ATOM     19  H   UNL     1      -6.936   2.814 133.402  0.00  0.00    +0.000 HD
ENDBRANCH  16  18
BRANCH  16  20
ATOM     20  O   UNL     1      -7.677  -0.046 132.957  0.00  0.00    +0.000 OA
ATOM     21  H   UNL     1      -7.979  -0.674 133.643  0.00  0.00    +0.000 HD
ENDBRANCH  16  20
ENDBRANCH  15  16
ENDBRANCH  11  15
ENDBRANCH  10  11
ENDBRANCH   3  10
BRANCH   5  22
ATOM     22  C   UNL     1     -10.497   6.786 129.281  0.00  0.00    +0.000 C 
BRANCH  22  23
ATOM     23  O   UNL     1     -11.510   6.638 128.268  0.00  0.00    +0.000 OA
BRANCH  23  24
ATOM     24  P   UNL     1     -11.210   7.414 126.751  0.00  0.00    +0.000 P 
ATOM     25  O   UNL     1     -10.942   8.106 125.393  0.00  0.00    +0.000 OA
BRANCH  24  26
ATOM     26  O   UNL     1     -10.622   8.707 127.566  0.00  0.00    +0.000 OA
ATOM     27  H   UNL     1      -9.923   9.179 127.067  0.00  0.00    +0.000 HD
ENDBRANCH  24  26
BRANCH  24  28
ATOM     28  O   UNL     1      -9.825   6.541 126.757  0.00  0.00    +0.000 OA
ATOM     29  H   UNL     1      -9.448   6.485 125.861  0.00  0.00    +0.000 HD
ENDBRANCH  24  28
ENDBRANCH  23  24
ENDBRANCH  22  23
ENDBRANCH   5  22
TORSDOF 14
ENDMDL
MODEL 8
REMARK VINA RESULT:      -5.0      1.908      7.396
REMARK  Name = 5-O-phosphono-alpha-D-ribofuranosyl diphosphate
REMARK  14 active torsions:
REMARK  status: ('A' for Active; 'I' for Inactive)
REMARK    1  A    between atoms: O_1  and  C_2
REMARK    2  A    between atoms: C_3  and  O_4
REMARK    3  A    between atoms: C_5  and  O_6
REMARK    4  A    between atoms: O_6  and  P_7
REMARK    5  A    between atoms: P_7  and  O_8
REMARK    6  A    between atoms: P_7  and  O_10
REMARK    7  A    between atoms: O_10  and  P_11
REMARK    8  A    between atoms: P_11  and  O_12
REMARK    9  A    between atoms: P_11  and  O_13
REMARK   10  A    between atoms: C_16  and  C_17
REMARK   11  A    between atoms: C_17  and  O_18
REMARK   12  A    between atoms: O_18  and  P_19
REMARK   13  A    between atoms: P_19  and  O_20
REMARK   14  A    between atoms: P_19  and  O_21
REMARK                            x       y       z     vdW  Elec       q    Type
REMARK                         _______ _______ _______ _____ _____    ______ ____
ROOT
ATOM      1  C   UNL     1      -8.301   3.244 130.122  0.00  0.00    +0.000 C 
ATOM      2  C   UNL     1      -7.708   4.543 130.641  0.00  0.00    +0.000 C 
ATOM      3  C   UNL     1      -8.910   5.159 131.426  0.00  0.00    +0.000 C 
ATOM      4  O   UNL     1      -9.713   4.090 131.888  0.00  0.00    +0.000 OA
ATOM      5  C   UNL     1      -9.276   2.869 131.234  0.00  0.00    +0.000 C 
ENDROOT
BRANCH   1   6
ATOM      6  O   UNL     1      -8.996   3.469 128.887  0.00  0.00    +0.000 OA
ATOM      7  H   UNL     1      -9.935   3.587 129.128  0.00  0.00    +0.000 HD
ENDBRANCH   1   6
BRANCH   2   8
ATOM      8  O   UNL     1      -7.195   5.315 129.549  0.00  0.00    +0.000 OA
ATOM      9  H   UNL     1      -6.473   5.856 129.928  0.00  0.00    +0.000 HD
ENDBRANCH   2   8
BRANCH   3  10
ATOM     10  O   UNL     1      -9.530   5.949 130.510  0.00  0.00    +0.000 OA
BRANCH  10  11
ATOM     11  P   UNL     1     -10.771   6.474 129.427  0.00  0.00    +0.000 P 
ATOM     12  O   UNL     1     -11.290   7.443 130.490  0.00  0.00    +0.000 OA
BRANCH  11  13
ATOM     13  O   UNL     1     -11.493   5.026 129.642  0.00  0.00    +0.000 OA
ATOM     14  H   UNL     1     -10.917   4.328 129.278  0.00  0.00    +0.000 HD
ENDBRANCH  11  13
BRANCH  11  15
ATOM     15  O   UNL     1     -12.014   6.998 128.343  0.00  0.00    +0.000 OA
BRANCH  15  16
ATOM     16  P   UNL     1     -11.298   7.539 126.864  0.00  0.00    +0.000 P 
ATOM     17  O   UNL     1     -10.659   8.023 125.540  0.00  0.00    +0.000 OA
BRANCH  16  18
ATOM     18  O   UNL     1     -10.801   8.871 127.702  0.00  0.00    +0.000 OA
ATOM     19  H   UNL     1     -10.095   8.631 128.333  0.00  0.00    +0.000 HD
ENDBRANCH  16  18
BRANCH  16  20
ATOM     20  O   UNL     1     -10.034   6.620 127.352  0.00  0.00    +0.000 OA
ATOM     21  H   UNL     1      -9.601   7.049 128.117  0.00  0.00    +0.000 HD
ENDBRANCH  16  20
ENDBRANCH  15  16
ENDBRANCH  11  15
ENDBRANCH  10  11
ENDBRANCH   3  10
BRANCH   5  22
ATOM     22  C   UNL     1      -8.568   2.023 132.279  0.00  0.00    +0.000 C 
BRANCH  22  23
ATOM     23  O   UNL     1      -7.626   1.084 131.727  0.00  0.00    +0.000 OA
BRANCH  23  24
ATOM     24  P   UNL     1      -7.731  -0.547 132.297  0.00  0.00    +0.000 P 
ATOM     25  O   UNL     1      -7.826  -2.005 132.808  0.00  0.00    +0.000 OA
BRANCH  24  26
ATOM     26  O   UNL     1      -6.303  -0.862 131.558  0.00  0.00    +0.000 OA
ATOM     27  H   UNL     1      -6.313  -1.709 131.068  0.00  0.00    +0.000 HD
ENDBRANCH  24  26
BRANCH  24  28
ATOM     28  O   UNL     1      -7.097   0.062 133.679  0.00  0.00    +0.000 OA
ATOM     29  H   UNL     1      -6.894   1.009 133.577  0.00  0.00    +0.000 HD
ENDBRANCH  24  28
ENDBRANCH  23  24
ENDBRANCH  22  23
ENDBRANCH   5  22
TORSDOF 14
ENDMDL
MODEL 9
REMARK VINA RESULT:      -5.0      1.817      2.826
REMARK  Name = 5-O-phosphono-alpha-D-ribofuranosyl diphosphate
REMARK  14 active torsions:
REMARK  status: ('A' for Active; 'I' for Inactive)
REMARK    1  A    between atoms: O_1  and  C_2
REMARK    2  A    between atoms: C_3  and  O_4
REMARK    3  A    between atoms: C_5  and  O_6
REMARK    4  A    between atoms: O_6  and  P_7
REMARK    5  A    between atoms: P_7  and  O_8
REMARK    6  A    between atoms: P_7  and  O_10
REMARK    7  A    between atoms: O_10  and  P_11
REMARK    8  A    between atoms: P_11  and  O_12
REMARK    9  A    between atoms: P_11  and  O_13
REMARK   10  A    between atoms: C_16  and  C_17
REMARK   11  A    between atoms: C_17  and  O_18
REMARK   12  A    between atoms: O_18  and  P_19
REMARK   13  A    between atoms: P_19  and  O_20
REMARK   14  A    between atoms: P_19  and  O_21
REMARK                            x       y       z     vdW  Elec       q    Type
REMARK                         _______ _______ _______ _____ _____    ______ ____
ROOT
ATOM      1  C   UNL     1      -9.342   5.298 129.914  0.00  0.00    +0.000 C 
ATOM      2  C   UNL     1     -10.363   4.657 130.839  0.00  0.00    +0.000 C 
ATOM      3  C   UNL     1     -10.193   5.499 132.144  0.00  0.00    +0.000 C 
ATOM      4  O   UNL     1      -9.752   6.789 131.768  0.00  0.00    +0.000 OA
ATOM      5  C   UNL     1      -9.366   6.754 130.368  0.00  0.00    +0.000 C 
ENDROOT
BRANCH   1   6
ATOM      6  O   UNL     1      -8.045   4.719 130.123  0.00  0.00    +0.000 OA
ATOM      7  H   UNL     1      -8.197   3.903 130.638  0.00  0.00    +0.000 HD
ENDBRANCH   1   6
BRANCH   2   8
ATOM      8  O   UNL     1     -10.109   3.252 130.947  0.00  0.00    +0.000 OA
ATOM      9  H   UNL     1      -9.553   3.146 131.745  0.00  0.00    +0.000 HD
ENDBRANCH   2   8
BRANCH   3  10
ATOM     10  O   UNL     1      -9.280   4.800 132.869  0.00  0.00    +0.000 OA
BRANCH  10  11
ATOM     11  P   UNL     1      -7.736   4.152 133.301  0.00  0.00    +0.000 P 
ATOM     12  O   UNL     1      -8.149   4.150 134.773  0.00  0.00    +0.000 OA
BRANCH  11  13
ATOM     13  O   UNL     1      -7.088   5.607 132.943  0.00  0.00    +0.000 OA
ATOM     14  H   UNL     1      -6.660   5.968 133.742  0.00  0.00    +0.000 HD
ENDBRANCH  11  13
BRANCH  11  15
ATOM     15  O   UNL     1      -6.191   3.505 133.733  0.00  0.00    +0.000 OA
BRANCH  15  16
ATOM     16  P   UNL     1      -5.933   2.016 132.890  0.00  0.00    +0.000 P 
ATOM     17  O   UNL     1      -5.702   0.684 132.136  0.00  0.00    +0.000 OA
BRANCH  16  18
ATOM     18  O   UNL     1      -6.834   1.301 134.074  0.00  0.00    +0.000 OA
ATOM     19  H   UNL     1      -6.367   0.519 134.430  0.00  0.00    +0.000 HD
ENDBRANCH  16  18
BRANCH  16  20
ATOM     20  O   UNL     1      -7.241   2.491 132.026  0.00  0.00    +0.000 OA
ATOM     21  H   UNL     1      -7.273   3.468 132.003  0.00  0.00    +0.000 HD
ENDBRANCH  16  20
ENDBRANCH  15  16
ENDBRANCH  11  15
ENDBRANCH  10  11
ENDBRANCH   3  10
BRANCH   5  22
ATOM     22  C   UNL     1     -10.420   7.521 129.588  0.00  0.00    +0.000 C 
BRANCH  22  23
ATOM     23  O   UNL     1      -9.972   7.976 128.297  0.00  0.00    +0.000 OA
BRANCH  23  24
ATOM     24  P   UNL     1     -10.989   7.606 126.947  0.00  0.00    +0.000 P 
ATOM     25  O   UNL     1     -11.900   7.275 125.740  0.00  0.00    +0.000 OA
BRANCH  24  26
ATOM     26  O   UNL     1      -9.916   6.452 126.498  0.00  0.00    +0.000 OA
ATOM     27  H   UNL     1      -9.811   6.396 125.525  0.00  0.00    +0.000 HD
ENDBRANCH  24  26
BRANCH  24  28
ATOM     28  O   UNL     1     -11.814   6.687 128.022  0.00  0.00    +0.000 OA
ATOM     29  H   UNL     1     -11.399   6.730 128.902  0.00  0.00    +0.000 HD
ENDBRANCH  24  28
ENDBRANCH  23  24
ENDBRANCH  22  23
ENDBRANCH   5  22
TORSDOF 14
ENDMDL
