MODEL 1
REMARK VINA RESULT:      -6.7      0.000      0.000
REMARK  Name = Abacavir
REMARK  4 active torsions:
REMARK  status: ('A' for Active; 'I' for Inactive)
REMARK    1  A    between atoms: N_8  and  C_9
REMARK    2  A    between atoms: C_11  and  C_12
REMARK    3  A    between atoms: C_12  and  O_13
REMARK    4  A    between atoms: N_17  and  C_18
REMARK                            x       y       z     vdW  Elec       q    Type
REMARK                         _______ _______ _______ _____ _____    ______ ____
ROOT
ATOM      1  N   UNL     1      -3.840   4.788 127.920  0.00  0.00    +0.000 N 
ATOM      2  C   UNL     1      -5.061   4.560 127.350  0.00  0.00    +0.000 A 
ATOM      3  N   UNL     1      -5.149   4.308 126.039  0.00  0.00    +0.000 NA
ATOM      4  C   UNL     1      -6.417   4.070 125.636  0.00  0.00    +0.000 A 
ATOM      5  C   UNL     1      -7.547   4.051 126.427  0.00  0.00    +0.000 A 
ATOM      6  N   UNL     1      -8.650   3.718 125.660  0.00  0.00    +0.000 NA
ATOM      7  C   UNL     1      -8.193   3.545 124.425  0.00  0.00    +0.000 A 
ATOM      8  N   UNL     1      -6.851   3.776 124.339  0.00  0.00    +0.000 N 
ATOM      9  C   UNL     1      -7.359   4.371 127.791  0.00  0.00    +0.000 A 
ATOM     10  N   UNL     1      -8.438   4.489 128.691  0.00  0.00    +0.000 N 
ATOM     11  N   UNL     1      -6.089   4.615 128.199  0.00  0.00    +0.000 NA
ATOM     12  H   UNL     1      -3.011   4.858 127.360  0.00  0.00    +0.000 HD
ATOM     13  H   UNL     1      -3.855   5.012 128.903  0.00  0.00    +0.000 HD
ATOM     14  H   UNL     1      -9.266   4.085 128.254  0.00  0.00    +0.000 HD
ENDROOT
BRANCH   8  15
ATOM     15  C   UNL     1      -5.853   3.594 123.303  0.00  0.00    +0.000 C 
ATOM     16  C   UNL     1      -4.998   4.520 122.383  0.00  0.00    +0.000 C 
ATOM     17  C   UNL     1      -5.125   4.011 120.913  0.00  0.00    +0.000 C 
ATOM     18  C   UNL     1      -6.035   2.840 121.037  0.00  0.00    +0.000 C 
ATOM     19  C   UNL     1      -6.396   2.606 122.317  0.00  0.00    +0.000 C 
BRANCH  17  20
ATOM     20  C   UNL     1      -5.488   5.123 119.914  0.00  0.00    +0.000 C 
BRANCH  20  21
ATOM     21  O   UNL     1      -4.822   6.352 120.159  0.00  0.00    +0.000 OA
ATOM     22  H   UNL     1      -4.220   6.217 120.910  0.00  0.00    +0.000 HD
ENDBRANCH  20  21
ENDBRANCH  17  20
ENDBRANCH   8  15
BRANCH  10  23
ATOM     23  C   UNL     1      -8.325   4.412 130.153  0.00  0.00    +0.000 C 
ATOM     24  C   UNL     1      -9.372   3.831 131.067  0.00  0.00    +0.000 C 
ATOM     25  C   UNL     1      -8.039   3.161 130.941  0.00  0.00    +0.000 C 
ENDBRANCH  10  23
TORSDOF 4
ENDMDL
MODEL 2
REMARK VINA RESULT:      -6.6      5.364      7.428
REMARK  Name = Abacavir
REMARK  4 active torsions:
REMARK  status: ('A' for Active; 'I' for Inactive)
REMARK    1  A    between atoms: N_8  and  C_9
REMARK    2  A    between atoms: C_11  and  C_12
REMARK    3  A    between atoms: C_12  and  O_13
REMARK    4  A    between atoms: N_17  and  C_18
REMARK                            x       y       z     vdW  Elec       q    Type
REMARK                         _______ _______ _______ _____ _____    ______ ____
ROOT
ATOM      1  N   UNL     1      -8.255   4.584 127.689  0.00  0.00    +0.000 N 
ATOM      2  C   UNL     1      -8.663   4.931 128.947  0.00  0.00    +0.000 A 
ATOM      3  N   UNL     1      -9.815   5.591 129.117  0.00  0.00    +0.000 NA
ATOM      4  C   UNL     1     -10.095   5.828 130.417  0.00  0.00    +0.000 A 
ATOM      5  C   UNL     1      -9.341   5.450 131.509  0.00  0.00    +0.000 A 
ATOM      6  N   UNL     1      -9.983   5.828 132.676  0.00  0.00    +0.000 NA
ATOM      7  C   UNL     1     -11.103   6.431 132.293  0.00  0.00    +0.000 A 
ATOM      8  N   UNL     1     -11.213   6.492 130.934  0.00  0.00    +0.000 N 
ATOM      9  C   UNL     1      -8.120   4.795 131.227  0.00  0.00    +0.000 A 
ATOM     10  N   UNL     1      -7.204   4.444 132.240  0.00  0.00    +0.000 N 
ATOM     11  N   UNL     1      -7.833   4.559 129.923  0.00  0.00    +0.000 NA
ATOM     12  H   UNL     1      -8.758   4.892 126.878  0.00  0.00    +0.000 HD
ATOM     13  H   UNL     1      -7.358   4.127 127.635  0.00  0.00    +0.000 HD
ATOM     14  H   UNL     1      -7.676   4.522 133.141  0.00  0.00    +0.000 HD
ENDROOT
BRANCH   8  15
ATOM     15  C   UNL     1     -12.263   6.891 130.017  0.00  0.00    +0.000 C 
ATOM     16  C   UNL     1     -12.873   6.340 128.690  0.00  0.00    +0.000 C 
ATOM     17  C   UNL     1     -12.945   7.509 127.657  0.00  0.00    +0.000 C 
ATOM     18  C   UNL     1     -12.379   8.662 128.409  0.00  0.00    +0.000 C 
ATOM     19  C   UNL     1     -12.045   8.332 129.675  0.00  0.00    +0.000 C 
BRANCH  17  20
ATOM     20  C   UNL     1     -12.335   7.150 126.291  0.00  0.00    +0.000 C 
BRANCH  20  21
ATOM     21  O   UNL     1     -11.080   6.493 126.379  0.00  0.00    +0.000 OA
ATOM     22  H   UNL     1     -10.736   6.393 125.476  0.00  0.00    +0.000 HD
ENDBRANCH  20  21
ENDBRANCH  17  20
ENDBRANCH   8  15
BRANCH  10  23
ATOM     23  C   UNL     1      -6.146   3.435 132.103  0.00  0.00    +0.000 C 
ATOM     24  C   UNL     1      -4.671   3.715 132.226  0.00  0.00    +0.000 C 
ATOM     25  C   UNL     1      -5.351   2.847 133.239  0.00  0.00    +0.000 C 
ENDBRANCH  10  23
TORSDOF 4
ENDMDL
MODEL 3
REMARK VINA RESULT:      -6.5      7.309      8.638
REMARK  Name = Abacavir
REMARK  4 active torsions:
REMARK  status: ('A' for Active; 'I' for Inactive)
REMARK    1  A    between atoms: N_8  and  C_9
REMARK    2  A    between atoms: C_11  and  C_12
REMARK    3  A    between atoms: C_12  and  O_13
REMARK    4  A    between atoms: N_17  and  C_18
REMARK                            x       y       z     vdW  Elec       q    Type
REMARK                         _______ _______ _______ _____ _____    ______ ____
ROOT
ATOM      1  N   UNL     1      -9.681   4.054 134.019  0.00  0.00    +0.000 N 
ATOM      2  C   UNL     1      -9.039   4.909 133.167  0.00  0.00    +0.000 A 
ATOM      3  N   UNL     1      -7.705   5.006 133.199  0.00  0.00    +0.000 NA
ATOM      4  C   UNL     1      -7.221   5.865 132.275  0.00  0.00    +0.000 A 
ATOM      5  C   UNL     1      -7.950   6.585 131.351  0.00  0.00    +0.000 A 
ATOM      6  N   UNL     1      -7.094   7.313 130.543  0.00  0.00    +0.000 NA
ATOM      7  C   UNL     1      -5.868   7.040 130.976  0.00  0.00    +0.000 A 
ATOM      8  N   UNL     1      -5.880   6.193 132.046  0.00  0.00    +0.000 N 
ATOM      9  C   UNL     1      -9.355   6.449 131.424  0.00  0.00    +0.000 A 
ATOM     10  N   UNL     1     -10.226   7.203 130.610  0.00  0.00    +0.000 N 
ATOM     11  N   UNL     1      -9.846   5.592 132.354  0.00  0.00    +0.000 NA
ATOM     12  H   UNL     1      -9.180   3.560 134.733  0.00  0.00    +0.000 HD
ATOM     13  H   UNL     1     -10.688   4.066 133.968  0.00  0.00    +0.000 HD
ATOM     14  H   UNL     1      -9.679   7.629 129.863  0.00  0.00    +0.000 HD
ENDROOT
BRANCH   8  15
ATOM     15  C   UNL     1      -4.859   5.478 132.787  0.00  0.00    +0.000 C 
ATOM     16  C   UNL     1      -3.743   5.847 133.814  0.00  0.00    +0.000 C 
ATOM     17  C   UNL     1      -2.406   5.190 133.348  0.00  0.00    +0.000 C 
ATOM     18  C   UNL     1      -2.791   4.489 132.093  0.00  0.00    +0.000 C 
ATOM     19  C   UNL     1      -4.106   4.623 131.816  0.00  0.00    +0.000 C 
BRANCH  17  20
ATOM     20  C   UNL     1      -1.227   6.177 133.307  0.00  0.00    +0.000 C 
BRANCH  20  21
ATOM     21  O   UNL     1      -0.403   6.038 132.160  0.00  0.00    +0.000 OA
ATOM     22  H   UNL     1      -0.772   5.321 131.617  0.00  0.00    +0.000 HD
ENDBRANCH  20  21
ENDBRANCH  17  20
ENDBRANCH   8  15
BRANCH  10  23
ATOM     23  C   UNL     1     -11.624   6.854 130.326  0.00  0.00    +0.000 C 
ATOM     24  C   UNL     1     -12.810   7.344 131.115  0.00  0.00    +0.000 C 
ATOM     25  C   UNL     1     -12.638   7.767 129.689  0.00  0.00    +0.000 C 
ENDBRANCH  10  23
TORSDOF 4
ENDMDL
MODEL 4
REMARK VINA RESULT:      -6.5      5.733      7.752
REMARK  Name = Abacavir
REMARK  4 active torsions:
REMARK  status: ('A' for Active; 'I' for Inactive)
REMARK    1  A    between atoms: N_8  and  C_9
REMARK    2  A    between atoms: C_11  and  C_12
REMARK    3  A    between atoms: C_12  and  O_13
REMARK    4  A    between atoms: N_17  and  C_18
REMARK                            x       y       z     vdW  Elec       q    Type
REMARK                         _______ _______ _______ _____ _____    ______ ____
ROOT
ATOM      1  N   UNL     1      -6.939   4.182 128.222  0.00  0.00    +0.000 N 
ATOM      2  C   UNL     1      -7.684   4.569 129.300  0.00  0.00    +0.000 A 
ATOM      3  N   UNL     1      -8.734   5.382 129.129  0.00  0.00    +0.000 NA
ATOM      4  C   UNL     1      -9.387   5.643 130.283  0.00  0.00    +0.000 A 
ATOM      5  C   UNL     1      -9.083   5.151 131.536  0.00  0.00    +0.000 A 
ATOM      6  N   UNL     1     -10.014   5.604 132.455  0.00  0.00    +0.000 NA
ATOM      7  C   UNL     1     -10.862   6.360 131.768  0.00  0.00    +0.000 A 
ATOM      8  N   UNL     1     -10.517   6.450 130.450  0.00  0.00    +0.000 N 
ATOM      9  C   UNL     1      -7.932   4.336 131.623  0.00  0.00    +0.000 A 
ATOM     10  N   UNL     1      -7.446   3.850 132.855  0.00  0.00    +0.000 N 
ATOM     11  N   UNL     1      -7.270   4.075 130.468  0.00  0.00    +0.000 NA
ATOM     12  H   UNL     1      -7.107   4.565 127.311  0.00  0.00    +0.000 HD
ATOM     13  H   UNL     1      -6.139   3.605 128.432  0.00  0.00    +0.000 HD
ATOM     14  H   UNL     1      -8.170   3.984 133.560  0.00  0.00    +0.000 HD
ENDROOT
BRANCH   8  15
ATOM     15  C   UNL     1     -11.152   7.001 129.270  0.00  0.00    +0.000 C 
ATOM     16  C   UNL     1     -11.350   8.422 128.653  0.00  0.00    +0.000 C 
ATOM     17  C   UNL     1     -12.857   8.594 128.283  0.00  0.00    +0.000 C 
ATOM     18  C   UNL     1     -13.459   7.298 128.699  0.00  0.00    +0.000 C 
ATOM     19  C   UNL     1     -12.540   6.444 129.197  0.00  0.00    +0.000 C 
BRANCH  17  20
ATOM     20  C   UNL     1     -13.469   9.897 128.824  0.00  0.00    +0.000 C 
BRANCH  20  21
ATOM     21  O   UNL     1     -13.139  10.166 130.178  0.00  0.00    +0.000 OA
ATOM     22  H   UNL     1     -13.970  10.298 130.664  0.00  0.00    +0.000 HD
ENDBRANCH  20  21
ENDBRANCH  17  20
ENDBRANCH   8  15
BRANCH  10  23
ATOM     23  C   UNL     1      -6.540   2.705 133.008  0.00  0.00    +0.000 C 
ATOM     24  C   UNL     1      -6.313   1.954 134.294  0.00  0.00    +0.000 C 
ATOM     25  C   UNL     1      -6.967   1.267 133.135  0.00  0.00    +0.000 C 
ENDBRANCH  10  23
TORSDOF 4
ENDMDL
MODEL 5
REMARK VINA RESULT:      -6.4      5.373      6.865
REMARK  Name = Abacavir
REMARK  4 active torsions:
REMARK  status: ('A' for Active; 'I' for Inactive)
REMARK    1  A    between atoms: N_8  and  C_9
REMARK    2  A    between atoms: C_11  and  C_12
REMARK    3  A    between atoms: C_12  and  O_13
REMARK    4  A    between atoms: N_17  and  C_18
REMARK                            x       y       z     vdW  Elec       q    Type
REMARK                         _______ _______ _______ _____ _____    ______ ____
ROOT
ATOM      1  N   UNL     1      -7.076   1.528 123.761  0.00  0.00    +0.000 N 
ATOM      2  C   UNL     1      -6.576   0.895 124.866  0.00  0.00    +0.000 A 
ATOM      3  N   UNL     1      -6.977  -0.346 125.162  0.00  0.00    +0.000 NA
ATOM      4  C   UNL     1      -6.368  -0.844 126.260  0.00  0.00    +0.000 A 
ATOM      5  C   UNL     1      -5.414  -0.216 127.035  0.00  0.00    +0.000 A 
ATOM      6  N   UNL     1      -4.992  -1.068 128.041  0.00  0.00    +0.000 NA
ATOM      7  C   UNL     1      -5.685  -2.190 127.880  0.00  0.00    +0.000 A 
ATOM      8  N   UNL     1      -6.561  -2.105 126.835  0.00  0.00    +0.000 N 
ATOM      9  C   UNL     1      -5.087   1.109 126.668  0.00  0.00    +0.000 A 
ATOM     10  N   UNL     1      -4.206   1.904 127.429  0.00  0.00    +0.000 N 
ATOM     11  N   UNL     1      -5.700   1.615 125.569  0.00  0.00    +0.000 NA
ATOM     12  H   UNL     1      -7.806   1.114 123.213  0.00  0.00    +0.000 HD
ATOM     13  H   UNL     1      -6.761   2.476 123.625  0.00  0.00    +0.000 HD
ATOM     14  H   UNL     1      -3.711   1.298 128.083  0.00  0.00    +0.000 HD
ENDROOT
BRANCH   8  15
ATOM     15  C   UNL     1      -7.419  -3.051 126.151  0.00  0.00    +0.000 C 
ATOM     16  C   UNL     1      -7.645  -3.510 124.676  0.00  0.00    +0.000 C 
ATOM     17  C   UNL     1      -9.177  -3.478 124.378  0.00  0.00    +0.000 C 
ATOM     18  C   UNL     1      -9.763  -3.005 125.661  0.00  0.00    +0.000 C 
ATOM     19  C   UNL     1      -8.823  -2.808 126.610  0.00  0.00    +0.000 C 
BRANCH  17  20
ATOM     20  C   UNL     1      -9.528  -2.720 123.086  0.00  0.00    +0.000 C 
BRANCH  20  21
ATOM     21  O   UNL     1      -9.425  -1.309 123.203  0.00  0.00    +0.000 OA
ATOM     22  H   UNL     1     -10.250  -0.925 122.862  0.00  0.00    +0.000 HD
ENDBRANCH  20  21
ENDBRANCH  17  20
ENDBRANCH   8  15
BRANCH  10  23
ATOM     23  C   UNL     1      -3.507   3.096 126.932  0.00  0.00    +0.000 C 
ATOM     24  C   UNL     1      -2.607   3.973 127.762  0.00  0.00    +0.000 C 
ATOM     25  C   UNL     1      -2.035   3.180 126.629  0.00  0.00    +0.000 C 
ENDBRANCH  10  23
TORSDOF 4
ENDMDL
MODEL 6
REMARK VINA RESULT:      -6.3      6.633      7.274
REMARK  Name = Abacavir
REMARK  4 active torsions:
REMARK  status: ('A' for Active; 'I' for Inactive)
REMARK    1  A    between atoms: N_8  and  C_9
REMARK    2  A    between atoms: C_11  and  C_12
REMARK    3  A    between atoms: C_12  and  O_13
REMARK    4  A    between atoms: N_17  and  C_18
REMARK                            x       y       z     vdW  Elec       q    Type
REMARK                         _______ _______ _______ _____ _____    ______ ____
ROOT
ATOM      1  N   UNL     1      -4.492  -0.557 128.800  0.00  0.00    +0.000 N 
ATOM      2  C   UNL     1      -5.614  -1.338 128.757  0.00  0.00    +0.000 A 
ATOM      3  N   UNL     1      -6.220  -1.570 127.586  0.00  0.00    +0.000 NA
ATOM      4  C   UNL     1      -7.290  -2.386 127.705  0.00  0.00    +0.000 A 
ATOM      5  C   UNL     1      -7.761  -2.972 128.862  0.00  0.00    +0.000 A 
ATOM      6  N   UNL     1      -8.844  -3.782 128.570  0.00  0.00    +0.000 NA
ATOM      7  C   UNL     1      -9.028  -3.681 127.258  0.00  0.00    +0.000 A 
ATOM      8  N   UNL     1      -8.138  -2.823 126.681  0.00  0.00    +0.000 N 
ATOM      9  C   UNL     1      -7.080  -2.633 130.054  0.00  0.00    +0.000 A 
ATOM     10  N   UNL     1      -7.514  -3.078 131.320  0.00  0.00    +0.000 N 
ATOM     11  N   UNL     1      -6.007  -1.810 129.941  0.00  0.00    +0.000 NA
ATOM     12  H   UNL     1      -4.161  -0.078 127.984  0.00  0.00    +0.000 HD
ATOM     13  H   UNL     1      -4.115  -0.391 129.720  0.00  0.00    +0.000 HD
ATOM     14  H   UNL     1      -8.195  -3.823 131.182  0.00  0.00    +0.000 HD
ENDROOT
BRANCH   8  15
ATOM     15  C   UNL     1      -7.806  -2.472 125.314  0.00  0.00    +0.000 C 
ATOM     16  C   UNL     1      -7.864  -1.184 124.433  0.00  0.00    +0.000 C 
ATOM     17  C   UNL     1      -8.561  -1.541 123.083  0.00  0.00    +0.000 C 
ATOM     18  C   UNL     1      -8.880  -2.986 123.236  0.00  0.00    +0.000 C 
ATOM     19  C   UNL     1      -8.448  -3.482 124.416  0.00  0.00    +0.000 C 
BRANCH  17  20
ATOM     20  C   UNL     1      -9.698  -0.572 122.713  0.00  0.00    +0.000 C 
BRANCH  20  21
ATOM     21  O   UNL     1     -10.024   0.349 123.743  0.00  0.00    +0.000 OA
ATOM     22  H   UNL     1      -9.339   0.277 124.429  0.00  0.00    +0.000 HD
ENDBRANCH  20  21
ENDBRANCH  17  20
ENDBRANCH   8  15
BRANCH  10  23
ATOM     23  C   UNL     1      -6.678  -3.124 132.526  0.00  0.00    +0.000 C 
ATOM     24  C   UNL     1      -7.078  -3.775 133.825  0.00  0.00    +0.000 C 
ATOM     25  C   UNL     1      -5.940  -4.336 133.029  0.00  0.00    +0.000 C 
ENDBRANCH  10  23
TORSDOF 4
ENDMDL
MODEL 7
REMARK VINA RESULT:      -6.3      2.805      4.072
REMARK  Name = Abacavir
REMARK  4 active torsions:
REMARK  status: ('A' for Active; 'I' for Inactive)
REMARK    1  A    between atoms: N_8  and  C_9
REMARK    2  A    between atoms: C_11  and  C_12
REMARK    3  A    between atoms: C_12  and  O_13
REMARK    4  A    between atoms: N_17  and  C_18
REMARK                            x       y       z     vdW  Elec       q    Type
REMARK                         _______ _______ _______ _____ _____    ______ ____
ROOT
ATOM      1  N   UNL     1      -1.149   2.840 126.651  0.00  0.00    +0.000 N 
ATOM      2  C   UNL     1      -2.375   3.365 126.954  0.00  0.00    +0.000 A 
ATOM      3  N   UNL     1      -3.407   3.175 126.123  0.00  0.00    +0.000 NA
ATOM      4  C   UNL     1      -4.553   3.724 126.580  0.00  0.00    +0.000 A 
ATOM      5  C   UNL     1      -4.731   4.404 127.768  0.00  0.00    +0.000 A 
ATOM      6  N   UNL     1      -6.059   4.768 127.905  0.00  0.00    +0.000 NA
ATOM      7  C   UNL     1      -6.672   4.320 126.815  0.00  0.00    +0.000 A 
ATOM      8  N   UNL     1      -5.806   3.706 125.957  0.00  0.00    +0.000 N 
ATOM      9  C   UNL     1      -3.574   4.591 128.557  0.00  0.00    +0.000 A 
ATOM     10  N   UNL     1      -3.589   5.354 129.743  0.00  0.00    +0.000 N 
ATOM     11  N   UNL     1      -2.418   4.046 128.101  0.00  0.00    +0.000 NA
ATOM     12  H   UNL     1      -0.982   2.388 125.772  0.00  0.00    +0.000 HD
ATOM     13  H   UNL     1      -0.410   3.060 127.301  0.00  0.00    +0.000 HD
ATOM     14  H   UNL     1      -4.559   5.507 130.014  0.00  0.00    +0.000 HD
ENDROOT
BRANCH   8  15
ATOM     15  C   UNL     1      -5.959   2.936 124.739  0.00  0.00    +0.000 C 
ATOM     16  C   UNL     1      -6.494   3.199 123.296  0.00  0.00    +0.000 C 
ATOM     17  C   UNL     1      -7.489   2.056 122.922  0.00  0.00    +0.000 C 
ATOM     18  C   UNL     1      -7.497   1.200 124.139  0.00  0.00    +0.000 C 
ATOM     19  C   UNL     1      -6.657   1.659 125.092  0.00  0.00    +0.000 C 
BRANCH  17  20
ATOM     20  C   UNL     1      -8.832   2.574 122.378  0.00  0.00    +0.000 C 
BRANCH  20  21
ATOM     21  O   UNL     1      -8.737   3.828 121.718  0.00  0.00    +0.000 OA
ATOM     22  H   UNL     1      -9.052   3.705 120.807  0.00  0.00    +0.000 HD
ENDBRANCH  20  21
ENDBRANCH  17  20
ENDBRANCH   8  15
BRANCH  10  23
ATOM     23  C   UNL     1      -2.582   5.270 130.809  0.00  0.00    +0.000 C 
ATOM     24  C   UNL     1      -1.692   6.405 131.243  0.00  0.00    +0.000 C 
ATOM     25  C   UNL     1      -2.720   5.863 132.187  0.00  0.00    +0.000 C 
ENDBRANCH  10  23
TORSDOF 4
ENDMDL
MODEL 8
REMARK VINA RESULT:      -6.2      4.337      5.696
REMARK  Name = Abacavir
REMARK  4 active torsions:
REMARK  status: ('A' for Active; 'I' for Inactive)
REMARK    1  A    between atoms: N_8  and  C_9
REMARK    2  A    between atoms: C_11  and  C_12
REMARK    3  A    between atoms: C_12  and  O_13
REMARK    4  A    between atoms: N_17  and  C_18
REMARK                            x       y       z     vdW  Elec       q    Type
REMARK                         _______ _______ _______ _____ _____    ______ ____
ROOT
ATOM      1  N   UNL     1      -6.123   4.552 123.886  0.00  0.00    +0.000 N 
ATOM      2  C   UNL     1      -5.928   3.611 124.858  0.00  0.00    +0.000 A 
ATOM      3  N   UNL     1      -6.241   2.332 124.621  0.00  0.00    +0.000 NA
ATOM      4  C   UNL     1      -5.959   1.522 125.665  0.00  0.00    +0.000 A 
ATOM      5  C   UNL     1      -5.393   1.890 126.869  0.00  0.00    +0.000 A 
ATOM      6  N   UNL     1      -5.212   0.770 127.663  0.00  0.00    +0.000 NA
ATOM      7  C   UNL     1      -5.666  -0.255 126.951  0.00  0.00    +0.000 A 
ATOM      8  N   UNL     1      -6.163   0.140 125.743  0.00  0.00    +0.000 N 
ATOM      9  C   UNL     1      -5.138   3.269 127.042  0.00  0.00    +0.000 A 
ATOM     10  N   UNL     1      -4.657   3.798 128.258  0.00  0.00    +0.000 N 
ATOM     11  N   UNL     1      -5.424   4.087 125.998  0.00  0.00    +0.000 NA
ATOM     12  H   UNL     1      -6.579   4.320 123.024  0.00  0.00    +0.000 HD
ATOM     13  H   UNL     1      -5.905   5.501 124.150  0.00  0.00    +0.000 HD
ATOM     14  H   UNL     1      -4.326   3.025 128.835  0.00  0.00    +0.000 HD
ENDROOT
BRANCH   8  15
ATOM     15  C   UNL     1      -6.627  -0.556 124.559  0.00  0.00    +0.000 C 
ATOM     16  C   UNL     1      -8.002  -1.043 124.002  0.00  0.00    +0.000 C 
ATOM     17  C   UNL     1      -7.857  -2.534 123.564  0.00  0.00    +0.000 C 
ATOM     18  C   UNL     1      -6.438  -2.847 123.885  0.00  0.00    +0.000 C 
ATOM     19  C   UNL     1      -5.781  -1.779 124.388  0.00  0.00    +0.000 C 
BRANCH  17  20
ATOM     20  C   UNL     1      -8.958  -3.444 124.135  0.00  0.00    +0.000 C 
BRANCH  20  21
ATOM     21  O   UNL     1     -10.159  -3.434 123.379  0.00  0.00    +0.000 OA
ATOM     22  H   UNL     1     -10.337  -4.346 123.096  0.00  0.00    +0.000 HD
ENDBRANCH  20  21
ENDBRANCH  17  20
ENDBRANCH   8  15
BRANCH  10  23
ATOM     23  C   UNL     1      -3.995   5.100 128.405  0.00  0.00    +0.000 C 
ATOM     24  C   UNL     1      -2.947   5.420 129.439  0.00  0.00    +0.000 C 
ATOM     25  C   UNL     1      -2.582   5.410 127.987  0.00  0.00    +0.000 C 
ENDBRANCH  10  23
TORSDOF 4
ENDMDL
MODEL 9
REMARK VINA RESULT:      -6.2      4.634      6.634
REMARK  Name = Abacavir
REMARK  4 active torsions:
REMARK  status: ('A' for Active; 'I' for Inactive)
REMARK    1  A    between atoms: N_8  and  C_9
REMARK    2  A    between atoms: C_11  and  C_12
REMARK    3  A    between atoms: C_12  and  O_13
REMARK    4  A    between atoms: N_17  and  C_18
REMARK                            x       y       z     vdW  Elec       q    Type
REMARK                         _______ _______ _______ _____ _____    ______ ____
ROOT
ATOM      1  N   UNL     1      -5.263  -2.449 127.962  0.00  0.00    +0.000 N 
ATOM      2  C   UNL     1      -5.629  -1.409 127.153  0.00  0.00    +0.000 A 
ATOM      3  N   UNL     1      -5.141  -0.184 127.379  0.00  0.00    +0.000 NA
ATOM      4  C   UNL     1      -5.568   0.725 126.475  0.00  0.00    +0.000 A 
ATOM      5  C   UNL     1      -6.400   0.494 125.398  0.00  0.00    +0.000 A 
ATOM      6  N   UNL     1      -6.565   1.662 124.675  0.00  0.00    +0.000 NA
ATOM      7  C   UNL     1      -5.849   2.584 125.309  0.00  0.00    +0.000 A 
ATOM      8  N   UNL     1      -5.247   2.086 126.428  0.00  0.00    +0.000 N 
ATOM      9  C   UNL     1      -6.898  -0.822 125.267  0.00  0.00    +0.000 A 
ATOM     10  N   UNL     1      -7.835  -1.175 124.275  0.00  0.00    +0.000 N 
ATOM     11  N   UNL     1      -6.475  -1.737 126.175  0.00  0.00    +0.000 NA
ATOM     12  H   UNL     1      -4.703  -2.298 128.779  0.00  0.00    +0.000 HD
ATOM     13  H   UNL     1      -5.703  -3.333 127.757  0.00  0.00    +0.000 HD
ATOM     14  H   UNL     1      -7.875  -0.423 123.588  0.00  0.00    +0.000 HD
ENDROOT
BRANCH   8  15
ATOM     15  C   UNL     1      -4.270   2.597 127.368  0.00  0.00    +0.000 C 
ATOM     16  C   UNL     1      -4.204   3.760 128.408  0.00  0.00    +0.000 C 
ATOM     17  C   UNL     1      -2.876   4.549 128.182  0.00  0.00    +0.000 C 
ATOM     18  C   UNL     1      -2.244   3.833 127.041  0.00  0.00    +0.000 C 
ATOM     19  C   UNL     1      -2.979   2.776 126.631  0.00  0.00    +0.000 C 
BRANCH  17  20
ATOM     20  C   UNL     1      -3.086   6.069 128.071  0.00  0.00    +0.000 C 
BRANCH  20  21
ATOM     21  O   UNL     1      -1.877   6.811 128.015  0.00  0.00    +0.000 OA
ATOM     22  H   UNL     1      -1.588   6.834 127.087  0.00  0.00    +0.000 HD
ENDBRANCH  20  21
ENDBRANCH  17  20
ENDBRANCH   8  15
BRANCH  10  23
ATOM     23  C   UNL     1      -8.092  -2.545 123.810  0.00  0.00    +0.000 C 
ATOM     24  C   UNL     1      -8.961  -3.547 124.524  0.00  0.00    +0.000 C 
ATOM     25  C   UNL     1      -9.374  -3.026 123.182  0.00  0.00    +0.000 C 
ENDBRANCH  10  23
TORSDOF 4
ENDMDL
