MODEL 1
REMARK VINA RESULT:      -6.4      0.000      0.000
REMARK  Name = Abametapir
REMARK  3 active torsions:
REMARK  status: ('A' for Active; 'I' for Inactive)
REMARK    1  A    between atoms: C_1  and  C_2
REMARK    2  A    between atoms: C_5  and  C_8
REMARK    3  A    between atoms: C_11  and  C_12
REMARK                            x       y       z     vdW  Elec       q    Type
REMARK                         _______ _______ _______ _____ _____    ______ ____
ROOT
ATOM      1  C   UNL     1     -13.508   8.365 128.095  0.00  0.00    +0.000 C 
ATOM      2  C   UNL     1     -12.310   7.955 128.888  0.00  0.00    +0.000 A 
ATOM      3  C   UNL     1     -12.428   7.213 130.059  0.00  0.00    +0.000 A 
ATOM      4  C   UNL     1     -11.281   6.860 130.765  0.00  0.00    +0.000 A 
ATOM      5  C   UNL     1     -10.033   7.253 130.279  0.00  0.00    +0.000 A 
ATOM      6  N   UNL     1      -9.898   7.974 129.138  0.00  0.00    +0.000 NA
ATOM      7  C   UNL     1     -11.029   8.313 128.480  0.00  0.00    +0.000 A 
ENDROOT
BRANCH   5   8
ATOM      8  C   UNL     1      -8.801   6.829 130.964  0.00  0.00    +0.000 A 
ATOM      9  C   UNL     1      -8.869   6.101 132.153  0.00  0.00    +0.000 A 
ATOM     10  C   UNL     1      -7.692   5.775 132.820  0.00  0.00    +0.000 A 
ATOM     11  C   UNL     1      -6.470   6.173 132.285  0.00  0.00    +0.000 A 
ATOM     12  C   UNL     1      -5.176   5.844 132.958  0.00  0.00    +0.000 C 
ATOM     13  C   UNL     1      -6.492   6.887 131.092  0.00  0.00    +0.000 A 
ATOM     14  N   UNL     1      -7.620   7.228 130.429  0.00  0.00    +0.000 NA
ENDBRANCH   5   8
TORSDOF 1
ENDMDL
MODEL 2
REMARK VINA RESULT:      -6.3      1.322      1.963
REMARK  Name = Abametapir
REMARK  3 active torsions:
REMARK  status: ('A' for Active; 'I' for Inactive)
REMARK    1  A    between atoms: C_1  and  C_2
REMARK    2  A    between atoms: C_5  and  C_8
REMARK    3  A    between atoms: C_11  and  C_12
REMARK                            x       y       z     vdW  Elec       q    Type
REMARK                         _______ _______ _______ _____ _____    ______ ____
ROOT
ATOM      1  C   UNL     1     -13.858   8.115 127.721  0.00  0.00    +0.000 C 
ATOM      2  C   UNL     1     -12.674   7.772 128.566  0.00  0.00    +0.000 A 
ATOM      3  C   UNL     1     -11.418   8.318 128.316  0.00  0.00    +0.000 A 
ATOM      4  C   UNL     1     -10.344   7.963 129.128  0.00  0.00    +0.000 A 
ATOM      5  C   UNL     1     -10.551   7.073 130.183  0.00  0.00    +0.000 A 
ATOM      6  N   UNL     1     -11.768   6.533 130.443  0.00  0.00    +0.000 NA
ATOM      7  C   UNL     1     -12.790   6.886 129.631  0.00  0.00    +0.000 A 
ENDROOT
BRANCH   5   8
ATOM      8  C   UNL     1      -9.451   6.740 131.102  0.00  0.00    +0.000 A 
ATOM      9  C   UNL     1      -8.124   6.892 130.700  0.00  0.00    +0.000 A 
ATOM     10  C   UNL     1      -7.102   6.502 131.560  0.00  0.00    +0.000 A 
ATOM     11  C   UNL     1      -7.422   5.976 132.809  0.00  0.00    +0.000 A 
ATOM     12  C   UNL     1      -6.364   5.547 133.773  0.00  0.00    +0.000 C 
ATOM     13  C   UNL     1      -8.770   5.867 133.135  0.00  0.00    +0.000 A 
ATOM     14  N   UNL     1      -9.783   6.227 132.314  0.00  0.00    +0.000 NA
ENDBRANCH   5   8
TORSDOF 1
ENDMDL
MODEL 3
REMARK VINA RESULT:      -6.0      9.283     10.153
REMARK  Name = Abametapir
REMARK  3 active torsions:
REMARK  status: ('A' for Active; 'I' for Inactive)
REMARK    1  A    between atoms: C_1  and  C_2
REMARK    2  A    between atoms: C_5  and  C_8
REMARK    3  A    between atoms: C_11  and  C_12
REMARK                            x       y       z     vdW  Elec       q    Type
REMARK                         _______ _______ _______ _____ _____    ______ ____
ROOT
ATOM      1  C   UNL     1      -5.891   5.621 118.292  0.00  0.00    +0.000 C 
ATOM      2  C   UNL     1      -6.322   4.861 119.504  0.00  0.00    +0.000 A 
ATOM      3  C   UNL     1      -5.442   4.595 120.549  0.00  0.00    +0.000 A 
ATOM      4  C   UNL     1      -5.890   3.878 121.655  0.00  0.00    +0.000 A 
ATOM      5  C   UNL     1      -7.216   3.446 121.698  0.00  0.00    +0.000 A 
ATOM      6  N   UNL     1      -8.089   3.699 120.690  0.00  0.00    +0.000 NA
ATOM      7  C   UNL     1      -7.624   4.386 119.623  0.00  0.00    +0.000 A 
ENDROOT
BRANCH   5   8
ATOM      8  C   UNL     1      -7.736   2.754 122.888  0.00  0.00    +0.000 A 
ATOM      9  C   UNL     1      -6.875   2.386 123.923  0.00  0.00    +0.000 A 
ATOM     10  C   UNL     1      -7.377   1.667 125.003  0.00  0.00    +0.000 A 
ATOM     11  C   UNL     1      -8.729   1.336 125.037  0.00  0.00    +0.000 A 
ATOM     12  C   UNL     1      -9.320   0.571 126.176  0.00  0.00    +0.000 C 
ATOM     13  C   UNL     1      -9.519   1.750 123.968  0.00  0.00    +0.000 A 
ATOM     14  N   UNL     1      -9.055   2.438 122.901  0.00  0.00    +0.000 NA
ENDBRANCH   5   8
TORSDOF 1
ENDMDL
MODEL 4
REMARK VINA RESULT:      -6.0      9.483     10.683
REMARK  Name = Abametapir
REMARK  3 active torsions:
REMARK  status: ('A' for Active; 'I' for Inactive)
REMARK    1  A    between atoms: C_1  and  C_2
REMARK    2  A    between atoms: C_5  and  C_8
REMARK    3  A    between atoms: C_11  and  C_12
REMARK                            x       y       z     vdW  Elec       q    Type
REMARK                         _______ _______ _______ _____ _____    ______ ____
ROOT
ATOM      1  C   UNL     1      -9.449   0.226 125.855  0.00  0.00    +0.000 C 
ATOM      2  C   UNL     1      -8.830   1.027 124.756  0.00  0.00    +0.000 A 
ATOM      3  C   UNL     1      -7.454   1.042 124.550  0.00  0.00    +0.000 A 
ATOM      4  C   UNL     1      -6.925   1.809 123.515  0.00  0.00    +0.000 A 
ATOM      5  C   UNL     1      -7.788   2.542 122.700  0.00  0.00    +0.000 A 
ATOM      6  N   UNL     1      -9.132   2.537 122.883  0.00  0.00    +0.000 NA
ATOM      7  C   UNL     1      -9.617   1.794 123.903  0.00  0.00    +0.000 A 
ENDROOT
BRANCH   5   8
ATOM      8  C   UNL     1      -7.263   3.300 121.552  0.00  0.00    +0.000 A 
ATOM      9  C   UNL     1      -5.911   3.641 121.491  0.00  0.00    +0.000 A 
ATOM     10  C   UNL     1      -5.453   4.421 120.433  0.00  0.00    +0.000 A 
ATOM     11  C   UNL     1      -6.348   4.837 119.452  0.00  0.00    +0.000 A 
ATOM     12  C   UNL     1      -5.908   5.670 118.292  0.00  0.00    +0.000 C 
ATOM     13  C   UNL     1      -7.677   4.445 119.585  0.00  0.00    +0.000 A 
ATOM     14  N   UNL     1      -8.151   3.699 120.607  0.00  0.00    +0.000 NA
ENDBRANCH   5   8
TORSDOF 1
ENDMDL
MODEL 5
REMARK VINA RESULT:      -5.9      2.799      2.973
REMARK  Name = Abametapir
REMARK  3 active torsions:
REMARK  status: ('A' for Active; 'I' for Inactive)
REMARK    1  A    between atoms: C_1  and  C_2
REMARK    2  A    between atoms: C_5  and  C_8
REMARK    3  A    between atoms: C_11  and  C_12
REMARK                            x       y       z     vdW  Elec       q    Type
REMARK                         _______ _______ _______ _____ _____    ______ ____
ROOT
ATOM      1  C   UNL     1     -13.499  10.429 129.328  0.00  0.00    +0.000 C 
ATOM      2  C   UNL     1     -12.719   9.164 129.479  0.00  0.00    +0.000 A 
ATOM      3  C   UNL     1     -12.823   8.374 130.620  0.00  0.00    +0.000 A 
ATOM      4  C   UNL     1     -12.071   7.207 130.715  0.00  0.00    +0.000 A 
ATOM      5  C   UNL     1     -11.234   6.846 129.659  0.00  0.00    +0.000 A 
ATOM      6  N   UNL     1     -11.121   7.601 128.537  0.00  0.00    +0.000 NA
ATOM      7  C   UNL     1     -11.854   8.736 128.477  0.00  0.00    +0.000 A 
ENDROOT
BRANCH   5   8
ATOM      8  C   UNL     1     -10.486   5.579 129.701  0.00  0.00    +0.000 A 
ATOM      9  C   UNL     1     -10.963   4.503 130.450  0.00  0.00    +0.000 A 
ATOM     10  C   UNL     1     -10.203   3.341 130.533  0.00  0.00    +0.000 A 
ATOM     11  C   UNL     1      -8.986   3.269 129.861  0.00  0.00    +0.000 A 
ATOM     12  C   UNL     1      -8.132   2.044 129.912  0.00  0.00    +0.000 C 
ATOM     13  C   UNL     1      -8.589   4.384 129.129  0.00  0.00    +0.000 A 
ATOM     14  N   UNL     1      -9.301   5.529 129.041  0.00  0.00    +0.000 NA
ENDBRANCH   5   8
TORSDOF 1
ENDMDL
MODEL 6
REMARK VINA RESULT:      -5.9      1.880      2.196
REMARK  Name = Abametapir
REMARK  3 active torsions:
REMARK  status: ('A' for Active; 'I' for Inactive)
REMARK    1  A    between atoms: C_1  and  C_2
REMARK    2  A    between atoms: C_5  and  C_8
REMARK    3  A    between atoms: C_11  and  C_12
REMARK                            x       y       z     vdW  Elec       q    Type
REMARK                         _______ _______ _______ _____ _____    ______ ____
ROOT
ATOM      1  C   UNL     1     -13.278   9.349 128.730  0.00  0.00    +0.000 C 
ATOM      2  C   UNL     1     -12.439   8.422 129.547  0.00  0.00    +0.000 A 
ATOM      3  C   UNL     1     -12.925   7.832 130.710  0.00  0.00    +0.000 A 
ATOM      4  C   UNL     1     -12.102   6.978 131.439  0.00  0.00    +0.000 A 
ATOM      5  C   UNL     1     -10.807   6.725 130.985  0.00  0.00    +0.000 A 
ATOM      6  N   UNL     1     -10.317   7.288 129.852  0.00  0.00    +0.000 NA
ATOM      7  C   UNL     1     -11.134   8.123 129.171  0.00  0.00    +0.000 A 
ENDROOT
BRANCH   5   8
ATOM      8  C   UNL     1      -9.943   5.768 131.695  0.00  0.00    +0.000 A 
ATOM      9  C   UNL     1      -9.908   4.428 131.310  0.00  0.00    +0.000 A 
ATOM     10  C   UNL     1      -9.140   3.528 132.042  0.00  0.00    +0.000 A 
ATOM     11  C   UNL     1      -8.415   3.982 133.140  0.00  0.00    +0.000 A 
ATOM     12  C   UNL     1      -7.569   3.060 133.957  0.00  0.00    +0.000 C 
ATOM     13  C   UNL     1      -8.498   5.336 133.451  0.00  0.00    +0.000 A 
ATOM     14  N   UNL     1      -9.245   6.229 132.764  0.00  0.00    +0.000 NA
ENDBRANCH   5   8
TORSDOF 1
ENDMDL
MODEL 7
REMARK VINA RESULT:      -5.9      1.628      2.929
REMARK  Name = Abametapir
REMARK  3 active torsions:
REMARK  status: ('A' for Active; 'I' for Inactive)
REMARK    1  A    between atoms: C_1  and  C_2
REMARK    2  A    between atoms: C_5  and  C_8
REMARK    3  A    between atoms: C_11  and  C_12
REMARK                            x       y       z     vdW  Elec       q    Type
REMARK                         _______ _______ _______ _____ _____    ______ ____
ROOT
ATOM      1  C   UNL     1     -12.140   6.500 131.069  0.00  0.00    +0.000 C 
ATOM      2  C   UNL     1     -10.652   6.562 131.195  0.00  0.00    +0.000 A 
ATOM      3  C   UNL     1      -9.987   6.001 132.281  0.00  0.00    +0.000 A 
ATOM      4  C   UNL     1      -8.600   6.090 132.355  0.00  0.00    +0.000 A 
ATOM      5  C   UNL     1      -7.902   6.735 131.334  0.00  0.00    +0.000 A 
ATOM      6  N   UNL     1      -8.532   7.286 130.266  0.00  0.00    +0.000 NA
ATOM      7  C   UNL     1      -9.881   7.195 130.226  0.00  0.00    +0.000 A 
ENDROOT
BRANCH   5   8
ATOM      8  C   UNL     1      -6.431   6.777 131.349  0.00  0.00    +0.000 A 
ATOM      9  C   UNL     1      -5.718   6.169 132.383  0.00  0.00    +0.000 A 
ATOM     10  C   UNL     1      -4.332   6.285 132.414  0.00  0.00    +0.000 A 
ATOM     11  C   UNL     1      -3.681   6.997 131.411  0.00  0.00    +0.000 A 
ATOM     12  C   UNL     1      -2.195   7.148 131.393  0.00  0.00    +0.000 C 
ATOM     13  C   UNL     1      -4.467   7.565 130.412  0.00  0.00    +0.000 A 
ATOM     14  N   UNL     1      -5.815   7.478 130.363  0.00  0.00    +0.000 NA
ENDBRANCH   5   8
TORSDOF 1
ENDMDL
MODEL 8
REMARK VINA RESULT:      -5.8      9.345     10.009
REMARK  Name = Abametapir
REMARK  3 active torsions:
REMARK  status: ('A' for Active; 'I' for Inactive)
REMARK    1  A    between atoms: C_1  and  C_2
REMARK    2  A    between atoms: C_5  and  C_8
REMARK    3  A    between atoms: C_11  and  C_12
REMARK                            x       y       z     vdW  Elec       q    Type
REMARK                         _______ _______ _______ _____ _____    ______ ____
ROOT
ATOM      1  C   UNL     1      -5.987   5.882 117.803  0.00  0.00    +0.000 C 
ATOM      2  C   UNL     1      -6.093   5.198 119.128  0.00  0.00    +0.000 A 
ATOM      3  C   UNL     1      -7.165   4.367 119.436  0.00  0.00    +0.000 A 
ATOM      4  C   UNL     1      -7.221   3.757 120.686  0.00  0.00    +0.000 A 
ATOM      5  C   UNL     1      -6.195   3.985 121.603  0.00  0.00    +0.000 A 
ATOM      6  N   UNL     1      -5.139   4.789 121.320  0.00  0.00    +0.000 NA
ATOM      7  C   UNL     1      -5.118   5.379 120.103  0.00  0.00    +0.000 A 
ENDROOT
BRANCH   5   8
ATOM      8  C   UNL     1      -6.190   3.292 122.902  0.00  0.00    +0.000 A 
ATOM      9  C   UNL     1      -6.884   2.093 123.065  0.00  0.00    +0.000 A 
ATOM     10  C   UNL     1      -6.925   1.496 124.321  0.00  0.00    +0.000 A 
ATOM     11  C   UNL     1      -6.267   2.099 125.389  0.00  0.00    +0.000 A 
ATOM     12  C   UNL     1      -6.275   1.497 126.756  0.00  0.00    +0.000 C 
ATOM     13  C   UNL     1      -5.591   3.289 125.137  0.00  0.00    +0.000 A 
ATOM     14  N   UNL     1      -5.544   3.897 123.931  0.00  0.00    +0.000 NA
ENDBRANCH   5   8
TORSDOF 1
ENDMDL
MODEL 9
REMARK VINA RESULT:      -5.6      2.527      5.900
REMARK  Name = Abametapir
REMARK  3 active torsions:
REMARK  status: ('A' for Active; 'I' for Inactive)
REMARK    1  A    between atoms: C_1  and  C_2
REMARK    2  A    between atoms: C_5  and  C_8
REMARK    3  A    between atoms: C_11  and  C_12
REMARK                            x       y       z     vdW  Elec       q    Type
REMARK                         _______ _______ _______ _____ _____    ______ ____
ROOT
ATOM      1  C   UNL     1      -8.212   1.641 131.030  0.00  0.00    +0.000 C 
ATOM      2  C   UNL     1      -8.945   2.906 130.719  0.00  0.00    +0.000 A 
ATOM      3  C   UNL     1      -8.276   4.116 130.561  0.00  0.00    +0.000 A 
ATOM      4  C   UNL     1      -9.005   5.268 130.277  0.00  0.00    +0.000 A 
ATOM      5  C   UNL     1     -10.391   5.185 130.150  0.00  0.00    +0.000 A 
ATOM      6  N   UNL     1     -11.060   4.014 130.298  0.00  0.00    +0.000 NA
ATOM      7  C   UNL     1     -10.329   2.913 130.585  0.00  0.00    +0.000 A 
ENDROOT
BRANCH   5   8
ATOM      8  C   UNL     1     -11.177   6.372 129.775  0.00  0.00    +0.000 A 
ATOM      9  C   UNL     1     -11.884   7.085 130.744  0.00  0.00    +0.000 A 
ATOM     10  C   UNL     1     -12.678   8.159 130.355  0.00  0.00    +0.000 A 
ATOM     11  C   UNL     1     -12.745   8.508 129.009  0.00  0.00    +0.000 A 
ATOM     12  C   UNL     1     -13.578   9.656 128.538  0.00  0.00    +0.000 C 
ATOM     13  C   UNL     1     -12.002   7.750 128.110  0.00  0.00    +0.000 A 
ATOM     14  N   UNL     1     -11.232   6.695 128.458  0.00  0.00    +0.000 NA
ENDBRANCH   5   8
TORSDOF 1
ENDMDL
