MODEL 1
REMARK VINA RESULT:      -9.0      0.000      0.000
REMARK  Name = Abemaciclib
REMARK  10 active torsions:
REMARK  status: ('A' for Active; 'I' for Inactive)
REMARK    1  A    between atoms: C_1  and  C_2
REMARK    2  A    between atoms: C_2  and  N_3
REMARK    3  A    between atoms: N_6  and  C_7
REMARK    4  A    between atoms: C_7  and  C_8
REMARK    5  A    between atoms: C_11  and  N_12
REMARK    6  A    between atoms: C_18  and  C_20
REMARK    7  A    between atoms: C_26  and  C_27
REMARK    8  A    between atoms: N_28  and  C_29
REMARK    9  A    between atoms: C_29  and  C_30
REMARK   10  A    between atoms: C_29  and  C_31
REMARK                            x       y       z     vdW  Elec       q    Type
REMARK                         _______ _______ _______ _____ _____    ______ ____
ROOT
ATOM      1  N   UNL     1      -5.506   0.340 132.265  0.00  0.00    +0.000 N 
ATOM      2  C   UNL     1      -5.280  -0.825 131.545  0.00  0.00    +0.000 A 
ATOM      3  N   UNL     1      -4.141  -1.507 131.790  0.00  0.00    +0.000 NA
ATOM      4  C   UNL     1      -3.854  -2.561 131.003  0.00  0.00    +0.000 A 
ATOM      5  C   UNL     1      -4.658  -2.939 129.974  0.00  0.00    +0.000 A 
ATOM      6  F   UNL     1      -4.342  -3.996 129.207  0.00  0.00    +0.000 F 
ATOM      7  C   UNL     1      -5.800  -2.191 129.777  0.00  0.00    +0.000 A 
ATOM      8  N   UNL     1      -6.136  -1.136 130.568  0.00  0.00    +0.000 NA
ATOM      9  H   UNL     1      -6.423   0.500 132.629  0.00  0.00    +0.000 HD
ENDROOT
BRANCH   7  10
ATOM     10  C   UNL     1      -6.748  -2.514 128.713  0.00  0.00    +0.000 A 
ATOM     11  C   UNL     1      -7.886  -3.270 129.024  0.00  0.00    +0.000 A 
ATOM     12  C   UNL     1      -8.790  -3.639 128.036  0.00  0.00    +0.000 A 
ATOM     13  F   UNL     1      -9.865  -4.361 128.382  0.00  0.00    +0.000 F 
ATOM     14  C   UNL     1      -8.559  -3.266 126.705  0.00  0.00    +0.000 A 
ATOM     15  N   UNL     1      -9.294  -3.529 125.586  0.00  0.00    +0.000 NA
ATOM     16  C   UNL     1      -8.655  -2.973 124.578  0.00  0.00    +0.000 A 
ATOM     17  C   UNL     1      -9.180  -3.043 123.190  0.00  0.00    +0.000 C 
ATOM     18  N   UNL     1      -7.488  -2.355 125.005  0.00  0.00    +0.000 N 
ATOM     19  C   UNL     1      -7.430  -2.513 126.388  0.00  0.00    +0.000 A 
ATOM     20  C   UNL     1      -6.520  -2.105 127.381  0.00  0.00    +0.000 A 
BRANCH  18  21
ATOM     21  C   UNL     1      -6.465  -1.649 124.223  0.00  0.00    +0.000 C 
ATOM     22  C   UNL     1      -5.614  -2.616 123.388  0.00  0.00    +0.000 C 
ATOM     23  C   UNL     1      -6.972  -0.568 123.265  0.00  0.00    +0.000 C 
ENDBRANCH  18  21
ENDBRANCH   7  10
BRANCH   1  27
ATOM     24  C   UNL     1      -2.884   3.533 132.626  0.00  0.00    +0.000 A 
ATOM     25  C   UNL     1      -2.999   2.600 133.649  0.00  0.00    +0.000 A 
ATOM     26  C   UNL     1      -3.790   1.494 133.482  0.00  0.00    +0.000 A 
ATOM     27  C   UNL     1      -4.619   1.404 132.376  0.00  0.00    +0.000 A 
ATOM     28  N   UNL     1      -4.592   2.332 131.396  0.00  0.00    +0.000 NA
ATOM     29  C   UNL     1      -3.716   3.360 131.532  0.00  0.00    +0.000 A 
BRANCH  24  30
ATOM     30  C   UNL     1      -1.930   4.688 132.712  0.00  0.00    +0.000 C 
BRANCH  30  34
ATOM     31  N   UNL     1      -2.117   8.304 132.390  0.00  0.00    +0.000 NA
ATOM     32  C   UNL     1      -0.900   7.516 132.708  0.00  0.00    +0.000 C 
ATOM     33  C   UNL     1      -1.101   6.598 133.947  0.00  0.00    +0.000 C 
ATOM     34  N   UNL     1      -2.229   5.644 133.796  0.00  0.00    +0.000 NA
ATOM     35  C   UNL     1      -3.430   6.461 133.529  0.00  0.00    +0.000 C 
ATOM     36  C   UNL     1      -3.272   7.391 132.294  0.00  0.00    +0.000 C 
BRANCH  31  38
ATOM     37  C   UNL     1      -2.142  10.843 132.897  0.00  0.00    +0.000 C 
ATOM     38  C   UNL     1      -2.249   9.399 133.368  0.00  0.00    +0.000 C 
ENDBRANCH  31  38
ENDBRANCH  30  34
ENDBRANCH  24  30
ENDBRANCH   1  27
TORSDOF 6
ENDMDL
MODEL 2
REMARK VINA RESULT:      -8.3      2.902      4.000
REMARK  Name = Abemaciclib
REMARK  10 active torsions:
REMARK  status: ('A' for Active; 'I' for Inactive)
REMARK    1  A    between atoms: C_1  and  C_2
REMARK    2  A    between atoms: C_2  and  N_3
REMARK    3  A    between atoms: N_6  and  C_7
REMARK    4  A    between atoms: C_7  and  C_8
REMARK    5  A    between atoms: C_11  and  N_12
REMARK    6  A    between atoms: C_18  and  C_20
REMARK    7  A    between atoms: C_26  and  C_27
REMARK    8  A    between atoms: N_28  and  C_29
REMARK    9  A    between atoms: C_29  and  C_30
REMARK   10  A    between atoms: C_29  and  C_31
REMARK                            x       y       z     vdW  Elec       q    Type
REMARK                         _______ _______ _______ _____ _____    ______ ____
ROOT
ATOM      1  N   UNL     1      -4.508   4.521 127.952  0.00  0.00    +0.000 N 
ATOM      2  C   UNL     1      -5.783   4.032 128.205  0.00  0.00    +0.000 A 
ATOM      3  N   UNL     1      -6.641   4.828 128.877  0.00  0.00    +0.000 NA
ATOM      4  C   UNL     1      -7.830   4.310 129.241  0.00  0.00    +0.000 A 
ATOM      5  C   UNL     1      -8.175   3.024 128.970  0.00  0.00    +0.000 A 
ATOM      6  F   UNL     1      -9.369   2.538 129.347  0.00  0.00    +0.000 F 
ATOM      7  C   UNL     1      -7.245   2.267 128.288  0.00  0.00    +0.000 A 
ATOM      8  N   UNL     1      -6.046   2.764 127.881  0.00  0.00    +0.000 NA
ATOM      9  H   UNL     1      -4.118   4.372 127.045  0.00  0.00    +0.000 HD
ENDROOT
BRANCH   7  10
ATOM     10  C   UNL     1      -7.513   0.877 127.925  0.00  0.00    +0.000 A 
ATOM     11  C   UNL     1      -7.583  -0.087 128.937  0.00  0.00    +0.000 A 
ATOM     12  C   UNL     1      -7.790  -1.427 128.634  0.00  0.00    +0.000 A 
ATOM     13  F   UNL     1      -7.852  -2.314 129.638  0.00  0.00    +0.000 F 
ATOM     14  C   UNL     1      -7.914  -1.829 127.298  0.00  0.00    +0.000 A 
ATOM     15  N   UNL     1      -8.102  -3.076 126.776  0.00  0.00    +0.000 NA
ATOM     16  C   UNL     1      -8.143  -2.933 125.468  0.00  0.00    +0.000 A 
ATOM     17  C   UNL     1      -8.355  -4.093 124.564  0.00  0.00    +0.000 C 
ATOM     18  N   UNL     1      -7.966  -1.605 125.103  0.00  0.00    +0.000 N 
ATOM     19  C   UNL     1      -7.845  -0.875 126.284  0.00  0.00    +0.000 A 
ATOM     20  C   UNL     1      -7.668   0.490 126.575  0.00  0.00    +0.000 A 
BRANCH  18  21
ATOM     21  C   UNL     1      -7.908  -1.003 123.765  0.00  0.00    +0.000 C 
ATOM     22  C   UNL     1      -6.703  -1.509 122.961  0.00  0.00    +0.000 C 
ATOM     23  C   UNL     1      -9.142  -1.201 122.881  0.00  0.00    +0.000 C 
ENDBRANCH  18  21
ENDBRANCH   7  10
BRANCH   1  27
ATOM     24  C   UNL     1      -1.889   6.067 130.772  0.00  0.00    +0.000 A 
ATOM     25  C   UNL     1      -2.017   6.670 129.527  0.00  0.00    +0.000 A 
ATOM     26  C   UNL     1      -2.956   6.217 128.638  0.00  0.00    +0.000 A 
ATOM     27  C   UNL     1      -3.642   5.043 128.904  0.00  0.00    +0.000 A 
ATOM     28  N   UNL     1      -3.487   4.384 130.073  0.00  0.00    +0.000 NA
ATOM     29  C   UNL     1      -2.634   4.918 130.984  0.00  0.00    +0.000 A 
BRANCH  24  30
ATOM     30  C   UNL     1      -0.968   6.610 131.824  0.00  0.00    +0.000 C 
BRANCH  30  34
ATOM     31  N   UNL     1      -1.121   9.715 133.709  0.00  0.00    +0.000 NA
ATOM     32  C   UNL     1      -0.040   8.701 133.780  0.00  0.00    +0.000 C 
ATOM     33  C   UNL     1      -0.584   7.283 134.118  0.00  0.00    +0.000 C 
ATOM     34  N   UNL     1      -1.597   6.796 133.147  0.00  0.00    +0.000 NA
ATOM     35  C   UNL     1      -2.678   7.801 133.136  0.00  0.00    +0.000 C 
ATOM     36  C   UNL     1      -2.176   9.232 132.798  0.00  0.00    +0.000 C 
BRANCH  31  38
ATOM     37  C   UNL     1      -2.788  10.924 135.279  0.00  0.00    +0.000 C 
ATOM     38  C   UNL     1      -1.561  10.045 135.077  0.00  0.00    +0.000 C 
ENDBRANCH  31  38
ENDBRANCH  30  34
ENDBRANCH  24  30
ENDBRANCH   1  27
TORSDOF 6
ENDMDL
MODEL 3
REMARK VINA RESULT:      -8.0      3.640     11.070
REMARK  Name = Abemaciclib
REMARK  10 active torsions:
REMARK  status: ('A' for Active; 'I' for Inactive)
REMARK    1  A    between atoms: C_1  and  C_2
REMARK    2  A    between atoms: C_2  and  N_3
REMARK    3  A    between atoms: N_6  and  C_7
REMARK    4  A    between atoms: C_7  and  C_8
REMARK    5  A    between atoms: C_11  and  N_12
REMARK    6  A    between atoms: C_18  and  C_20
REMARK    7  A    between atoms: C_26  and  C_27
REMARK    8  A    between atoms: N_28  and  C_29
REMARK    9  A    between atoms: C_29  and  C_30
REMARK   10  A    between atoms: C_29  and  C_31
REMARK                            x       y       z     vdW  Elec       q    Type
REMARK                         _______ _______ _______ _____ _____    ______ ____
ROOT
ATOM      1  N   UNL     1      -7.354  -0.621 131.775  0.00  0.00    +0.000 N 
ATOM      2  C   UNL     1      -8.000   0.536 132.190  0.00  0.00    +0.000 A 
ATOM      3  N   UNL     1      -9.295   0.694 131.842  0.00  0.00    +0.000 NA
ATOM      4  C   UNL     1      -9.886   1.870 132.126  0.00  0.00    +0.000 A 
ATOM      5  C   UNL     1      -9.219   2.891 132.728  0.00  0.00    +0.000 A 
ATOM      6  F   UNL     1      -9.839   4.052 132.997  0.00  0.00    +0.000 F 
ATOM      7  C   UNL     1      -7.898   2.661 133.047  0.00  0.00    +0.000 A 
ATOM      8  N   UNL     1      -7.275   1.477 132.799  0.00  0.00    +0.000 NA
ATOM      9  H   UNL     1      -6.766  -1.094 132.430  0.00  0.00    +0.000 HD
ENDROOT
BRANCH   7  10
ATOM     10  C   UNL     1      -7.086   3.678 133.712  0.00  0.00    +0.000 A 
ATOM     11  C   UNL     1      -7.578   4.288 134.872  0.00  0.00    +0.000 A 
ATOM     12  C   UNL     1      -6.861   5.292 135.511  0.00  0.00    +0.000 A 
ATOM     13  F   UNL     1      -7.372   5.844 136.620  0.00  0.00    +0.000 F 
ATOM     14  C   UNL     1      -5.634   5.717 134.983  0.00  0.00    +0.000 A 
ATOM     15  N   UNL     1      -4.781   6.683 135.429  0.00  0.00    +0.000 NA
ATOM     16  C   UNL     1      -3.771   6.711 134.585  0.00  0.00    +0.000 A 
ATOM     17  C   UNL     1      -2.628   7.643 134.768  0.00  0.00    +0.000 C 
ATOM     18  N   UNL     1      -3.945   5.786 133.565  0.00  0.00    +0.000 N 
ATOM     19  C   UNL     1      -5.137   5.114 133.829  0.00  0.00    +0.000 A 
ATOM     20  C   UNL     1      -5.836   4.074 133.187  0.00  0.00    +0.000 A 
BRANCH  18  21
ATOM     21  C   UNL     1      -3.092   5.503 132.403  0.00  0.00    +0.000 C 
ATOM     22  C   UNL     1      -2.882   6.748 131.531  0.00  0.00    +0.000 C 
ATOM     23  C   UNL     1      -1.702   4.938 132.707  0.00  0.00    +0.000 C 
ENDBRANCH  18  21
ENDBRANCH   7  10
BRANCH   1  27
ATOM     24  C   UNL     1      -7.168  -2.049 127.886  0.00  0.00    +0.000 A 
ATOM     25  C   UNL     1      -7.774  -2.804 128.883  0.00  0.00    +0.000 A 
ATOM     26  C   UNL     1      -7.923  -2.284 130.141  0.00  0.00    +0.000 A 
ATOM     27  C   UNL     1      -7.301  -1.090 130.468  0.00  0.00    +0.000 A 
ATOM     28  N   UNL     1      -6.636  -0.364 129.543  0.00  0.00    +0.000 NA
ATOM     29  C   UNL     1      -6.601  -0.847 128.275  0.00  0.00    +0.000 A 
BRANCH  24  30
ATOM     30  C   UNL     1      -7.102  -2.524 126.464  0.00  0.00    +0.000 C 
BRANCH  30  34
ATOM     31  N   UNL     1      -8.171  -0.928 123.377  0.00  0.00    +0.000 NA
ATOM     32  C   UNL     1      -8.327  -0.377 124.747  0.00  0.00    +0.000 C 
ATOM     33  C   UNL     1      -9.078  -1.357 125.693  0.00  0.00    +0.000 C 
ATOM     34  N   UNL     1      -8.417  -2.681 125.813  0.00  0.00    +0.000 NA
ATOM     35  C   UNL     1      -8.321  -3.222 124.441  0.00  0.00    +0.000 C 
ATOM     36  C   UNL     1      -7.572  -2.274 123.465  0.00  0.00    +0.000 C 
BRANCH  31  38
ATOM     37  C   UNL     1     -10.176   0.493 122.563  0.00  0.00    +0.000 C 
ATOM     38  C   UNL     1      -9.466  -0.850 122.678  0.00  0.00    +0.000 C 
ENDBRANCH  31  38
ENDBRANCH  30  34
ENDBRANCH  24  30
ENDBRANCH   1  27
TORSDOF 6
ENDMDL
MODEL 4
REMARK VINA RESULT:      -8.0      4.096     11.748
REMARK  Name = Abemaciclib
REMARK  10 active torsions:
REMARK  status: ('A' for Active; 'I' for Inactive)
REMARK    1  A    between atoms: C_1  and  C_2
REMARK    2  A    between atoms: C_2  and  N_3
REMARK    3  A    between atoms: N_6  and  C_7
REMARK    4  A    between atoms: C_7  and  C_8
REMARK    5  A    between atoms: C_11  and  N_12
REMARK    6  A    between atoms: C_18  and  C_20
REMARK    7  A    between atoms: C_26  and  C_27
REMARK    8  A    between atoms: N_28  and  C_29
REMARK    9  A    between atoms: C_29  and  C_30
REMARK   10  A    between atoms: C_29  and  C_31
REMARK                            x       y       z     vdW  Elec       q    Type
REMARK                         _______ _______ _______ _____ _____    ______ ____
ROOT
ATOM      1  N   UNL     1      -7.252  -0.425 131.932  0.00  0.00    +0.000 N 
ATOM      2  C   UNL     1      -7.905   0.726 132.352  0.00  0.00    +0.000 A 
ATOM      3  N   UNL     1      -9.210   0.862 132.036  0.00  0.00    +0.000 NA
ATOM      4  C   UNL     1      -9.812   2.032 132.325  0.00  0.00    +0.000 A 
ATOM      5  C   UNL     1      -9.145   3.069 132.900  0.00  0.00    +0.000 A 
ATOM      6  F   UNL     1      -9.775   4.223 133.174  0.00  0.00    +0.000 F 
ATOM      7  C   UNL     1      -7.813   2.861 133.187  0.00  0.00    +0.000 A 
ATOM      8  N   UNL     1      -7.179   1.684 132.934  0.00  0.00    +0.000 NA
ATOM      9  H   UNL     1      -6.641  -0.883 132.576  0.00  0.00    +0.000 HD
ENDROOT
BRANCH   7  10
ATOM     10  C   UNL     1      -6.999   3.896 133.821  0.00  0.00    +0.000 A 
ATOM     11  C   UNL     1      -5.684   4.091 133.382  0.00  0.00    +0.000 A 
ATOM     12  C   UNL     1      -4.861   5.032 133.987  0.00  0.00    +0.000 A 
ATOM     13  F   UNL     1      -3.610   5.184 133.530  0.00  0.00    +0.000 F 
ATOM     14  C   UNL     1      -5.342   5.790 135.063  0.00  0.00    +0.000 A 
ATOM     15  N   UNL     1      -4.712   6.745 135.807  0.00  0.00    +0.000 NA
ATOM     16  C   UNL     1      -5.582   7.153 136.707  0.00  0.00    +0.000 A 
ATOM     17  C   UNL     1      -5.244   8.214 137.691  0.00  0.00    +0.000 C 
ATOM     18  N   UNL     1      -6.784   6.470 136.588  0.00  0.00    +0.000 N 
ATOM     19  C   UNL     1      -6.650   5.603 135.505  0.00  0.00    +0.000 A 
ATOM     20  C   UNL     1      -7.507   4.676 134.883  0.00  0.00    +0.000 A 
BRANCH  18  21
ATOM     21  C   UNL     1      -8.006   6.579 137.396  0.00  0.00    +0.000 C 
ATOM     22  C   UNL     1      -7.735   6.306 138.882  0.00  0.00    +0.000 C 
ATOM     23  C   UNL     1      -8.748   7.916 137.321  0.00  0.00    +0.000 C 
ENDBRANCH  18  21
ENDBRANCH   7  10
BRANCH   1  27
ATOM     24  C   UNL     1      -7.146  -1.888 128.053  0.00  0.00    +0.000 A 
ATOM     25  C   UNL     1      -7.762  -2.618 129.062  0.00  0.00    +0.000 A 
ATOM     26  C   UNL     1      -7.883  -2.085 130.318  0.00  0.00    +0.000 A 
ATOM     27  C   UNL     1      -7.226  -0.906 130.628  0.00  0.00    +0.000 A 
ATOM     28  N   UNL     1      -6.552  -0.205 129.691  0.00  0.00    +0.000 NA
ATOM     29  C   UNL     1      -6.543  -0.699 128.426  0.00  0.00    +0.000 A 
BRANCH  24  30
ATOM     30  C   UNL     1      -7.108  -2.376 126.634  0.00  0.00    +0.000 C 
BRANCH  30  34
ATOM     31  N   UNL     1      -8.153  -1.008 123.432  0.00  0.00    +0.000 NA
ATOM     32  C   UNL     1      -8.273  -0.338 124.751  0.00  0.00    +0.000 C 
ATOM     33  C   UNL     1      -9.048  -1.205 125.784  0.00  0.00    +0.000 C 
ATOM     34  N   UNL     1      -8.436  -2.539 126.010  0.00  0.00    +0.000 NA
ATOM     35  C   UNL     1      -8.375  -3.197 124.689  0.00  0.00    +0.000 C 
ATOM     36  C   UNL     1      -7.603  -2.363 123.629  0.00  0.00    +0.000 C 
BRANCH  31  38
ATOM     37  C   UNL     1     -10.120   0.412 122.529  0.00  0.00    +0.000 C 
ATOM     38  C   UNL     1      -9.452  -0.941 122.740  0.00  0.00    +0.000 C 
ENDBRANCH  31  38
ENDBRANCH  30  34
ENDBRANCH  24  30
ENDBRANCH   1  27
TORSDOF 6
ENDMDL
MODEL 5
REMARK VINA RESULT:      -7.8      2.051      2.525
REMARK  Name = Abemaciclib
REMARK  10 active torsions:
REMARK  status: ('A' for Active; 'I' for Inactive)
REMARK    1  A    between atoms: C_1  and  C_2
REMARK    2  A    between atoms: C_2  and  N_3
REMARK    3  A    between atoms: N_6  and  C_7
REMARK    4  A    between atoms: C_7  and  C_8
REMARK    5  A    between atoms: C_11  and  N_12
REMARK    6  A    between atoms: C_18  and  C_20
REMARK    7  A    between atoms: C_26  and  C_27
REMARK    8  A    between atoms: N_28  and  C_29
REMARK    9  A    between atoms: C_29  and  C_30
REMARK   10  A    between atoms: C_29  and  C_31
REMARK                            x       y       z     vdW  Elec       q    Type
REMARK                         _______ _______ _______ _____ _____    ______ ____
ROOT
ATOM      1  N   UNL     1      -8.310   1.727 132.419  0.00  0.00    +0.000 N 
ATOM      2  C   UNL     1      -7.898   0.421 132.190  0.00  0.00    +0.000 A 
ATOM      3  N   UNL     1      -7.153  -0.181 133.141  0.00  0.00    +0.000 NA
ATOM      4  C   UNL     1      -6.641  -1.396 132.866  0.00  0.00    +0.000 A 
ATOM      5  C   UNL     1      -6.836  -2.014 131.671  0.00  0.00    +0.000 A 
ATOM      6  F   UNL     1      -6.311  -3.226 131.429  0.00  0.00    +0.000 F 
ATOM      7  C   UNL     1      -7.601  -1.335 130.745  0.00  0.00    +0.000 A 
ATOM      8  N   UNL     1      -8.156  -0.119 130.996  0.00  0.00    +0.000 NA
ATOM      9  H   UNL     1      -9.252   1.971 132.194  0.00  0.00    +0.000 HD
ENDROOT
BRANCH   7  10
ATOM     10  C   UNL     1      -7.894  -1.908 129.432  0.00  0.00    +0.000 A 
ATOM     11  C   UNL     1      -8.561  -3.136 129.361  0.00  0.00    +0.000 A 
ATOM     12  C   UNL     1      -8.819  -3.739 128.136  0.00  0.00    +0.000 A 
ATOM     13  F   UNL     1      -9.462  -4.915 128.118  0.00  0.00    +0.000 F 
ATOM     14  C   UNL     1      -8.394  -3.122 126.952  0.00  0.00    +0.000 A 
ATOM     15  N   UNL     1      -8.523  -3.535 125.658  0.00  0.00    +0.000 NA
ATOM     16  C   UNL     1      -7.953  -2.614 124.911  0.00  0.00    +0.000 A 
ATOM     17  C   UNL     1      -7.919  -2.725 123.429  0.00  0.00    +0.000 C 
ATOM     18  N   UNL     1      -7.424  -1.594 125.690  0.00  0.00    +0.000 N 
ATOM     19  C   UNL     1      -7.731  -1.898 127.015  0.00  0.00    +0.000 A 
ATOM     20  C   UNL     1      -7.489  -1.259 128.245  0.00  0.00    +0.000 A 
BRANCH  18  21
ATOM     21  C   UNL     1      -6.680  -0.395 125.281  0.00  0.00    +0.000 C 
ATOM     22  C   UNL     1      -7.461   0.892 125.580  0.00  0.00    +0.000 C 
ATOM     23  C   UNL     1      -5.289  -0.221 125.896  0.00  0.00    +0.000 C 
ENDBRANCH  18  21
ENDBRANCH   7  10
BRANCH   1  27
ATOM     24  C   UNL     1      -5.860   4.909 133.456  0.00  0.00    +0.000 A 
ATOM     25  C   UNL     1      -6.694   4.328 134.402  0.00  0.00    +0.000 A 
ATOM     26  C   UNL     1      -7.425   3.214 134.082  0.00  0.00    +0.000 A 
ATOM     27  C   UNL     1      -7.478   2.785 132.766  0.00  0.00    +0.000 A 
ATOM     28  N   UNL     1      -6.739   3.374 131.800  0.00  0.00    +0.000 NA
ATOM     29  C   UNL     1      -5.936   4.404 132.168  0.00  0.00    +0.000 A 
BRANCH  24  30
ATOM     30  C   UNL     1      -4.945   6.047 133.800  0.00  0.00    +0.000 C 
BRANCH  30  34
ATOM     31  N   UNL     1      -1.876   7.829 133.007  0.00  0.00    +0.000 NA
ATOM     32  C   UNL     1      -2.524   6.787 132.171  0.00  0.00    +0.000 C 
ATOM     33  C   UNL     1      -2.753   5.462 132.954  0.00  0.00    +0.000 C 
ATOM     34  N   UNL     1      -3.578   5.637 134.177  0.00  0.00    +0.000 NA
ATOM     35  C   UNL     1      -2.882   6.642 135.006  0.00  0.00    +0.000 C 
ATOM     36  C   UNL     1      -2.638   7.983 134.261  0.00  0.00    +0.000 C 
BRANCH  31  38
ATOM     37  C   UNL     1       0.379   8.226 134.216  0.00  0.00    +0.000 C 
ATOM     38  C   UNL     1      -0.449   7.498 133.164  0.00  0.00    +0.000 C 
ENDBRANCH  31  38
ENDBRANCH  30  34
ENDBRANCH  24  30
ENDBRANCH   1  27
TORSDOF 6
ENDMDL
MODEL 6
REMARK VINA RESULT:      -7.8      3.685      5.301
REMARK  Name = Abemaciclib
REMARK  10 active torsions:
REMARK  status: ('A' for Active; 'I' for Inactive)
REMARK    1  A    between atoms: C_1  and  C_2
REMARK    2  A    between atoms: C_2  and  N_3
REMARK    3  A    between atoms: N_6  and  C_7
REMARK    4  A    between atoms: C_7  and  C_8
REMARK    5  A    between atoms: C_11  and  N_12
REMARK    6  A    between atoms: C_18  and  C_20
REMARK    7  A    between atoms: C_26  and  C_27
REMARK    8  A    between atoms: N_28  and  C_29
REMARK    9  A    between atoms: C_29  and  C_30
REMARK   10  A    between atoms: C_29  and  C_31
REMARK                            x       y       z     vdW  Elec       q    Type
REMARK                         _______ _______ _______ _____ _____    ______ ____
ROOT
ATOM      1  N   UNL     1      -3.675   4.122 126.558  0.00  0.00    +0.000 N 
ATOM      2  C   UNL     1      -4.961   4.173 126.037  0.00  0.00    +0.000 A 
ATOM      3  N   UNL     1      -5.615   5.352 126.086  0.00  0.00    +0.000 NA
ATOM      4  C   UNL     1      -6.907   5.375 125.705  0.00  0.00    +0.000 A 
ATOM      5  C   UNL     1      -7.563   4.256 125.297  0.00  0.00    +0.000 A 
ATOM      6  F   UNL     1      -8.852   4.312 124.923  0.00  0.00    +0.000 F 
ATOM      7  C   UNL     1      -6.834   3.086 125.281  0.00  0.00    +0.000 A 
ATOM      8  N   UNL     1      -5.521   3.030 125.633  0.00  0.00    +0.000 NA
ATOM      9  H   UNL     1      -2.976   3.630 126.042  0.00  0.00    +0.000 HD
ENDROOT
BRANCH   7  10
ATOM     10  C   UNL     1      -7.428   1.824 124.844  0.00  0.00    +0.000 A 
ATOM     11  C   UNL     1      -8.319   1.831 123.764  0.00  0.00    +0.000 A 
ATOM     12  C   UNL     1      -8.942   0.662 123.344  0.00  0.00    +0.000 A 
ATOM     13  F   UNL     1      -9.786   0.718 122.304  0.00  0.00    +0.000 F 
ATOM     14  C   UNL     1      -8.692  -0.542 124.017  0.00  0.00    +0.000 A 
ATOM     15  N   UNL     1      -9.198  -1.788 123.790  0.00  0.00    +0.000 NA
ATOM     16  C   UNL     1      -8.664  -2.581 124.696  0.00  0.00    +0.000 A 
ATOM     17  C   UNL     1      -8.978  -4.032 124.742  0.00  0.00    +0.000 C 
ATOM     18  N   UNL     1      -7.818  -1.876 125.541  0.00  0.00    +0.000 N 
ATOM     19  C   UNL     1      -7.805  -0.557 125.091  0.00  0.00    +0.000 A 
ATOM     20  C   UNL     1      -7.142   0.611 125.510  0.00  0.00    +0.000 A 
BRANCH  18  21
ATOM     21  C   UNL     1      -7.048  -2.349 126.699  0.00  0.00    +0.000 C 
ATOM     22  C   UNL     1      -5.545  -2.084 126.532  0.00  0.00    +0.000 C 
ATOM     23  C   UNL     1      -7.449  -1.771 128.059  0.00  0.00    +0.000 C 
ENDBRANCH  18  21
ENDBRANCH   7  10
BRANCH   1  27
ATOM     24  C   UNL     1      -2.530   5.358 130.348  0.00  0.00    +0.000 A 
ATOM     25  C   UNL     1      -2.156   6.090 129.227  0.00  0.00    +0.000 A 
ATOM     26  C   UNL     1      -2.622   5.735 127.989  0.00  0.00    +0.000 A 
ATOM     27  C   UNL     1      -3.305   4.540 127.831  0.00  0.00    +0.000 A 
ATOM     28  N   UNL     1      -3.620   3.761 128.888  0.00  0.00    +0.000 NA
ATOM     29  C   UNL     1      -3.245   4.194 130.118  0.00  0.00    +0.000 A 
BRANCH  24  30
ATOM     30  C   UNL     1      -2.151   5.787 131.735  0.00  0.00    +0.000 C 
BRANCH  30  34
ATOM     31  N   UNL     1      -1.764   7.741 134.776  0.00  0.00    +0.000 NA
ATOM     32  C   UNL     1      -2.970   7.697 133.912  0.00  0.00    +0.000 C 
ATOM     33  C   UNL     1      -2.647   8.052 132.432  0.00  0.00    +0.000 C 
ATOM     34  N   UNL     1      -1.624   7.163 131.824  0.00  0.00    +0.000 NA
ATOM     35  C   UNL     1      -0.424   7.266 132.679  0.00  0.00    +0.000 C 
ATOM     36  C   UNL     1      -0.704   6.915 134.167  0.00  0.00    +0.000 C 
BRANCH  31  38
ATOM     37  C   UNL     1      -2.406  10.057 135.739  0.00  0.00    +0.000 C 
ATOM     38  C   UNL     1      -1.409   9.148 135.033  0.00  0.00    +0.000 C 
ENDBRANCH  31  38
ENDBRANCH  30  34
ENDBRANCH  24  30
ENDBRANCH   1  27
TORSDOF 6
ENDMDL
MODEL 7
REMARK VINA RESULT:      -7.6      5.293      8.032
REMARK  Name = Abemaciclib
REMARK  10 active torsions:
REMARK  status: ('A' for Active; 'I' for Inactive)
REMARK    1  A    between atoms: C_1  and  C_2
REMARK    2  A    between atoms: C_2  and  N_3
REMARK    3  A    between atoms: N_6  and  C_7
REMARK    4  A    between atoms: C_7  and  C_8
REMARK    5  A    between atoms: C_11  and  N_12
REMARK    6  A    between atoms: C_18  and  C_20
REMARK    7  A    between atoms: C_26  and  C_27
REMARK    8  A    between atoms: N_28  and  C_29
REMARK    9  A    between atoms: C_29  and  C_30
REMARK   10  A    between atoms: C_29  and  C_31
REMARK                            x       y       z     vdW  Elec       q    Type
REMARK                         _______ _______ _______ _____ _____    ______ ____
ROOT
ATOM      1  N   UNL     1      -1.697   6.220 131.956  0.00  0.00    +0.000 N 
ATOM      2  C   UNL     1      -2.314   6.028 130.727  0.00  0.00    +0.000 A 
ATOM      3  N   UNL     1      -1.742   6.587 129.640  0.00  0.00    +0.000 NA
ATOM      4  C   UNL     1      -2.405   6.517 128.470  0.00  0.00    +0.000 A 
ATOM      5  C   UNL     1      -3.624   5.924 128.360  0.00  0.00    +0.000 A 
ATOM      6  F   UNL     1      -4.259   5.871 127.178  0.00  0.00    +0.000 F 
ATOM      7  C   UNL     1      -4.151   5.381 129.514  0.00  0.00    +0.000 A 
ATOM      8  N   UNL     1      -3.498   5.410 130.707  0.00  0.00    +0.000 NA
ATOM      9  H   UNL     1      -1.620   5.437 132.572  0.00  0.00    +0.000 HD
ENDROOT
BRANCH   7  10
ATOM     10  C   UNL     1      -5.445   4.702 129.514  0.00  0.00    +0.000 A 
ATOM     11  C   UNL     1      -5.565   3.469 128.863  0.00  0.00    +0.000 A 
ATOM     12  C   UNL     1      -6.786   2.811 128.799  0.00  0.00    +0.000 A 
ATOM     13  F   UNL     1      -6.851   1.630 128.166  0.00  0.00    +0.000 F 
ATOM     14  C   UNL     1      -7.923   3.391 129.379  0.00  0.00    +0.000 A 
ATOM     15  N   UNL     1      -9.208   2.936 129.422  0.00  0.00    +0.000 NA
ATOM     16  C   UNL     1      -9.906   3.845 130.070  0.00  0.00    +0.000 A 
ATOM     17  C   UNL     1     -11.360   3.674 130.324  0.00  0.00    +0.000 C 
ATOM     18  N   UNL     1      -9.107   4.915 130.447  0.00  0.00    +0.000 N 
ATOM     19  C   UNL     1      -7.811   4.618 130.030  0.00  0.00    +0.000 A 
ATOM     20  C   UNL     1      -6.575   5.283 130.131  0.00  0.00    +0.000 A 
BRANCH  18  21
ATOM     21  C   UNL     1      -9.471   6.151 131.152  0.00  0.00    +0.000 C 
ATOM     22  C   UNL     1     -10.331   7.075 130.279  0.00  0.00    +0.000 C 
ATOM     23  C   UNL     1     -10.217   5.978 132.478  0.00  0.00    +0.000 C 
ENDBRANCH  18  21
ENDBRANCH   7  10
BRANCH   1  27
ATOM     24  C   UNL     1      -0.620   9.873 133.595  0.00  0.00    +0.000 A 
ATOM     25  C   UNL     1       0.257   8.796 133.643  0.00  0.00    +0.000 A 
ATOM     26  C   UNL     1      -0.063   7.624 133.011  0.00  0.00    +0.000 A 
ATOM     27  C   UNL     1      -1.335   7.449 132.492  0.00  0.00    +0.000 A 
ATOM     28  N   UNL     1      -2.243   8.449 132.497  0.00  0.00    +0.000 NA
ATOM     29  C   UNL     1      -1.861   9.638 133.027  0.00  0.00    +0.000 A 
BRANCH  24  30
ATOM     30  C   UNL     1      -0.256  11.215 134.159  0.00  0.00    +0.000 C 
BRANCH  30  34
ATOM     31  N   UNL     1      -0.642  13.893 136.588  0.00  0.00    +0.000 NA
ATOM     32  C   UNL     1      -1.129  12.499 136.737  0.00  0.00    +0.000 C 
ATOM     33  C   UNL     1      -2.042  12.065 135.555  0.00  0.00    +0.000 C 
ATOM     34  N   UNL     1      -1.379  12.171 134.230  0.00  0.00    +0.000 NA
ATOM     35  C   UNL     1      -0.949  13.577 134.093  0.00  0.00    +0.000 C 
ATOM     36  C   UNL     1      -0.030  14.049 135.254  0.00  0.00    +0.000 C 
BRANCH  31  38
ATOM     37  C   UNL     1      -2.495  14.681 138.215  0.00  0.00    +0.000 C 
ATOM     38  C   UNL     1      -1.742  14.822 136.898  0.00  0.00    +0.000 C 
ENDBRANCH  31  38
ENDBRANCH  30  34
ENDBRANCH  24  30
ENDBRANCH   1  27
TORSDOF 6
ENDMDL
MODEL 8
REMARK VINA RESULT:      -7.5      3.685     11.461
REMARK  Name = Abemaciclib
REMARK  10 active torsions:
REMARK  status: ('A' for Active; 'I' for Inactive)
REMARK    1  A    between atoms: C_1  and  C_2
REMARK    2  A    between atoms: C_2  and  N_3
REMARK    3  A    between atoms: N_6  and  C_7
REMARK    4  A    between atoms: C_7  and  C_8
REMARK    5  A    between atoms: C_11  and  N_12
REMARK    6  A    between atoms: C_18  and  C_20
REMARK    7  A    between atoms: C_26  and  C_27
REMARK    8  A    between atoms: N_28  and  C_29
REMARK    9  A    between atoms: C_29  and  C_30
REMARK   10  A    between atoms: C_29  and  C_31
REMARK                            x       y       z     vdW  Elec       q    Type
REMARK                         _______ _______ _______ _____ _____    ______ ____
ROOT
ATOM      1  N   UNL     1      -7.057   0.019 132.654  0.00  0.00    +0.000 N 
ATOM      2  C   UNL     1      -7.634   1.234 132.999  0.00  0.00    +0.000 A 
ATOM      3  N   UNL     1      -8.919   1.445 132.640  0.00  0.00    +0.000 NA
ATOM      4  C   UNL     1      -9.441   2.668 132.853  0.00  0.00    +0.000 A 
ATOM      5  C   UNL     1      -8.716   3.683 133.395  0.00  0.00    +0.000 A 
ATOM      6  F   UNL     1      -9.267   4.892 133.594  0.00  0.00    +0.000 F 
ATOM      7  C   UNL     1      -7.409   3.396 133.729  0.00  0.00    +0.000 A 
ATOM      8  N   UNL     1      -6.855   2.166 133.552  0.00  0.00    +0.000 NA
ATOM      9  H   UNL     1      -6.496  -0.447 133.337  0.00  0.00    +0.000 HD
ENDROOT
BRANCH   7  10
ATOM     10  C   UNL     1      -6.539   4.403 134.334  0.00  0.00    +0.000 A 
ATOM     11  C   UNL     1      -6.838   4.875 135.618  0.00  0.00    +0.000 A 
ATOM     12  C   UNL     1      -6.065   5.864 136.213  0.00  0.00    +0.000 A 
ATOM     13  F   UNL     1      -6.390   6.284 137.445  0.00  0.00    +0.000 F 
ATOM     14  C   UNL     1      -4.979   6.413 135.519  0.00  0.00    +0.000 A 
ATOM     15  N   UNL     1      -4.106   7.391 135.898  0.00  0.00    +0.000 NA
ATOM     16  C   UNL     1      -3.271   7.558 134.894  0.00  0.00    +0.000 A 
ATOM     17  C   UNL     1      -2.161   8.544 134.960  0.00  0.00    +0.000 C 
ATOM     18  N   UNL     1      -3.585   6.716 133.836  0.00  0.00    +0.000 N 
ATOM     19  C   UNL     1      -4.674   5.947 134.241  0.00  0.00    +0.000 A 
ATOM     20  C   UNL     1      -5.427   4.924 133.636  0.00  0.00    +0.000 A 
BRANCH  18  21
ATOM     21  C   UNL     1      -2.947   6.592 132.519  0.00  0.00    +0.000 C 
ATOM     22  C   UNL     1      -3.068   7.885 131.700  0.00  0.00    +0.000 C 
ATOM     23  C   UNL     1      -1.465   6.208 132.519  0.00  0.00    +0.000 C 
ENDBRANCH  18  21
ENDBRANCH   7  10
BRANCH   1  27
ATOM     24  C   UNL     1      -6.960  -1.645 128.856  0.00  0.00    +0.000 A 
ATOM     25  C   UNL     1      -7.650  -2.278 129.883  0.00  0.00    +0.000 A 
ATOM     26  C   UNL     1      -7.764  -1.674 131.107  0.00  0.00    +0.000 A 
ATOM     27  C   UNL     1      -7.033  -0.528 131.377  0.00  0.00    +0.000 A 
ATOM     28  N   UNL     1      -6.288   0.075 130.425  0.00  0.00    +0.000 NA
ATOM     29  C   UNL     1      -6.284  -0.482 129.188  0.00  0.00    +0.000 A 
BRANCH  24  30
ATOM     30  C   UNL     1      -6.922  -2.206 127.466  0.00  0.00    +0.000 C 
BRANCH  30  34
ATOM     31  N   UNL     1      -7.626  -2.090 123.901  0.00  0.00    +0.000 NA
ATOM     32  C   UNL     1      -7.620  -0.932 124.830  0.00  0.00    +0.000 C 
ATOM     33  C   UNL     1      -8.569  -1.146 126.043  0.00  0.00    +0.000 C 
ATOM     34  N   UNL     1      -8.248  -2.360 126.835  0.00  0.00    +0.000 NA
ATOM     35  C   UNL     1      -8.309  -3.497 125.893  0.00  0.00    +0.000 C 
ATOM     36  C   UNL     1      -7.370  -3.324 124.668  0.00  0.00    +0.000 C 
BRANCH  31  38
ATOM     37  C   UNL     1      -9.777  -3.299 123.116  0.00  0.00    +0.000 C 
ATOM     38  C   UNL     1      -8.876  -2.071 123.119  0.00  0.00    +0.000 C 
ENDBRANCH  31  38
ENDBRANCH  30  34
ENDBRANCH  24  30
ENDBRANCH   1  27
TORSDOF 6
ENDMDL
MODEL 9
REMARK VINA RESULT:      -7.4      3.798      5.031
REMARK  Name = Abemaciclib
REMARK  10 active torsions:
REMARK  status: ('A' for Active; 'I' for Inactive)
REMARK    1  A    between atoms: C_1  and  C_2
REMARK    2  A    between atoms: C_2  and  N_3
REMARK    3  A    between atoms: N_6  and  C_7
REMARK    4  A    between atoms: C_7  and  C_8
REMARK    5  A    between atoms: C_11  and  N_12
REMARK    6  A    between atoms: C_18  and  C_20
REMARK    7  A    between atoms: C_26  and  C_27
REMARK    8  A    between atoms: N_28  and  C_29
REMARK    9  A    between atoms: C_29  and  C_30
REMARK   10  A    between atoms: C_29  and  C_31
REMARK                            x       y       z     vdW  Elec       q    Type
REMARK                         _______ _______ _______ _____ _____    ______ ____
ROOT
ATOM      1  N   UNL     1      -4.130   2.413 129.703  0.00  0.00    +0.000 N 
ATOM      2  C   UNL     1      -4.320   2.743 128.367  0.00  0.00    +0.000 A 
ATOM      3  N   UNL     1      -3.672   3.825 127.887  0.00  0.00    +0.000 NA
ATOM      4  C   UNL     1      -3.955   4.226 126.633  0.00  0.00    +0.000 A 
ATOM      5  C   UNL     1      -4.874   3.591 125.858  0.00  0.00    +0.000 A 
ATOM      6  F   UNL     1      -5.134   4.016 124.610  0.00  0.00    +0.000 F 
ATOM      7  C   UNL     1      -5.502   2.498 126.417  0.00  0.00    +0.000 A 
ATOM      8  N   UNL     1      -5.223   2.049 127.670  0.00  0.00    +0.000 NA
ATOM      9  H   UNL     1      -3.992   1.452 129.936  0.00  0.00    +0.000 HD
ENDROOT
BRANCH   7  10
ATOM     10  C   UNL     1      -6.495   1.725 125.673  0.00  0.00    +0.000 A 
ATOM     11  C   UNL     1      -7.679   2.353 125.267  0.00  0.00    +0.000 A 
ATOM     12  C   UNL     1      -8.669   1.645 124.598  0.00  0.00    +0.000 A 
ATOM     13  F   UNL     1      -9.785   2.290 124.227  0.00  0.00    +0.000 F 
ATOM     14  C   UNL     1      -8.495   0.280 124.335  0.00  0.00    +0.000 A 
ATOM     15  N   UNL     1      -9.330  -0.602 123.715  0.00  0.00    +0.000 NA
ATOM     16  C   UNL     1      -8.718  -1.768 123.723  0.00  0.00    +0.000 A 
ATOM     17  C   UNL     1      -9.332  -2.974 123.110  0.00  0.00    +0.000 C 
ATOM     18  N   UNL     1      -7.487  -1.683 124.358  0.00  0.00    +0.000 N 
ATOM     19  C   UNL     1      -7.318  -0.351 124.734  0.00  0.00    +0.000 A 
ATOM     20  C   UNL     1      -6.292   0.358 125.385  0.00  0.00    +0.000 A 
BRANCH  18  21
ATOM     21  C   UNL     1      -6.496  -2.734 124.622  0.00  0.00    +0.000 C 
ATOM     22  C   UNL     1      -5.415  -2.787 123.534  0.00  0.00    +0.000 C 
ATOM     23  C   UNL     1      -5.767  -2.654 125.966  0.00  0.00    +0.000 C 
ENDBRANCH  18  21
ENDBRANCH   7  10
BRANCH   1  27
ATOM     24  C   UNL     1      -4.626   5.027 132.884  0.00  0.00    +0.000 A 
ATOM     25  C   UNL     1      -5.671   4.791 131.999  0.00  0.00    +0.000 A 
ATOM     26  C   UNL     1      -5.535   3.851 131.012  0.00  0.00    +0.000 A 
ATOM     27  C   UNL     1      -4.296   3.278 130.777  0.00  0.00    +0.000 A 
ATOM     28  N   UNL     1      -3.234   3.541 131.570  0.00  0.00    +0.000 NA
ATOM     29  C   UNL     1      -3.426   4.390 132.611  0.00  0.00    +0.000 A 
BRANCH  24  30
ATOM     30  C   UNL     1      -4.776   5.949 134.058  0.00  0.00    +0.000 C 
BRANCH  30  34
ATOM     31  N   UNL     1      -6.898   6.587 136.940  0.00  0.00    +0.000 NA
ATOM     32  C   UNL     1      -5.629   7.285 136.616  0.00  0.00    +0.000 C 
ATOM     33  C   UNL     1      -4.443   6.295 136.431  0.00  0.00    +0.000 C 
ATOM     34  N   UNL     1      -4.683   5.282 135.372  0.00  0.00    +0.000 NA
ATOM     35  C   UNL     1      -5.925   4.575 135.748  0.00  0.00    +0.000 C 
ATOM     36  C   UNL     1      -7.135   5.530 135.938  0.00  0.00    +0.000 C 
BRANCH  31  38
ATOM     37  C   UNL     1      -7.139   7.137 139.458  0.00  0.00    +0.000 C 
ATOM     38  C   UNL     1      -6.855   6.139 138.343  0.00  0.00    +0.000 C 
ENDBRANCH  31  38
ENDBRANCH  30  34
ENDBRANCH  24  30
ENDBRANCH   1  27
TORSDOF 6
ENDMDL
