MODEL 1
REMARK VINA RESULT:      -9.3      0.000      0.000
REMARK  Name = Abiraterone
REMARK  4 active torsions:
REMARK  status: ('A' for Active; 'I' for Inactive)
REMARK    1  A    between atoms: C_5  and  C_6
REMARK    2  A    between atoms: C_12  and  C_13
REMARK    3  A    between atoms: C_24  and  O_25
REMARK    4  A    between atoms: C_28  and  C_29
REMARK                            x       y       z     vdW  Elec       q    Type
REMARK                         _______ _______ _______ _____ _____    ______ ____
ROOT
ATOM      1  C   UNL     1      -8.101  -3.013 129.843  0.00  0.00    +0.000 C 
ATOM      2  C   UNL     1      -6.970  -3.874 129.844  0.00  0.00    +0.000 C 
ATOM      3  C   UNL     1      -6.899  -2.374 129.487  0.00  0.00    +0.000 C 
ATOM      4  C   UNL     1      -7.946  -1.227 130.026  0.00  0.00    +0.000 C 
ATOM      5  C   UNL     1      -7.056  -1.776 130.832  0.00  0.00    +0.000 C 
ATOM      6  C   UNL     1      -7.217  -1.958 132.316  0.00  0.00    +0.000 C 
ATOM      7  C   UNL     1      -5.849  -0.630 130.017  0.00  0.00    +0.000 C 
ATOM      8  C   UNL     1      -6.344  -0.380 128.227  0.00  0.00    +0.000 C 
ATOM      9  C   UNL     1      -7.058  -1.611 127.248  0.00  0.00    +0.000 C 
ATOM     10  C   UNL     1      -8.372  -2.612 128.010  0.00  0.00    +0.000 C 
ATOM     11  C   UNL     1      -8.452  -3.930 127.257  0.00  0.00    +0.000 C 
ATOM     12  C   UNL     1      -8.423  -3.723 125.804  0.00  0.00    +0.000 C 
ATOM     13  C   UNL     1      -8.076  -2.584 125.168  0.00  0.00    +0.000 C 
ATOM     14  C   UNL     1      -8.085  -2.761 123.691  0.00  0.00    +0.000 C 
ATOM     15  C   UNL     1      -7.471  -1.614 123.029  0.00  0.00    +0.000 C 
ATOM     16  C   UNL     1      -7.031  -0.223 122.982  0.00  0.00    +0.000 C 
ATOM     17  C   UNL     1      -6.556  -0.285 124.685  0.00  0.00    +0.000 C 
ATOM     18  C   UNL     1      -7.598  -1.193 125.783  0.00  0.00    +0.000 C 
ATOM     19  C   UNL     1      -8.775  -0.232 126.055  0.00  0.00    +0.000 C 
ENDROOT
BRANCH   4  20
ATOM     20  C   UNL     1      -8.354   0.340 130.606  0.00  0.00    +0.000 A 
ATOM     21  C   UNL     1      -9.057   0.619 131.800  0.00  0.00    +0.000 A 
ATOM     22  C   UNL     1      -9.834   1.780 132.069  0.00  0.00    +0.000 A 
ATOM     23  C   UNL     1      -9.816   2.818 131.181  0.00  0.00    +0.000 A 
ATOM     24  N   UNL     1      -9.053   2.738 130.079  0.00  0.00    +0.000 NA
ATOM     25  C   UNL     1      -8.365   1.531 129.818  0.00  0.00    +0.000 A 
ENDBRANCH   4  20
BRANCH  15  26
ATOM     26  O   UNL     1      -6.065  -2.043 122.970  0.00  0.00    +0.000 OA
ATOM     27  H   UNL     1      -5.527  -1.862 122.180  0.00  0.00    +0.000 HD
ENDBRANCH  15  26
TORSDOF 2
ENDMDL
MODEL 2
REMARK VINA RESULT:      -8.8      2.915      5.619
REMARK  Name = Abiraterone
REMARK  4 active torsions:
REMARK  status: ('A' for Active; 'I' for Inactive)
REMARK    1  A    between atoms: C_5  and  C_6
REMARK    2  A    between atoms: C_12  and  C_13
REMARK    3  A    between atoms: C_24  and  O_25
REMARK    4  A    between atoms: C_28  and  C_29
REMARK                            x       y       z     vdW  Elec       q    Type
REMARK                         _______ _______ _______ _____ _____    ______ ____
ROOT
ATOM      1  C   UNL     1      -8.791  -1.724 123.995  0.00  0.00    +0.000 C 
ATOM      2  C   UNL     1      -8.198  -1.870 122.712  0.00  0.00    +0.000 C 
ATOM      3  C   UNL     1      -7.386  -1.665 124.008  0.00  0.00    +0.000 C 
ATOM      4  C   UNL     1      -7.892  -2.087 125.513  0.00  0.00    +0.000 C 
ATOM      5  C   UNL     1      -7.538  -3.001 124.628  0.00  0.00    +0.000 C 
ATOM      6  C   UNL     1      -8.073  -4.404 124.557  0.00  0.00    +0.000 C 
ATOM      7  C   UNL     1      -5.802  -2.537 125.083  0.00  0.00    +0.000 C 
ATOM      8  C   UNL     1      -5.740  -0.713 125.511  0.00  0.00    +0.000 C 
ATOM      9  C   UNL     1      -6.707   0.488 124.732  0.00  0.00    +0.000 C 
ATOM     10  C   UNL     1      -8.458   0.084 124.453  0.00  0.00    +0.000 C 
ATOM     11  C   UNL     1      -8.962   0.950 123.310  0.00  0.00    +0.000 C 
ATOM     12  C   UNL     1      -8.536   2.347 123.463  0.00  0.00    +0.000 C 
ATOM     13  C   UNL     1      -7.588   2.803 124.309  0.00  0.00    +0.000 C 
ATOM     14  C   UNL     1      -7.363   4.263 124.137  0.00  0.00    +0.000 C 
ATOM     15  C   UNL     1      -6.173   4.692 124.868  0.00  0.00    +0.000 C 
ATOM     16  C   UNL     1      -5.155   4.532 125.901  0.00  0.00    +0.000 C 
ATOM     17  C   UNL     1      -5.132   2.781 125.650  0.00  0.00    +0.000 C 
ATOM     18  C   UNL     1      -6.676   1.988 125.333  0.00  0.00    +0.000 C 
ATOM     19  C   UNL     1      -7.323   1.868 126.730  0.00  0.00    +0.000 C 
ENDROOT
BRANCH   4  20
ATOM     20  C   UNL     1      -7.663  -2.711 127.101  0.00  0.00    +0.000 A 
ATOM     21  C   UNL     1      -8.587  -3.510 127.813  0.00  0.00    +0.000 A 
ATOM     22  C   UNL     1      -8.688  -3.623 129.227  0.00  0.00    +0.000 A 
ATOM     23  C   UNL     1      -7.736  -3.040 130.015  0.00  0.00    +0.000 A 
ATOM     24  N   UNL     1      -6.711  -2.386 129.446  0.00  0.00    +0.000 NA
ATOM     25  C   UNL     1      -6.702  -2.232 128.041  0.00  0.00    +0.000 A 
ENDBRANCH   4  20
BRANCH  15  26
ATOM     26  O   UNL     1      -5.134   4.514 123.841  0.00  0.00    +0.000 OA
ATOM     27  H   UNL     1      -5.057   5.143 123.103  0.00  0.00    +0.000 HD
ENDBRANCH  15  26
TORSDOF 2
ENDMDL
MODEL 3
REMARK VINA RESULT:      -8.7      2.603      3.157
REMARK  Name = Abiraterone
REMARK  4 active torsions:
REMARK  status: ('A' for Active; 'I' for Inactive)
REMARK    1  A    between atoms: C_5  and  C_6
REMARK    2  A    between atoms: C_12  and  C_13
REMARK    3  A    between atoms: C_24  and  O_25
REMARK    4  A    between atoms: C_28  and  C_29
REMARK                            x       y       z     vdW  Elec       q    Type
REMARK                         _______ _______ _______ _____ _____    ______ ____
ROOT
ATOM      1  C   UNL     1      -6.275  -3.545 130.951  0.00  0.00    +0.000 C 
ATOM      2  C   UNL     1      -5.898  -4.870 130.606  0.00  0.00    +0.000 C 
ATOM      3  C   UNL     1      -5.307  -3.613 129.933  0.00  0.00    +0.000 C 
ATOM      4  C   UNL     1      -5.205  -2.130 130.633  0.00  0.00    +0.000 C 
ATOM      5  C   UNL     1      -4.425  -3.124 131.017  0.00  0.00    +0.000 C 
ATOM      6  C   UNL     1      -3.852  -3.304 132.395  0.00  0.00    +0.000 C 
ATOM      7  C   UNL     1      -3.447  -2.734 129.492  0.00  0.00    +0.000 C 
ATOM      8  C   UNL     1      -4.608  -2.128 128.151  0.00  0.00    +0.000 C 
ATOM      9  C   UNL     1      -6.217  -2.718 127.935  0.00  0.00    +0.000 C 
ATOM     10  C   UNL     1      -7.226  -2.927 129.434  0.00  0.00    +0.000 C 
ATOM     11  C   UNL     1      -8.315  -3.942 129.127  0.00  0.00    +0.000 C 
ATOM     12  C   UNL     1      -8.952  -3.674 127.832  0.00  0.00    +0.000 C 
ATOM     13  C   UNL     1      -8.489  -2.848 126.871  0.00  0.00    +0.000 C 
ATOM     14  C   UNL     1      -9.351  -2.884 125.660  0.00  0.00    +0.000 C 
ATOM     15  C   UNL     1      -8.709  -2.189 124.547  0.00  0.00    +0.000 C 
ATOM     16  C   UNL     1      -7.751  -1.243 123.986  0.00  0.00    +0.000 C 
ATOM     17  C   UNL     1      -6.559  -1.672 125.221  0.00  0.00    +0.000 C 
ATOM     18  C   UNL     1      -7.157  -1.970 126.854  0.00  0.00    +0.000 C 
ATOM     19  C   UNL     1      -7.376  -0.556 127.431  0.00  0.00    +0.000 C 
ENDROOT
BRANCH   4  20
ATOM     20  C   UNL     1      -4.428  -0.632 130.970  0.00  0.00    +0.000 A 
ATOM     21  C   UNL     1      -3.941  -0.222 132.232  0.00  0.00    +0.000 A 
ATOM     22  C   UNL     1      -3.767   1.118 132.673  0.00  0.00    +0.000 A 
ATOM     23  C   UNL     1      -3.935   2.143 131.784  0.00  0.00    +0.000 A 
ATOM     24  N   UNL     1      -4.242   1.871 130.506  0.00  0.00    +0.000 NA
ATOM     25  C   UNL     1      -4.484   0.528 130.138  0.00  0.00    +0.000 A 
ENDBRANCH   4  20
BRANCH  15  26
ATOM     26  O   UNL     1      -7.962  -3.291 123.923  0.00  0.00    +0.000 OA
ATOM     27  H   UNL     1      -7.377  -3.123 123.163  0.00  0.00    +0.000 HD
ENDBRANCH  15  26
TORSDOF 2
ENDMDL
MODEL 4
REMARK VINA RESULT:      -8.5      2.985      6.716
REMARK  Name = Abiraterone
REMARK  4 active torsions:
REMARK  status: ('A' for Active; 'I' for Inactive)
REMARK    1  A    between atoms: C_5  and  C_6
REMARK    2  A    between atoms: C_12  and  C_13
REMARK    3  A    between atoms: C_24  and  O_25
REMARK    4  A    between atoms: C_28  and  C_29
REMARK                            x       y       z     vdW  Elec       q    Type
REMARK                         _______ _______ _______ _____ _____    ______ ____
ROOT
ATOM      1  C   UNL     1      -7.873   0.850 127.776  0.00  0.00    +0.000 C 
ATOM      2  C   UNL     1      -6.851   1.741 128.200  0.00  0.00    +0.000 C 
ATOM      3  C   UNL     1      -6.571   0.347 127.601  0.00  0.00    +0.000 C 
ATOM      4  C   UNL     1      -7.569  -0.452 126.568  0.00  0.00    +0.000 C 
ATOM      5  C   UNL     1      -6.881   0.605 126.177  0.00  0.00    +0.000 C 
ATOM      6  C   UNL     1      -7.297   1.568 125.099  0.00  0.00    +0.000 C 
ATOM      7  C   UNL     1      -5.448  -0.566 126.074  0.00  0.00    +0.000 C 
ATOM      8  C   UNL     1      -5.620  -1.874 127.405  0.00  0.00    +0.000 C 
ATOM      9  C   UNL     1      -6.289  -1.569 128.969  0.00  0.00    +0.000 C 
ATOM     10  C   UNL     1      -7.802  -0.563 129.037  0.00  0.00    +0.000 C 
ATOM     11  C   UNL     1      -7.894   0.051 130.424  0.00  0.00    +0.000 C 
ATOM     12  C   UNL     1      -7.610  -0.938 131.471  0.00  0.00    +0.000 C 
ATOM     13  C   UNL     1      -7.051  -2.153 131.290  0.00  0.00    +0.000 C 
ATOM     14  C   UNL     1      -6.839  -2.853 132.585  0.00  0.00    +0.000 C 
ATOM     15  C   UNL     1      -6.013  -4.043 132.400  0.00  0.00    +0.000 C 
ATOM     16  C   UNL     1      -5.432  -5.108 131.590  0.00  0.00    +0.000 C 
ATOM     17  C   UNL     1      -5.247  -4.004 130.219  0.00  0.00    +0.000 C 
ATOM     18  C   UNL     1      -6.539  -2.835 129.942  0.00  0.00    +0.000 C 
ATOM     19  C   UNL     1      -7.641  -3.659 129.243  0.00  0.00    +0.000 C 
ENDROOT
BRANCH   4  20
ATOM     20  C   UNL     1      -7.904  -1.453 125.209  0.00  0.00    +0.000 A 
ATOM     21  C   UNL     1      -8.395  -1.008 123.960  0.00  0.00    +0.000 A 
ATOM     22  C   UNL     1      -9.138  -1.779 123.024  0.00  0.00    +0.000 A 
ATOM     23  C   UNL     1      -9.296  -3.119 123.237  0.00  0.00    +0.000 A 
ATOM     24  N   UNL     1      -8.733  -3.694 124.312  0.00  0.00    +0.000 NA
ATOM     25  C   UNL     1      -8.076  -2.870 125.254  0.00  0.00    +0.000 A 
ENDBRANCH   4  20
BRANCH  15  26
ATOM     26  O   UNL     1      -4.667  -3.483 132.600  0.00  0.00    +0.000 OA
ATOM     27  H   UNL     1      -3.944  -4.043 132.931  0.00  0.00    +0.000 HD
ENDBRANCH  15  26
TORSDOF 2
ENDMDL
MODEL 5
REMARK VINA RESULT:      -8.0      5.824      8.284
REMARK  Name = Abiraterone
REMARK  4 active torsions:
REMARK  status: ('A' for Active; 'I' for Inactive)
REMARK    1  A    between atoms: C_5  and  C_6
REMARK    2  A    between atoms: C_12  and  C_13
REMARK    3  A    between atoms: C_24  and  O_25
REMARK    4  A    between atoms: C_28  and  C_29
REMARK                            x       y       z     vdW  Elec       q    Type
REMARK                         _______ _______ _______ _____ _____    ______ ____
ROOT
ATOM      1  C   UNL     1      -6.909   2.210 130.633  0.00  0.00    +0.000 C 
ATOM      2  C   UNL     1      -6.181   1.224 131.353  0.00  0.00    +0.000 C 
ATOM      3  C   UNL     1      -6.710   2.527 131.989  0.00  0.00    +0.000 C 
ATOM      4  C   UNL     1      -8.011   3.376 131.453  0.00  0.00    +0.000 C 
ATOM      5  C   UNL     1      -8.156   2.215 132.064  0.00  0.00    +0.000 C 
ATOM      6  C   UNL     1      -9.280   1.243 131.839  0.00  0.00    +0.000 C 
ATOM      7  C   UNL     1      -7.868   3.180 133.620  0.00  0.00    +0.000 C 
ATOM      8  C   UNL     1      -6.681   4.587 133.266  0.00  0.00    +0.000 C 
ATOM      9  C   UNL     1      -5.373   4.478 132.142  0.00  0.00    +0.000 C 
ATOM     10  C   UNL     1      -5.722   3.684 130.544  0.00  0.00    +0.000 C 
ATOM     11  C   UNL     1      -4.405   3.183 129.974  0.00  0.00    +0.000 C 
ATOM     12  C   UNL     1      -3.348   4.195 130.086  0.00  0.00    +0.000 C 
ATOM     13  C   UNL     1      -3.392   5.312 130.842  0.00  0.00    +0.000 C 
ATOM     14  C   UNL     1      -2.111   6.065 130.774  0.00  0.00    +0.000 C 
ATOM     15  C   UNL     1      -2.080   7.123 131.781  0.00  0.00    +0.000 C 
ATOM     16  C   UNL     1      -2.714   8.046 132.716  0.00  0.00    +0.000 C 
ATOM     17  C   UNL     1      -3.940   6.838 133.123  0.00  0.00    +0.000 C 
ATOM     18  C   UNL     1      -4.550   5.829 131.810  0.00  0.00    +0.000 C 
ATOM     19  C   UNL     1      -5.562   6.740 131.083  0.00  0.00    +0.000 C 
ENDROOT
BRANCH   4  20
ATOM     20  C   UNL     1      -9.436   4.317 131.666  0.00  0.00    +0.000 A 
ATOM     21  C   UNL     1     -10.523   4.382 130.765  0.00  0.00    +0.000 A 
ATOM     22  C   UNL     1     -11.440   5.459 130.628  0.00  0.00    +0.000 A 
ATOM     23  C   UNL     1     -11.401   6.490 131.525  0.00  0.00    +0.000 A 
ATOM     24  N   UNL     1     -10.513   6.462 132.531  0.00  0.00    +0.000 NA
ATOM     25  C   UNL     1      -9.570   5.411 132.574  0.00  0.00    +0.000 A 
ENDBRANCH   4  20
BRANCH  15  26
ATOM     26  O   UNL     1      -1.481   6.408 132.919  0.00  0.00    +0.000 OA
ATOM     27  H   UNL     1      -0.573   6.063 132.863  0.00  0.00    +0.000 HD
ENDBRANCH  15  26
TORSDOF 2
ENDMDL
MODEL 6
REMARK VINA RESULT:      -7.9      2.943      5.562
REMARK  Name = Abiraterone
REMARK  4 active torsions:
REMARK  status: ('A' for Active; 'I' for Inactive)
REMARK    1  A    between atoms: C_5  and  C_6
REMARK    2  A    between atoms: C_12  and  C_13
REMARK    3  A    between atoms: C_24  and  O_25
REMARK    4  A    between atoms: C_28  and  C_29
REMARK                            x       y       z     vdW  Elec       q    Type
REMARK                         _______ _______ _______ _____ _____    ______ ____
ROOT
ATOM      1  C   UNL     1      -9.196   3.041 132.392  0.00  0.00    +0.000 C 
ATOM      2  C   UNL     1      -8.248   2.725 133.401  0.00  0.00    +0.000 C 
ATOM      3  C   UNL     1      -7.874   3.385 132.058  0.00  0.00    +0.000 C 
ATOM      4  C   UNL     1      -8.886   4.306 131.147  0.00  0.00    +0.000 C 
ATOM      5  C   UNL     1      -8.388   4.755 132.285  0.00  0.00    +0.000 C 
ATOM      6  C   UNL     1      -9.049   5.751 133.196  0.00  0.00    +0.000 C 
ATOM      7  C   UNL     1      -6.845   5.058 131.305  0.00  0.00    +0.000 C 
ATOM      8  C   UNL     1      -6.687   3.746 129.976  0.00  0.00    +0.000 C 
ATOM      9  C   UNL     1      -7.190   2.106 130.183  0.00  0.00    +0.000 C 
ATOM     10  C   UNL     1      -8.796   1.831 130.990  0.00  0.00    +0.000 C 
ATOM     11  C   UNL     1      -8.791   0.429 131.577  0.00  0.00    +0.000 C 
ATOM     12  C   UNL     1      -8.259  -0.553 130.625  0.00  0.00    +0.000 C 
ATOM     13  C   UNL     1      -7.581  -0.277 129.491  0.00  0.00    +0.000 C 
ATOM     14  C   UNL     1      -7.126  -1.520 128.813  0.00  0.00    +0.000 C 
ATOM     15  C   UNL     1      -6.188  -1.209 127.738  0.00  0.00    +0.000 C 
ATOM     16  C   UNL     1      -5.584  -0.310 126.760  0.00  0.00    +0.000 C 
ATOM     17  C   UNL     1      -5.708   1.047 127.888  0.00  0.00    +0.000 C 
ATOM     18  C   UNL     1      -7.159   1.138 128.889  0.00  0.00    +0.000 C 
ATOM     19  C   UNL     1      -8.229   1.716 127.937  0.00  0.00    +0.000 C 
ENDROOT
BRANCH   4  20
ATOM     20  C   UNL     1      -9.260   5.637 130.123  0.00  0.00    +0.000 A 
ATOM     21  C   UNL     1      -9.990   6.787 130.500  0.00  0.00    +0.000 A 
ATOM     22  C   UNL     1     -10.736   7.633 129.634  0.00  0.00    +0.000 A 
ATOM     23  C   UNL     1     -10.656   7.446 128.283  0.00  0.00    +0.000 A 
ATOM     24  N   UNL     1      -9.862   6.482 127.791  0.00  0.00    +0.000 NA
ATOM     25  C   UNL     1      -9.206   5.616 128.696  0.00  0.00    +0.000 A 
ENDBRANCH   4  20
BRANCH  15  26
ATOM     26  O   UNL     1      -4.908  -1.256 128.461  0.00  0.00    +0.000 OA
ATOM     27  H   UNL     1      -4.258  -0.538 128.361  0.00  0.00    +0.000 HD
ENDBRANCH  15  26
TORSDOF 2
ENDMDL
MODEL 7
REMARK VINA RESULT:      -7.9      6.550      8.921
REMARK  Name = Abiraterone
REMARK  4 active torsions:
REMARK  status: ('A' for Active; 'I' for Inactive)
REMARK    1  A    between atoms: C_5  and  C_6
REMARK    2  A    between atoms: C_12  and  C_13
REMARK    3  A    between atoms: C_24  and  O_25
REMARK    4  A    between atoms: C_28  and  C_29
REMARK                            x       y       z     vdW  Elec       q    Type
REMARK                         _______ _______ _______ _____ _____    ______ ____
ROOT
ATOM      1  C   UNL     1      -7.842   4.748 132.690  0.00  0.00    +0.000 C 
ATOM      2  C   UNL     1      -8.527   3.505 132.740  0.00  0.00    +0.000 C 
ATOM      3  C   UNL     1      -8.057   4.165 131.427  0.00  0.00    +0.000 C 
ATOM      4  C   UNL     1      -6.793   5.208 131.298  0.00  0.00    +0.000 C 
ATOM      5  C   UNL     1      -6.599   3.921 131.517  0.00  0.00    +0.000 C 
ATOM      6  C   UNL     1      -5.433   3.326 132.256  0.00  0.00    +0.000 C 
ATOM      7  C   UNL     1      -6.932   3.726 129.705  0.00  0.00    +0.000 C 
ATOM      8  C   UNL     1      -8.179   5.017 129.162  0.00  0.00    +0.000 C 
ATOM      9  C   UNL     1      -9.478   5.572 130.155  0.00  0.00    +0.000 C 
ATOM     10  C   UNL     1      -9.092   5.930 131.896  0.00  0.00    +0.000 C 
ATOM     11  C   UNL     1     -10.384   5.838 132.690  0.00  0.00    +0.000 C 
ATOM     12  C   UNL     1     -11.484   6.535 132.014  0.00  0.00    +0.000 C 
ATOM     13  C   UNL     1     -11.491   6.960 130.733  0.00  0.00    +0.000 C 
ATOM     14  C   UNL     1     -12.803   7.555 130.364  0.00  0.00    +0.000 C 
ATOM     15  C   UNL     1     -12.883   7.777 128.923  0.00  0.00    +0.000 C 
ATOM     16  C   UNL     1     -12.292   7.959 127.602  0.00  0.00    +0.000 C 
ATOM     17  C   UNL     1     -11.015   6.794 127.981  0.00  0.00    +0.000 C 
ATOM     18  C   UNL     1     -10.359   6.817 129.619  0.00  0.00    +0.000 C 
ATOM     19  C   UNL     1      -9.385   8.016 129.611  0.00  0.00    +0.000 C 
ENDROOT
BRANCH   4  20
ATOM     20  C   UNL     1      -5.411   5.870 130.515  0.00  0.00    +0.000 A 
ATOM     21  C   UNL     1      -4.830   7.128 130.795  0.00  0.00    +0.000 A 
ATOM     22  C   UNL     1      -4.056   7.916 129.900  0.00  0.00    +0.000 A 
ATOM     23  C   UNL     1      -3.689   7.392 128.692  0.00  0.00    +0.000 A 
ATOM     24  N   UNL     1      -4.046   6.137 128.376  0.00  0.00    +0.000 NA
ATOM     25  C   UNL     1      -4.884   5.426 129.265  0.00  0.00    +0.000 A 
ENDBRANCH   4  20
BRANCH  15  26
ATOM     26  O   UNL     1     -13.452   6.497 128.473  0.00  0.00    +0.000 OA
ATOM     27  H   UNL     1     -14.075   6.008 129.039  0.00  0.00    +0.000 HD
ENDBRANCH  15  26
TORSDOF 2
ENDMDL
MODEL 8
REMARK VINA RESULT:      -7.9      2.351      4.352
REMARK  Name = Abiraterone
REMARK  4 active torsions:
REMARK  status: ('A' for Active; 'I' for Inactive)
REMARK    1  A    between atoms: C_5  and  C_6
REMARK    2  A    between atoms: C_12  and  C_13
REMARK    3  A    between atoms: C_24  and  O_25
REMARK    4  A    between atoms: C_28  and  C_29
REMARK                            x       y       z     vdW  Elec       q    Type
REMARK                         _______ _______ _______ _____ _____    ______ ____
ROOT
ATOM      1  C   UNL     1      -6.914   0.478 129.694  0.00  0.00    +0.000 C 
ATOM      2  C   UNL     1      -8.241   0.936 129.917  0.00  0.00    +0.000 C 
ATOM      3  C   UNL     1      -7.890  -0.528 129.577  0.00  0.00    +0.000 C 
ATOM      4  C   UNL     1      -6.450  -1.250 129.898  0.00  0.00    +0.000 C 
ATOM      5  C   UNL     1      -7.303  -0.964 130.864  0.00  0.00    +0.000 C 
ATOM      6  C   UNL     1      -6.939  -0.652 132.289  0.00  0.00    +0.000 C 
ATOM      7  C   UNL     1      -8.207  -2.479 130.296  0.00  0.00    +0.000 C 
ATOM      8  C   UNL     1      -7.997  -2.667 128.443  0.00  0.00    +0.000 C 
ATOM      9  C   UNL     1      -7.911  -1.334 127.347  0.00  0.00    +0.000 C 
ATOM     10  C   UNL     1      -6.872   0.075 127.843  0.00  0.00    +0.000 C 
ATOM     11  C   UNL     1      -7.361   1.302 127.091  0.00  0.00    +0.000 C 
ATOM     12  C   UNL     1      -7.589   1.010 125.671  0.00  0.00    +0.000 C 
ATOM     13  C   UNL     1      -7.663  -0.216 125.111  0.00  0.00    +0.000 C 
ATOM     14  C   UNL     1      -7.984  -0.134 123.662  0.00  0.00    +0.000 C 
ATOM     15  C   UNL     1      -8.308  -1.454 123.129  0.00  0.00    +0.000 C 
ATOM     16  C   UNL     1      -8.279  -2.913 123.164  0.00  0.00    +0.000 C 
ATOM     17  C   UNL     1      -8.424  -2.902 124.927  0.00  0.00    +0.000 C 
ATOM     18  C   UNL     1      -7.546  -1.648 125.804  0.00  0.00    +0.000 C 
ATOM     19  C   UNL     1      -6.093  -2.169 125.839  0.00  0.00    +0.000 C 
ENDROOT
BRANCH   4  20
ATOM     20  C   UNL     1      -5.459  -2.571 130.384  0.00  0.00    +0.000 A 
ATOM     21  C   UNL     1      -5.919  -3.864 130.724  0.00  0.00    +0.000 A 
ATOM     22  C   UNL     1      -5.263  -4.795 131.576  0.00  0.00    +0.000 A 
ATOM     23  C   UNL     1      -3.999  -4.521 132.018  0.00  0.00    +0.000 A 
ATOM     24  N   UNL     1      -3.388  -3.391 131.629  0.00  0.00    +0.000 NA
ATOM     25  C   UNL     1      -4.114  -2.462 130.849  0.00  0.00    +0.000 A 
ENDBRANCH   4  20
BRANCH  15  26
ATOM     26  O   UNL     1      -9.763  -1.495 123.345  0.00  0.00    +0.000 OA
ATOM     27  H   UNL     1     -10.333  -0.788 122.998  0.00  0.00    +0.000 HD
ENDBRANCH  15  26
TORSDOF 2
ENDMDL
MODEL 9
REMARK VINA RESULT:      -7.8      6.406      9.198
REMARK  Name = Abiraterone
REMARK  4 active torsions:
REMARK  status: ('A' for Active; 'I' for Inactive)
REMARK    1  A    between atoms: C_5  and  C_6
REMARK    2  A    between atoms: C_12  and  C_13
REMARK    3  A    between atoms: C_24  and  O_25
REMARK    4  A    between atoms: C_28  and  C_29
REMARK                            x       y       z     vdW  Elec       q    Type
REMARK                         _______ _______ _______ _____ _____    ______ ____
ROOT
ATOM      1  C   UNL     1      -3.490   4.297 129.373  0.00  0.00    +0.000 C 
ATOM      2  C   UNL     1      -4.237   4.517 128.185  0.00  0.00    +0.000 C 
ATOM      3  C   UNL     1      -4.431   5.336 129.478  0.00  0.00    +0.000 C 
ATOM      4  C   UNL     1      -3.277   5.577 130.623  0.00  0.00    +0.000 C 
ATOM      5  C   UNL     1      -3.210   6.172 129.446  0.00  0.00    +0.000 C 
ATOM      6  C   UNL     1      -1.945   6.584 128.746  0.00  0.00    +0.000 C 
ATOM      7  C   UNL     1      -4.478   7.332 130.141  0.00  0.00    +0.000 C 
ATOM      8  C   UNL     1      -5.592   6.397 131.322  0.00  0.00    +0.000 C 
ATOM      9  C   UNL     1      -6.059   4.749 131.099  0.00  0.00    +0.000 C 
ATOM     10  C   UNL     1      -4.758   3.585 130.588  0.00  0.00    +0.000 C 
ATOM     11  C   UNL     1      -5.429   2.400 129.914  0.00  0.00    +0.000 C 
ATOM     12  C   UNL     1      -6.589   1.929 130.680  0.00  0.00    +0.000 C 
ATOM     13  C   UNL     1      -7.203   2.590 131.684  0.00  0.00    +0.000 C 
ATOM     14  C   UNL     1      -8.393   1.847 132.177  0.00  0.00    +0.000 C 
ATOM     15  C   UNL     1      -9.185   2.680 133.078  0.00  0.00    +0.000 C 
ATOM     16  C   UNL     1      -9.362   3.808 133.986  0.00  0.00    +0.000 C 
ATOM     17  C   UNL     1      -8.288   4.809 132.998  0.00  0.00    +0.000 C 
ATOM     18  C   UNL     1      -6.872   4.026 132.294  0.00  0.00    +0.000 C 
ATOM     19  C   UNL     1      -5.869   3.952 133.466  0.00  0.00    +0.000 C 
ENDROOT
BRANCH   4  20
ATOM     20  C   UNL     1      -2.432   6.518 131.789  0.00  0.00    +0.000 A 
ATOM     21  C   UNL     1      -1.036   6.745 131.810  0.00  0.00    +0.000 A 
ATOM     22  C   UNL     1      -0.251   7.058 132.954  0.00  0.00    +0.000 A 
ATOM     23  C   UNL     1      -0.873   7.317 134.142  0.00  0.00    +0.000 A 
ATOM     24  N   UNL     1      -2.214   7.293 134.211  0.00  0.00    +0.000 NA
ATOM     25  C   UNL     1      -2.944   6.896 133.068  0.00  0.00    +0.000 A 
ENDBRANCH   4  20
BRANCH  15  26
ATOM     26  O   UNL     1     -10.106   3.323 132.127  0.00  0.00    +0.000 OA
ATOM     27  H   UNL     1     -10.507   4.185 132.335  0.00  0.00    +0.000 HD
ENDBRANCH  15  26
TORSDOF 2
ENDMDL
