MODEL 1
REMARK VINA RESULT:      -6.7      0.000      0.000
REMARK  Name = Abrocitinib
REMARK  8 active torsions:
REMARK  status: ('A' for Active; 'I' for Inactive)
REMARK    1  A    between atoms: C_1  and  C_2
REMARK    2  A    between atoms: C_2  and  C_3
REMARK    3  A    between atoms: C_3  and  S_4
REMARK    4  A    between atoms: S_4  and  N_7
REMARK    5  A    between atoms: N_7  and  C_8
REMARK    6  A    between atoms: C_10  and  N_12
REMARK    7  A    between atoms: N_12  and  C_13
REMARK    8  A    between atoms: N_12  and  C_14
REMARK                            x       y       z     vdW  Elec       q    Type
REMARK                         _______ _______ _______ _____ _____    ______ ____
ROOT
ATOM      1  C   UNL     1      -7.409   5.691 130.656  0.00  0.00    +0.000 C 
ATOM      2  C   UNL     1      -8.267   6.978 130.865  0.00  0.00    +0.000 C 
ATOM      3  C   UNL     1      -9.406   6.088 131.415  0.00  0.00    +0.000 C 
ATOM      4  C   UNL     1      -8.285   5.075 131.772  0.00  0.00    +0.000 C 
ENDROOT
BRANCH   1   5
ATOM      5  N   UNL     1      -7.438   4.960 129.339  0.00  0.00    +0.000 NA
ATOM      6  H   UNL     1      -8.354   4.665 128.993  0.00  0.00    +0.000 HD
BRANCH   5   7
ATOM      7  S   UNL     1      -6.082   4.269 128.577  0.00  0.00    +0.000 S 
ATOM      8  O   UNL     1      -6.132   4.660 127.194  0.00  0.00    +0.000 OA
ATOM      9  O   UNL     1      -6.045   2.880 129.000  0.00  0.00    +0.000 OA
BRANCH   7  10
ATOM     10  C   UNL     1      -4.698   5.078 129.351  0.00  0.00    +0.000 C 
BRANCH  10  12
ATOM     11  C   UNL     1      -2.592   5.116 128.129  0.00  0.00    +0.000 C 
ATOM     12  C   UNL     1      -3.347   4.452 129.290  0.00  0.00    +0.000 C 
ENDBRANCH  10  12
ENDBRANCH   7  10
ENDBRANCH   5   7
ENDBRANCH   1   5
BRANCH   3  13
ATOM     13  N   UNL     1     -10.419   5.757 130.426  0.00  0.00    +0.000 N 
ATOM     14  C   UNL     1     -11.144   4.534 130.356  0.00  0.00    +0.000 C 
BRANCH  13  15
ATOM     15  C   UNL     1     -10.720   6.571 129.338  0.00  0.00    +0.000 A 
ATOM     16  C   UNL     1     -11.612   7.653 129.430  0.00  0.00    +0.000 A 
ATOM     17  C   UNL     1     -12.486   8.219 130.410  0.00  0.00    +0.000 A 
ATOM     18  C   UNL     1     -13.011   9.379 129.883  0.00  0.00    +0.000 A 
ATOM     19  N   UNL     1     -12.485   9.536 128.627  0.00  0.00    +0.000 N 
ATOM     20  C   UNL     1     -11.676   8.477 128.321  0.00  0.00    +0.000 A 
ATOM     21  N   UNL     1     -11.045   8.305 127.152  0.00  0.00    +0.000 NA
ATOM     22  C   UNL     1     -10.298   7.189 127.155  0.00  0.00    +0.000 A 
ATOM     23  N   UNL     1     -10.086   6.341 128.170  0.00  0.00    +0.000 NA
ATOM     24  H   UNL     1     -12.649  10.308 128.000  0.00  0.00    +0.000 HD
ENDBRANCH  13  15
ENDBRANCH   3  13
TORSDOF 6
ENDMDL
MODEL 2
REMARK VINA RESULT:      -6.6      2.572      2.936
REMARK  Name = Abrocitinib
REMARK  8 active torsions:
REMARK  status: ('A' for Active; 'I' for Inactive)
REMARK    1  A    between atoms: C_1  and  C_2
REMARK    2  A    between atoms: C_2  and  C_3
REMARK    3  A    between atoms: C_3  and  S_4
REMARK    4  A    between atoms: S_4  and  N_7
REMARK    5  A    between atoms: N_7  and  C_8
REMARK    6  A    between atoms: C_10  and  N_12
REMARK    7  A    between atoms: N_12  and  C_13
REMARK    8  A    between atoms: N_12  and  C_14
REMARK                            x       y       z     vdW  Elec       q    Type
REMARK                         _______ _______ _______ _____ _____    ______ ____
ROOT
ATOM      1  C   UNL     1      -7.651   3.482 128.842  0.00  0.00    +0.000 C 
ATOM      2  C   UNL     1      -7.210   3.883 130.286  0.00  0.00    +0.000 C 
ATOM      3  C   UNL     1      -8.651   4.375 130.551  0.00  0.00    +0.000 C 
ATOM      4  C   UNL     1      -9.074   3.379 129.439  0.00  0.00    +0.000 C 
ENDROOT
BRANCH   1   5
ATOM      5  N   UNL     1      -7.500   4.453 127.701  0.00  0.00    +0.000 NA
ATOM      6  H   UNL     1      -7.542   5.449 127.932  0.00  0.00    +0.000 HD
BRANCH   5   7
ATOM      7  S   UNL     1      -7.639   4.051 126.053  0.00  0.00    +0.000 S 
ATOM      8  O   UNL     1      -8.859   4.645 125.575  0.00  0.00    +0.000 OA
ATOM      9  O   UNL     1      -7.369   2.627 125.961  0.00  0.00    +0.000 OA
BRANCH   7  10
ATOM     10  C   UNL     1      -6.261   4.884 125.293  0.00  0.00    +0.000 C 
BRANCH  10  12
ATOM     11  C   UNL     1      -5.805   4.071 123.043  0.00  0.00    +0.000 C 
ATOM     12  C   UNL     1      -5.279   4.105 124.486  0.00  0.00    +0.000 C 
ENDBRANCH  10  12
ENDBRANCH   7  10
ENDBRANCH   5   7
ENDBRANCH   1   5
BRANCH   3  13
ATOM     13  N   UNL     1      -8.823   5.808 130.369  0.00  0.00    +0.000 N 
ATOM     14  C   UNL     1      -8.048   6.824 130.996  0.00  0.00    +0.000 C 
BRANCH  13  15
ATOM     15  C   UNL     1      -9.865   6.366 129.634  0.00  0.00    +0.000 A 
ATOM     16  C   UNL     1     -11.079   6.758 130.225  0.00  0.00    +0.000 A 
ATOM     17  C   UNL     1     -11.695   6.689 131.513  0.00  0.00    +0.000 A 
ATOM     18  C   UNL     1     -12.885   7.381 131.446  0.00  0.00    +0.000 A 
ATOM     19  N   UNL     1     -13.007   7.866 130.170  0.00  0.00    +0.000 N 
ATOM     20  C   UNL     1     -11.948   7.457 129.408  0.00  0.00    +0.000 A 
ATOM     21  N   UNL     1     -11.790   7.725 128.105  0.00  0.00    +0.000 NA
ATOM     22  C   UNL     1     -10.639   7.219 127.634  0.00  0.00    +0.000 A 
ATOM     23  N   UNL     1      -9.675   6.586 128.318  0.00  0.00    +0.000 NA
ATOM     24  H   UNL     1     -13.754   8.444 129.816  0.00  0.00    +0.000 HD
ENDBRANCH  13  15
ENDBRANCH   3  13
TORSDOF 6
ENDMDL
MODEL 3
REMARK VINA RESULT:      -6.6      2.130      2.582
REMARK  Name = Abrocitinib
REMARK  8 active torsions:
REMARK  status: ('A' for Active; 'I' for Inactive)
REMARK    1  A    between atoms: C_1  and  C_2
REMARK    2  A    between atoms: C_2  and  C_3
REMARK    3  A    between atoms: C_3  and  S_4
REMARK    4  A    between atoms: S_4  and  N_7
REMARK    5  A    between atoms: N_7  and  C_8
REMARK    6  A    between atoms: C_10  and  N_12
REMARK    7  A    between atoms: N_12  and  C_13
REMARK    8  A    between atoms: N_12  and  C_14
REMARK                            x       y       z     vdW  Elec       q    Type
REMARK                         _______ _______ _______ _____ _____    ______ ____
ROOT
ATOM      1  C   UNL     1      -9.776   3.109 130.266  0.00  0.00    +0.000 C 
ATOM      2  C   UNL     1      -9.374   3.929 131.532  0.00  0.00    +0.000 C 
ATOM      3  C   UNL     1     -10.379   5.022 131.100  0.00  0.00    +0.000 C 
ATOM      4  C   UNL     1     -11.112   3.885 130.339  0.00  0.00    +0.000 C 
ENDROOT
BRANCH   1   5
ATOM      5  N   UNL     1      -9.010   3.267 128.978  0.00  0.00    +0.000 NA
ATOM      6  H   UNL     1      -9.154   4.136 128.458  0.00  0.00    +0.000 HD
BRANCH   5   7
ATOM      7  S   UNL     1      -8.232   2.005 128.144  0.00  0.00    +0.000 S 
ATOM      8  O   UNL     1      -9.037   1.704 126.990  0.00  0.00    +0.000 OA
ATOM      9  O   UNL     1      -7.890   1.010 129.145  0.00  0.00    +0.000 OA
BRANCH   7  10
ATOM     10  C   UNL     1      -6.701   2.732 127.600  0.00  0.00    +0.000 C 
BRANCH  10  12
ATOM     11  C   UNL     1      -5.639   1.003 126.253  0.00  0.00    +0.000 C 
ATOM     12  C   UNL     1      -5.477   1.888 127.497  0.00  0.00    +0.000 C 
ENDBRANCH  10  12
ENDBRANCH   7  10
ENDBRANCH   5   7
ENDBRANCH   1   5
BRANCH   3  13
ATOM     13  N   UNL     1      -9.769   6.126 130.378  0.00  0.00    +0.000 N 
ATOM     14  C   UNL     1      -8.603   6.838 130.778  0.00  0.00    +0.000 C 
BRANCH  13  15
ATOM     15  C   UNL     1     -10.333   6.703 129.244  0.00  0.00    +0.000 A 
ATOM     16  C   UNL     1     -11.366   7.655 129.318  0.00  0.00    +0.000 A 
ATOM     17  C   UNL     1     -12.182   8.249 130.330  0.00  0.00    +0.000 A 
ATOM     18  C   UNL     1     -12.947   9.227 129.731  0.00  0.00    +0.000 A 
ATOM     19  N   UNL     1     -12.621   9.247 128.400  0.00  0.00    +0.000 N 
ATOM     20  C   UNL     1     -11.703   8.271 128.127  0.00  0.00    +0.000 A 
ATOM     21  N   UNL     1     -11.211   7.998 126.911  0.00  0.00    +0.000 NA
ATOM     22  C   UNL     1     -10.304   7.009 126.957  0.00  0.00    +0.000 A 
ATOM     23  N   UNL     1      -9.830   6.374 128.038  0.00  0.00    +0.000 NA
ATOM     24  H   UNL     1     -12.984   9.877 127.703  0.00  0.00    +0.000 HD
ENDBRANCH  13  15
ENDBRANCH   3  13
TORSDOF 6
ENDMDL
MODEL 4
REMARK VINA RESULT:      -6.5      2.677      6.426
REMARK  Name = Abrocitinib
REMARK  8 active torsions:
REMARK  status: ('A' for Active; 'I' for Inactive)
REMARK    1  A    between atoms: C_1  and  C_2
REMARK    2  A    between atoms: C_2  and  C_3
REMARK    3  A    between atoms: C_3  and  S_4
REMARK    4  A    between atoms: S_4  and  N_7
REMARK    5  A    between atoms: N_7  and  C_8
REMARK    6  A    between atoms: C_10  and  N_12
REMARK    7  A    between atoms: N_12  and  C_13
REMARK    8  A    between atoms: N_12  and  C_14
REMARK                            x       y       z     vdW  Elec       q    Type
REMARK                         _______ _______ _______ _____ _____    ______ ____
ROOT
ATOM      1  C   UNL     1     -10.227   6.692 130.411  0.00  0.00    +0.000 C 
ATOM      2  C   UNL     1     -10.196   5.606 131.533  0.00  0.00    +0.000 C 
ATOM      3  C   UNL     1      -8.686   5.418 131.261  0.00  0.00    +0.000 C 
ATOM      4  C   UNL     1      -8.721   6.870 130.714  0.00  0.00    +0.000 C 
ENDROOT
BRANCH   1   5
ATOM      5  N   UNL     1     -10.558   6.313 128.991  0.00  0.00    +0.000 NA
ATOM      6  H   UNL     1     -10.337   5.356 128.704  0.00  0.00    +0.000 HD
BRANCH   5   7
ATOM      7  S   UNL     1     -10.910   7.415 127.744  0.00  0.00    +0.000 S 
ATOM      8  O   UNL     1     -10.766   6.706 126.501  0.00  0.00    +0.000 OA
ATOM      9  O   UNL     1     -10.165   8.624 128.051  0.00  0.00    +0.000 OA
BRANCH   7  10
ATOM     10  C   UNL     1     -12.631   7.799 127.987  0.00  0.00    +0.000 C 
BRANCH  10  12
ATOM     11  C   UNL     1     -12.927   9.050 130.056  0.00  0.00    +0.000 C 
ATOM     12  C   UNL     1     -13.023   9.133 128.526  0.00  0.00    +0.000 C 
ENDBRANCH  10  12
ENDBRANCH   7  10
ENDBRANCH   5   7
ENDBRANCH   1   5
BRANCH   3  13
ATOM     13  N   UNL     1      -8.385   4.300 130.381  0.00  0.00    +0.000 N 
ATOM     14  C   UNL     1      -8.684   2.933 130.642  0.00  0.00    +0.000 C 
BRANCH  13  15
ATOM     15  C   UNL     1      -7.647   4.428 129.208  0.00  0.00    +0.000 A 
ATOM     16  C   UNL     1      -6.241   4.429 129.198  0.00  0.00    +0.000 A 
ATOM     17  C   UNL     1      -5.180   4.408 130.155  0.00  0.00    +0.000 A 
ATOM     18  C   UNL     1      -3.993   4.306 129.462  0.00  0.00    +0.000 A 
ATOM     19  N   UNL     1      -4.298   4.262 128.127  0.00  0.00    +0.000 N 
ATOM     20  C   UNL     1      -5.648   4.383 127.950  0.00  0.00    +0.000 A 
ATOM     21  N   UNL     1      -6.266   4.421 126.762  0.00  0.00    +0.000 NA
ATOM     22  C   UNL     1      -7.598   4.514 126.902  0.00  0.00    +0.000 A 
ATOM     23  N   UNL     1      -8.311   4.497 128.037  0.00  0.00    +0.000 NA
ATOM     24  H   UNL     1      -3.646   4.152 127.366  0.00  0.00    +0.000 HD
ENDBRANCH  13  15
ENDBRANCH   3  13
TORSDOF 6
ENDMDL
MODEL 5
REMARK VINA RESULT:      -6.5      1.667      2.068
REMARK  Name = Abrocitinib
REMARK  8 active torsions:
REMARK  status: ('A' for Active; 'I' for Inactive)
REMARK    1  A    between atoms: C_1  and  C_2
REMARK    2  A    between atoms: C_2  and  C_3
REMARK    3  A    between atoms: C_3  and  S_4
REMARK    4  A    between atoms: S_4  and  N_7
REMARK    5  A    between atoms: N_7  and  C_8
REMARK    6  A    between atoms: C_10  and  N_12
REMARK    7  A    between atoms: N_12  and  C_13
REMARK    8  A    between atoms: N_12  and  C_14
REMARK                            x       y       z     vdW  Elec       q    Type
REMARK                         _______ _______ _______ _____ _____    ______ ____
ROOT
ATOM      1  C   UNL     1      -7.536   5.648 130.559  0.00  0.00    +0.000 C 
ATOM      2  C   UNL     1      -8.404   6.901 130.898  0.00  0.00    +0.000 C 
ATOM      3  C   UNL     1      -9.522   5.952 131.388  0.00  0.00    +0.000 C 
ATOM      4  C   UNL     1      -8.384   4.925 131.632  0.00  0.00    +0.000 C 
ENDROOT
BRANCH   1   5
ATOM      5  N   UNL     1      -7.583   5.036 129.183  0.00  0.00    +0.000 NA
ATOM      6  H   UNL     1      -7.945   5.625 128.427  0.00  0.00    +0.000 HD
BRANCH   5   7
ATOM      7  S   UNL     1      -7.444   3.374 128.848  0.00  0.00    +0.000 S 
ATOM      8  O   UNL     1      -8.780   2.852 128.743  0.00  0.00    +0.000 OA
ATOM      9  O   UNL     1      -6.468   2.853 129.789  0.00  0.00    +0.000 OA
BRANCH   7  10
ATOM     10  C   UNL     1      -6.683   3.324 127.240  0.00  0.00    +0.000 C 
BRANCH  10  12
ATOM     11  C   UNL     1      -8.025   4.524 125.599  0.00  0.00    +0.000 C 
ATOM     12  C   UNL     1      -7.528   3.135 126.026  0.00  0.00    +0.000 C 
ENDBRANCH  10  12
ENDBRANCH   7  10
ENDBRANCH   5   7
ENDBRANCH   1   5
BRANCH   3  13
ATOM     13  N   UNL     1     -10.551   5.697 130.392  0.00  0.00    +0.000 N 
ATOM     14  C   UNL     1     -11.341   4.516 130.296  0.00  0.00    +0.000 C 
BRANCH  13  15
ATOM     15  C   UNL     1     -10.807   6.550 129.323  0.00  0.00    +0.000 A 
ATOM     16  C   UNL     1     -11.665   7.658 129.431  0.00  0.00    +0.000 A 
ATOM     17  C   UNL     1     -12.536   8.226 130.412  0.00  0.00    +0.000 A 
ATOM     18  C   UNL     1     -13.014   9.416 129.910  0.00  0.00    +0.000 A 
ATOM     19  N   UNL     1     -12.463   9.590 128.667  0.00  0.00    +0.000 N 
ATOM     20  C   UNL     1     -11.685   8.513 128.344  0.00  0.00    +0.000 A 
ATOM     21  N   UNL     1     -11.040   8.352 127.181  0.00  0.00    +0.000 NA
ATOM     22  C   UNL     1     -10.330   7.213 127.164  0.00  0.00    +0.000 A 
ATOM     23  N   UNL     1     -10.163   6.331 128.159  0.00  0.00    +0.000 NA
ATOM     24  H   UNL     1     -12.591  10.384 128.059  0.00  0.00    +0.000 HD
ENDBRANCH  13  15
ENDBRANCH   3  13
TORSDOF 6
ENDMDL
MODEL 6
REMARK VINA RESULT:      -6.4      2.457      3.233
REMARK  Name = Abrocitinib
REMARK  8 active torsions:
REMARK  status: ('A' for Active; 'I' for Inactive)
REMARK    1  A    between atoms: C_1  and  C_2
REMARK    2  A    between atoms: C_2  and  C_3
REMARK    3  A    between atoms: C_3  and  S_4
REMARK    4  A    between atoms: S_4  and  N_7
REMARK    5  A    between atoms: N_7  and  C_8
REMARK    6  A    between atoms: C_10  and  N_12
REMARK    7  A    between atoms: N_12  and  C_13
REMARK    8  A    between atoms: N_12  and  C_14
REMARK                            x       y       z     vdW  Elec       q    Type
REMARK                         _______ _______ _______ _____ _____    ______ ____
ROOT
ATOM      1  C   UNL     1      -8.173   3.641 129.169  0.00  0.00    +0.000 C 
ATOM      2  C   UNL     1      -7.644   3.888 130.618  0.00  0.00    +0.000 C 
ATOM      3  C   UNL     1      -9.041   4.433 130.996  0.00  0.00    +0.000 C 
ATOM      4  C   UNL     1      -9.571   3.564 129.825  0.00  0.00    +0.000 C 
ENDROOT
BRANCH   1   5
ATOM      5  N   UNL     1      -8.017   4.701 128.109  0.00  0.00    +0.000 NA
ATOM      6  H   UNL     1      -8.164   5.671 128.399  0.00  0.00    +0.000 HD
BRANCH   5   7
ATOM      7  S   UNL     1      -7.986   4.408 126.433  0.00  0.00    +0.000 S 
ATOM      8  O   UNL     1      -8.693   5.490 125.803  0.00  0.00    +0.000 OA
ATOM      9  O   UNL     1      -8.364   3.016 126.260  0.00  0.00    +0.000 OA
BRANCH   7  10
ATOM     10  C   UNL     1      -6.261   4.527 126.010  0.00  0.00    +0.000 C 
BRANCH  10  12
ATOM     11  C   UNL     1      -5.826   4.255 123.629  0.00  0.00    +0.000 C 
ATOM     12  C   UNL     1      -5.679   3.591 125.006  0.00  0.00    +0.000 C 
ENDBRANCH  10  12
ENDBRANCH   7  10
ENDBRANCH   5   7
ENDBRANCH   1   5
BRANCH   3  13
ATOM     13  N   UNL     1      -9.136   5.883 130.947  0.00  0.00    +0.000 N 
ATOM     14  C   UNL     1      -8.055   6.793 131.124  0.00  0.00    +0.000 C 
BRANCH  13  15
ATOM     15  C   UNL     1     -10.343   6.567 130.836  0.00  0.00    +0.000 A 
ATOM     16  C   UNL     1     -10.689   7.303 129.689  0.00  0.00    +0.000 A 
ATOM     17  C   UNL     1     -10.077   7.681 128.454  0.00  0.00    +0.000 A 
ATOM     18  C   UNL     1     -11.028   8.329 127.696  0.00  0.00    +0.000 A 
ATOM     19  N   UNL     1     -12.189   8.352 128.424  0.00  0.00    +0.000 N 
ATOM     20  C   UNL     1     -11.987   7.779 129.649  0.00  0.00    +0.000 A 
ATOM     21  N   UNL     1     -12.911   7.682 130.614  0.00  0.00    +0.000 NA
ATOM     22  C   UNL     1     -12.432   7.043 131.693  0.00  0.00    +0.000 A 
ATOM     23  N   UNL     1     -11.230   6.471 131.847  0.00  0.00    +0.000 NA
ATOM     24  H   UNL     1     -13.077   8.725 128.126  0.00  0.00    +0.000 HD
ENDBRANCH  13  15
ENDBRANCH   3  13
TORSDOF 6
ENDMDL
MODEL 7
REMARK VINA RESULT:      -6.4      3.351      6.806
REMARK  Name = Abrocitinib
REMARK  8 active torsions:
REMARK  status: ('A' for Active; 'I' for Inactive)
REMARK    1  A    between atoms: C_1  and  C_2
REMARK    2  A    between atoms: C_2  and  C_3
REMARK    3  A    between atoms: C_3  and  S_4
REMARK    4  A    between atoms: S_4  and  N_7
REMARK    5  A    between atoms: N_7  and  C_8
REMARK    6  A    between atoms: C_10  and  N_12
REMARK    7  A    between atoms: N_12  and  C_13
REMARK    8  A    between atoms: N_12  and  C_14
REMARK                            x       y       z     vdW  Elec       q    Type
REMARK                         _______ _______ _______ _____ _____    ______ ____
ROOT
ATOM      1  C   UNL     1     -11.269   5.792 129.910  0.00  0.00    +0.000 C 
ATOM      2  C   UNL     1     -11.161   4.362 130.528  0.00  0.00    +0.000 C 
ATOM      3  C   UNL     1      -9.955   4.852 131.362  0.00  0.00    +0.000 C 
ATOM      4  C   UNL     1     -10.567   6.269 131.203  0.00  0.00    +0.000 C 
ENDROOT
BRANCH   1   5
ATOM      5  N   UNL     1     -10.551   6.126 128.628  0.00  0.00    +0.000 NA
ATOM      6  H   UNL     1      -9.631   5.700 128.488  0.00  0.00    +0.000 HD
BRANCH   5   7
ATOM      7  S   UNL     1     -10.958   7.410 127.588  0.00  0.00    +0.000 S 
ATOM      8  O   UNL     1     -10.905   6.897 126.245  0.00  0.00    +0.000 OA
ATOM      9  O   UNL     1     -10.171   8.549 128.026  0.00  0.00    +0.000 OA
BRANCH   7  10
ATOM     10  C   UNL     1     -12.653   7.770 127.997  0.00  0.00    +0.000 C 
BRANCH  10  12
ATOM     11  C   UNL     1     -12.886   9.071 130.043  0.00  0.00    +0.000 C 
ATOM     12  C   UNL     1     -13.019   9.120 128.514  0.00  0.00    +0.000 C 
ENDBRANCH  10  12
ENDBRANCH   7  10
ENDBRANCH   5   7
ENDBRANCH   1   5
BRANCH   3  13
ATOM     13  N   UNL     1      -8.666   4.529 130.772  0.00  0.00    +0.000 N 
ATOM     14  C   UNL     1      -7.526   5.383 130.746  0.00  0.00    +0.000 C 
BRANCH  13  15
ATOM     15  C   UNL     1      -8.427   3.367 130.045  0.00  0.00    +0.000 A 
ATOM     16  C   UNL     1      -8.287   2.109 130.658  0.00  0.00    +0.000 A 
ATOM     17  C   UNL     1      -8.234   1.584 131.987  0.00  0.00    +0.000 A 
ATOM     18  C   UNL     1      -8.195   0.210 131.893  0.00  0.00    +0.000 A 
ATOM     19  N   UNL     1      -8.226  -0.113 130.561  0.00  0.00    +0.000 N 
ATOM     20  C   UNL     1      -8.232   1.025 129.803  0.00  0.00    +0.000 A 
ATOM     21  N   UNL     1      -8.217   1.055 128.463  0.00  0.00    +0.000 NA
ATOM     22  C   UNL     1      -8.261   2.314 127.998  0.00  0.00    +0.000 A 
ATOM     23  N   UNL     1      -8.385   3.448 128.700  0.00  0.00    +0.000 NA
ATOM     24  H   UNL     1      -8.245  -1.041 130.169  0.00  0.00    +0.000 HD
ENDBRANCH  13  15
ENDBRANCH   3  13
TORSDOF 6
ENDMDL
MODEL 8
REMARK VINA RESULT:      -6.2      7.703      9.693
REMARK  Name = Abrocitinib
REMARK  8 active torsions:
REMARK  status: ('A' for Active; 'I' for Inactive)
REMARK    1  A    between atoms: C_1  and  C_2
REMARK    2  A    between atoms: C_2  and  C_3
REMARK    3  A    between atoms: C_3  and  S_4
REMARK    4  A    between atoms: S_4  and  N_7
REMARK    5  A    between atoms: N_7  and  C_8
REMARK    6  A    between atoms: C_10  and  N_12
REMARK    7  A    between atoms: N_12  and  C_13
REMARK    8  A    between atoms: N_12  and  C_14
REMARK                            x       y       z     vdW  Elec       q    Type
REMARK                         _______ _______ _______ _____ _____    ______ ____
ROOT
ATOM      1  C   UNL     1      -8.954  -2.075 123.629  0.00  0.00    +0.000 C 
ATOM      2  C   UNL     1      -7.816  -3.142 123.694  0.00  0.00    +0.000 C 
ATOM      3  C   UNL     1      -7.991  -3.183 125.230  0.00  0.00    +0.000 C 
ATOM      4  C   UNL     1      -9.437  -2.688 124.964  0.00  0.00    +0.000 C 
ENDROOT
BRANCH   1   5
ATOM      5  N   UNL     1      -8.625  -0.605 123.679  0.00  0.00    +0.000 NA
ATOM      6  H   UNL     1      -7.699  -0.350 124.030  0.00  0.00    +0.000 HD
BRANCH   5   7
ATOM      7  S   UNL     1      -9.763   0.654 123.559  0.00  0.00    +0.000 S 
ATOM      8  O   UNL     1     -10.320   0.845 124.871  0.00  0.00    +0.000 OA
ATOM      9  O   UNL     1     -10.578   0.352 122.395  0.00  0.00    +0.000 OA
BRANCH   7  10
ATOM     10  C   UNL     1      -8.781   2.079 123.140  0.00  0.00    +0.000 C 
BRANCH  10  12
ATOM     11  C   UNL     1      -6.711   3.345 123.341  0.00  0.00    +0.000 C 
ATOM     12  C   UNL     1      -7.298   1.956 123.054  0.00  0.00    +0.000 C 
ENDBRANCH  10  12
ENDBRANCH   7  10
ENDBRANCH   5   7
ENDBRANCH   1   5
BRANCH   3  13
ATOM     13  N   UNL     1      -7.041  -2.349 125.949  0.00  0.00    +0.000 N 
ATOM     14  C   UNL     1      -5.631  -2.336 125.752  0.00  0.00    +0.000 C 
BRANCH  13  15
ATOM     15  C   UNL     1      -7.397  -1.533 127.018  0.00  0.00    +0.000 A 
ATOM     16  C   UNL     1      -7.538  -2.024 128.328  0.00  0.00    +0.000 A 
ATOM     17  C   UNL     1      -7.493  -3.291 128.989  0.00  0.00    +0.000 A 
ATOM     18  C   UNL     1      -7.603  -3.061 130.343  0.00  0.00    +0.000 A 
ATOM     19  N   UNL     1      -7.708  -1.707 130.524  0.00  0.00    +0.000 N 
ATOM     20  C   UNL     1      -7.719  -1.071 129.313  0.00  0.00    +0.000 A 
ATOM     21  N   UNL     1      -7.854   0.250 129.140  0.00  0.00    +0.000 NA
ATOM     22  C   UNL     1      -7.796   0.586 127.842  0.00  0.00    +0.000 A 
ATOM     23  N   UNL     1      -7.557  -0.213 126.793  0.00  0.00    +0.000 NA
ATOM     24  H   UNL     1      -7.766  -1.221 131.405  0.00  0.00    +0.000 HD
ENDBRANCH  13  15
ENDBRANCH   3  13
TORSDOF 6
ENDMDL
MODEL 9
REMARK VINA RESULT:      -6.2      1.207      2.096
REMARK  Name = Abrocitinib
REMARK  8 active torsions:
REMARK  status: ('A' for Active; 'I' for Inactive)
REMARK    1  A    between atoms: C_1  and  C_2
REMARK    2  A    between atoms: C_2  and  C_3
REMARK    3  A    between atoms: C_3  and  S_4
REMARK    4  A    between atoms: S_4  and  N_7
REMARK    5  A    between atoms: N_7  and  C_8
REMARK    6  A    between atoms: C_10  and  N_12
REMARK    7  A    between atoms: N_12  and  C_13
REMARK    8  A    between atoms: N_12  and  C_14
REMARK                            x       y       z     vdW  Elec       q    Type
REMARK                         _______ _______ _______ _____ _____    ______ ____
ROOT
ATOM      1  C   UNL     1      -7.207   5.446 130.806  0.00  0.00    +0.000 C 
ATOM      2  C   UNL     1      -7.999   6.590 131.516  0.00  0.00    +0.000 C 
ATOM      3  C   UNL     1      -9.013   5.533 132.010  0.00  0.00    +0.000 C 
ATOM      4  C   UNL     1      -7.852   4.515 131.858  0.00  0.00    +0.000 C 
ENDROOT
BRANCH   1   5
ATOM      5  N   UNL     1      -7.498   5.095 129.370  0.00  0.00    +0.000 NA
ATOM      6  H   UNL     1      -8.437   5.308 129.023  0.00  0.00    +0.000 HD
BRANCH   5   7
ATOM      7  S   UNL     1      -6.551   4.059 128.408  0.00  0.00    +0.000 S 
ATOM      8  O   UNL     1      -6.347   4.724 127.149  0.00  0.00    +0.000 OA
ATOM      9  O   UNL     1      -7.158   2.744 128.512  0.00  0.00    +0.000 OA
BRANCH   7  10
ATOM     10  C   UNL     1      -4.997   3.977 129.271  0.00  0.00    +0.000 C 
BRANCH  10  12
ATOM     11  C   UNL     1      -2.949   3.676 127.988  0.00  0.00    +0.000 C 
ATOM     12  C   UNL     1      -3.981   2.961 128.871  0.00  0.00    +0.000 C 
ENDBRANCH  10  12
ENDBRANCH   7  10
ENDBRANCH   5   7
ENDBRANCH   1   5
BRANCH   3  13
ATOM     13  N   UNL     1     -10.203   5.432 131.180  0.00  0.00    +0.000 N 
ATOM     14  C   UNL     1     -10.579   4.302 130.399  0.00  0.00    +0.000 C 
BRANCH  13  15
ATOM     15  C   UNL     1     -11.071   6.496 130.956  0.00  0.00    +0.000 A 
ATOM     16  C   UNL     1     -10.970   7.328 129.826  0.00  0.00    +0.000 A 
ATOM     17  C   UNL     1     -10.088   7.491 128.713  0.00  0.00    +0.000 A 
ATOM     18  C   UNL     1     -10.635   8.443 127.881  0.00  0.00    +0.000 A 
ATOM     19  N   UNL     1     -11.813   8.857 128.448  0.00  0.00    +0.000 N 
ATOM     20  C   UNL     1     -12.004   8.227 129.646  0.00  0.00    +0.000 A 
ATOM     21  N   UNL     1     -13.038   8.442 130.471  0.00  0.00    +0.000 NA
ATOM     22  C   UNL     1     -12.974   7.657 131.557  0.00  0.00    +0.000 A 
ATOM     23  N   UNL     1     -12.078   6.698 131.830  0.00  0.00    +0.000 NA
ATOM     24  H   UNL     1     -12.464   9.522 128.061  0.00  0.00    +0.000 HD
ENDBRANCH  13  15
ENDBRANCH   3  13
TORSDOF 6
ENDMDL
