MODEL 1
REMARK VINA RESULT:      -8.5      0.000      0.000
REMARK  Name = Acalabrutinib
REMARK  6 active torsions:
REMARK  status: ('A' for Active; 'I' for Inactive)
REMARK    1  A    between atoms: C_1  and  C_2
REMARK    2  A    between atoms: C_3  and  C_4
REMARK    3  A    between atoms: C_10  and  C_11
REMARK    4  A    between atoms: C_13  and  C_21
REMARK    5  A    between atoms: C_24  and  C_27
REMARK    6  A    between atoms: N_29  and  C_30
REMARK                            x       y       z     vdW  Elec       q    Type
REMARK                         _______ _______ _______ _____ _____    ______ ____
ROOT
ATOM      1  C   UNL     1      -6.992   0.565 126.708  0.00  0.00    +0.000 A 
ATOM      2  N   UNL     1      -6.036   1.122 127.443  0.00  0.00    +0.000 NA
ATOM      3  C   UNL     1      -6.107   2.479 127.209  0.00  0.00    +0.000 A 
ATOM      4  C   UNL     1      -7.051   2.744 126.246  0.00  0.00    +0.000 A 
ATOM      5  N   UNL     1      -7.603   1.527 125.919  0.00  0.00    +0.000 N 
ATOM      6  C   UNL     1      -8.566   1.478 124.929  0.00  0.00    +0.000 A 
ATOM      7  C   UNL     1      -8.982   2.614 124.359  0.00  0.00    +0.000 A 
ATOM      8  N   UNL     1      -8.463   3.852 124.661  0.00  0.00    +0.000 NA
ATOM      9  C   UNL     1      -7.512   3.929 125.563  0.00  0.00    +0.000 A 
ATOM     10  N   UNL     1      -6.988   5.158 125.800  0.00  0.00    +0.000 N 
ATOM     11  H   UNL     1      -7.365   5.953 125.310  0.00  0.00    +0.000 HD
ATOM     12  H   UNL     1      -6.228   5.296 126.446  0.00  0.00    +0.000 HD
ENDROOT
BRANCH   1  19
ATOM     13  C   UNL     1      -5.828  -1.782 124.940  0.00  0.00    +0.000 C 
ATOM     14  O   UNL     1      -5.885  -0.823 124.188  0.00  0.00    +0.000 OA
ATOM     15  N   UNL     1      -6.250  -1.763 126.252  0.00  0.00    +0.000 N 
ATOM     16  C   UNL     1      -5.754  -2.619 127.308  0.00  0.00    +0.000 C 
ATOM     17  C   UNL     1      -6.932  -2.763 128.247  0.00  0.00    +0.000 C 
ATOM     18  C   UNL     1      -7.677  -1.428 128.128  0.00  0.00    +0.000 C 
ATOM     19  C   UNL     1      -7.341  -0.902 126.718  0.00  0.00    +0.000 C 
BRANCH  13  22
ATOM     20  C   UNL     1      -4.284  -5.241 123.321  0.00  0.00    +0.000 C 
ATOM     21  C   UNL     1      -4.905  -4.051 123.926  0.00  0.00    +0.000 C 
ATOM     22  C   UNL     1      -5.377  -3.059 124.394  0.00  0.00    +0.000 C 
ENDBRANCH  13  22
ENDBRANCH   1  19
BRANCH   3  23
ATOM     23  C   UNL     1      -5.261   3.447 127.886  0.00  0.00    +0.000 A 
ATOM     24  C   UNL     1      -5.702   4.135 129.019  0.00  0.00    +0.000 A 
ATOM     25  C   UNL     1      -4.800   4.910 129.767  0.00  0.00    +0.000 A 
ATOM     26  C   UNL     1      -3.529   5.242 129.259  0.00  0.00    +0.000 A 
ATOM     27  C   UNL     1      -3.141   4.645 128.056  0.00  0.00    +0.000 A 
ATOM     28  C   UNL     1      -3.965   3.692 127.427  0.00  0.00    +0.000 A 
BRANCH  26  29
ATOM     29  C   UNL     1      -2.678   6.248 130.006  0.00  0.00    +0.000 C 
ATOM     30  O   UNL     1      -1.776   6.791 129.371  0.00  0.00    +0.000 OA
ATOM     31  N   UNL     1      -2.883   6.409 131.381  0.00  0.00    +0.000 N 
ATOM     32  H   UNL     1      -3.421   5.731 131.891  0.00  0.00    +0.000 HD
BRANCH  31  33
ATOM     33  C   UNL     1      -2.065   7.268 132.151  0.00  0.00    +0.000 A 
ATOM     34  C   UNL     1      -0.854   6.794 132.651  0.00  0.00    +0.000 A 
ATOM     35  C   UNL     1       0.073   7.725 133.132  0.00  0.00    +0.000 A 
ATOM     36  C   UNL     1      -0.348   9.012 133.419  0.00  0.00    +0.000 A 
ATOM     37  C   UNL     1      -1.638   9.350 133.063  0.00  0.00    +0.000 A 
ATOM     38  N   UNL     1      -2.466   8.534 132.372  0.00  0.00    +0.000 NA
ENDBRANCH  31  33
ENDBRANCH  26  29
ENDBRANCH   3  23
TORSDOF 5
ENDMDL
MODEL 2
REMARK VINA RESULT:      -8.3      6.901     11.910
REMARK  Name = Acalabrutinib
REMARK  6 active torsions:
REMARK  status: ('A' for Active; 'I' for Inactive)
REMARK    1  A    between atoms: C_1  and  C_2
REMARK    2  A    between atoms: C_3  and  C_4
REMARK    3  A    between atoms: C_10  and  C_11
REMARK    4  A    between atoms: C_13  and  C_21
REMARK    5  A    between atoms: C_24  and  C_27
REMARK    6  A    between atoms: N_29  and  C_30
REMARK                            x       y       z     vdW  Elec       q    Type
REMARK                         _______ _______ _______ _____ _____    ______ ____
ROOT
ATOM      1  C   UNL     1      -6.437  -4.352 134.813  0.00  0.00    +0.000 A 
ATOM      2  N   UNL     1      -7.108  -4.016 133.716  0.00  0.00    +0.000 NA
ATOM      3  C   UNL     1      -6.168  -3.594 132.800  0.00  0.00    +0.000 A 
ATOM      4  C   UNL     1      -4.920  -3.577 133.376  0.00  0.00    +0.000 A 
ATOM      5  N   UNL     1      -5.094  -4.046 134.657  0.00  0.00    +0.000 N 
ATOM      6  C   UNL     1      -4.000  -4.100 135.501  0.00  0.00    +0.000 A 
ATOM      7  C   UNL     1      -2.794  -3.756 135.036  0.00  0.00    +0.000 A 
ATOM      8  N   UNL     1      -2.575  -3.289 133.760  0.00  0.00    +0.000 NA
ATOM      9  C   UNL     1      -3.601  -3.180 132.948  0.00  0.00    +0.000 A 
ATOM     10  N   UNL     1      -3.356  -2.669 131.715  0.00  0.00    +0.000 N 
ATOM     11  H   UNL     1      -2.411  -2.431 131.462  0.00  0.00    +0.000 HD
ATOM     12  H   UNL     1      -4.094  -2.515 131.048  0.00  0.00    +0.000 HD
ENDROOT
BRANCH   1  19
ATOM     13  C   UNL     1      -8.476  -3.072 136.860  0.00  0.00    +0.000 C 
ATOM     14  O   UNL     1      -7.728  -2.158 136.552  0.00  0.00    +0.000 OA
ATOM     15  N   UNL     1      -8.350  -4.365 136.399  0.00  0.00    +0.000 N 
ATOM     16  C   UNL     1      -9.427  -5.323 136.277  0.00  0.00    +0.000 C 
ATOM     17  C   UNL     1      -8.751  -6.662 136.473  0.00  0.00    +0.000 C 
ATOM     18  C   UNL     1      -7.342  -6.463 135.899  0.00  0.00    +0.000 C 
ATOM     19  C   UNL     1      -7.055  -4.955 136.048  0.00  0.00    +0.000 C 
BRANCH  13  22
ATOM     20  C   UNL     1     -11.593  -2.502 139.492  0.00  0.00    +0.000 C 
ATOM     21  C   UNL     1     -10.428  -2.662 138.607  0.00  0.00    +0.000 C 
ATOM     22  C   UNL     1      -9.512  -2.807 137.855  0.00  0.00    +0.000 C 
ENDBRANCH  13  22
ENDBRANCH   1  19
BRANCH   3  23
ATOM     23  C   UNL     1      -6.503  -3.202 131.442  0.00  0.00    +0.000 A 
ATOM     24  C   UNL     1      -6.375  -4.093 130.374  0.00  0.00    +0.000 A 
ATOM     25  C   UNL     1      -6.892  -3.756 129.111  0.00  0.00    +0.000 A 
ATOM     26  C   UNL     1      -7.289  -2.437 128.814  0.00  0.00    +0.000 A 
ATOM     27  C   UNL     1      -7.296  -1.515 129.864  0.00  0.00    +0.000 A 
ATOM     28  C   UNL     1      -6.990  -1.920 131.178  0.00  0.00    +0.000 A 
BRANCH  26  29
ATOM     29  C   UNL     1      -7.640  -2.079 127.385  0.00  0.00    +0.000 C 
ATOM     30  O   UNL     1      -8.324  -1.071 127.217  0.00  0.00    +0.000 OA
ATOM     31  N   UNL     1      -7.278  -2.966 126.364  0.00  0.00    +0.000 N 
ATOM     32  H   UNL     1      -6.991  -3.902 126.591  0.00  0.00    +0.000 HD
BRANCH  31  33
ATOM     33  C   UNL     1      -7.651  -2.732 125.020  0.00  0.00    +0.000 A 
ATOM     34  C   UNL     1      -8.797  -3.340 124.512  0.00  0.00    +0.000 A 
ATOM     35  C   UNL     1      -9.320  -2.864 123.305  0.00  0.00    +0.000 A 
ATOM     36  C   UNL     1      -8.529  -2.069 122.493  0.00  0.00    +0.000 A 
ATOM     37  C   UNL     1      -7.311  -1.661 122.999  0.00  0.00    +0.000 A 
ATOM     38  N   UNL     1      -6.900  -1.911 124.262  0.00  0.00    +0.000 NA
ENDBRANCH  31  33
ENDBRANCH  26  29
ENDBRANCH   3  23
TORSDOF 5
ENDMDL
MODEL 3
REMARK VINA RESULT:      -8.2      4.977      7.338
REMARK  Name = Acalabrutinib
REMARK  6 active torsions:
REMARK  status: ('A' for Active; 'I' for Inactive)
REMARK    1  A    between atoms: C_1  and  C_2
REMARK    2  A    between atoms: C_3  and  C_4
REMARK    3  A    between atoms: C_10  and  C_11
REMARK    4  A    between atoms: C_13  and  C_21
REMARK    5  A    between atoms: C_24  and  C_27
REMARK    6  A    between atoms: N_29  and  C_30
REMARK                            x       y       z     vdW  Elec       q    Type
REMARK                         _______ _______ _______ _____ _____    ______ ____
ROOT
ATOM      1  C   UNL     1      -5.869   4.805 130.808  0.00  0.00    +0.000 A 
ATOM      2  N   UNL     1      -5.095   5.397 131.712  0.00  0.00    +0.000 NA
ATOM      3  C   UNL     1      -4.036   5.943 131.018  0.00  0.00    +0.000 A 
ATOM      4  C   UNL     1      -4.111   5.598 129.690  0.00  0.00    +0.000 A 
ATOM      5  N   UNL     1      -5.268   4.865 129.561  0.00  0.00    +0.000 N 
ATOM      6  C   UNL     1      -5.587   4.339 128.323  0.00  0.00    +0.000 A 
ATOM      7  C   UNL     1      -4.801   4.604 127.273  0.00  0.00    +0.000 A 
ATOM      8  N   UNL     1      -3.641   5.338 127.357  0.00  0.00    +0.000 NA
ATOM      9  C   UNL     1      -3.283   5.813 128.528  0.00  0.00    +0.000 A 
ATOM     10  N   UNL     1      -2.108   6.488 128.585  0.00  0.00    +0.000 N 
ATOM     11  H   UNL     1      -1.583   6.629 127.737  0.00  0.00    +0.000 HD
ATOM     12  H   UNL     1      -1.743   6.848 129.451  0.00  0.00    +0.000 HD
ENDROOT
BRANCH   1  19
ATOM     13  C   UNL     1      -8.747   6.098 130.991  0.00  0.00    +0.000 C 
ATOM     14  O   UNL     1      -7.998   6.932 131.474  0.00  0.00    +0.000 OA
ATOM     15  N   UNL     1      -8.338   4.863 130.534  0.00  0.00    +0.000 N 
ATOM     16  C   UNL     1      -9.005   4.081 129.516  0.00  0.00    +0.000 C 
ATOM     17  C   UNL     1      -8.689   2.648 129.889  0.00  0.00    +0.000 C 
ATOM     18  C   UNL     1      -7.298   2.722 130.531  0.00  0.00    +0.000 C 
ATOM     19  C   UNL     1      -7.193   4.149 131.106  0.00  0.00    +0.000 C 
BRANCH  13  22
ATOM     20  C   UNL     1     -12.715   7.202 130.999  0.00  0.00    +0.000 C 
ATOM     21  C   UNL     1     -11.323   6.725 130.982  0.00  0.00    +0.000 C 
ATOM     22  C   UNL     1     -10.179   6.381 130.984  0.00  0.00    +0.000 C 
ENDBRANCH  13  22
ENDBRANCH   1  19
BRANCH   3  23
ATOM     23  C   UNL     1      -2.997   6.736 131.652  0.00  0.00    +0.000 A 
ATOM     24  C   UNL     1      -3.151   8.109 131.858  0.00  0.00    +0.000 A 
ATOM     25  C   UNL     1      -2.224   8.811 132.648  0.00  0.00    +0.000 A 
ATOM     26  C   UNL     1      -0.992   8.233 133.011  0.00  0.00    +0.000 A 
ATOM     27  C   UNL     1      -0.792   6.888 132.690  0.00  0.00    +0.000 A 
ATOM     28  C   UNL     1      -1.820   6.130 132.097  0.00  0.00    +0.000 A 
BRANCH  26  29
ATOM     29  C   UNL     1       0.057   9.098 133.680  0.00  0.00    +0.000 C 
ATOM     30  O   UNL     1       0.773   8.553 134.518  0.00  0.00    +0.000 OA
ATOM     31  N   UNL     1       0.070  10.470 133.402  0.00  0.00    +0.000 N 
ATOM     32  H   UNL     1      -0.718  10.898 132.948  0.00  0.00    +0.000 HD
BRANCH  31  33
ATOM     33  C   UNL     1       0.967  11.345 134.059  0.00  0.00    +0.000 A 
ATOM     34  C   UNL     1       2.108  11.784 133.390  0.00  0.00    +0.000 A 
ATOM     35  C   UNL     1       2.808  12.873 133.921  0.00  0.00    +0.000 A 
ATOM     36  C   UNL     1       2.572  13.254 135.231  0.00  0.00    +0.000 A 
ATOM     37  C   UNL     1       1.536  12.629 135.896  0.00  0.00    +0.000 A 
ATOM     38  N   UNL     1       0.691  11.749 135.312  0.00  0.00    +0.000 NA
ENDBRANCH  31  33
ENDBRANCH  26  29
ENDBRANCH   3  23
TORSDOF 5
ENDMDL
MODEL 4
REMARK VINA RESULT:      -8.1      6.578      9.418
REMARK  Name = Acalabrutinib
REMARK  6 active torsions:
REMARK  status: ('A' for Active; 'I' for Inactive)
REMARK    1  A    between atoms: C_1  and  C_2
REMARK    2  A    between atoms: C_3  and  C_4
REMARK    3  A    between atoms: C_10  and  C_11
REMARK    4  A    between atoms: C_13  and  C_21
REMARK    5  A    between atoms: C_24  and  C_27
REMARK    6  A    between atoms: N_29  and  C_30
REMARK                            x       y       z     vdW  Elec       q    Type
REMARK                         _______ _______ _______ _____ _____    ______ ____
ROOT
ATOM      1  C   UNL     1      -5.947  -0.505 134.001  0.00  0.00    +0.000 A 
ATOM      2  N   UNL     1      -6.894   0.147 133.334  0.00  0.00    +0.000 NA
ATOM      3  C   UNL     1      -6.761   1.477 133.672  0.00  0.00    +0.000 A 
ATOM      4  C   UNL     1      -5.788   1.627 134.631  0.00  0.00    +0.000 A 
ATOM      5  N   UNL     1      -5.281   0.367 134.848  0.00  0.00    +0.000 N 
ATOM      6  C   UNL     1      -4.301   0.200 135.809  0.00  0.00    +0.000 A 
ATOM      7  C   UNL     1      -3.828   1.270 136.457  0.00  0.00    +0.000 A 
ATOM      8  N   UNL     1      -4.300   2.548 136.265  0.00  0.00    +0.000 NA
ATOM      9  C   UNL     1      -5.265   2.734 135.394  0.00  0.00    +0.000 A 
ATOM     10  N   UNL     1      -5.742   3.998 135.267  0.00  0.00    +0.000 N 
ATOM     11  H   UNL     1      -5.322   4.736 135.808  0.00  0.00    +0.000 HD
ATOM     12  H   UNL     1      -6.508   4.217 134.652  0.00  0.00    +0.000 HD
ENDROOT
BRANCH   1  19
ATOM     13  C   UNL     1      -7.499  -2.966 135.235  0.00  0.00    +0.000 C 
ATOM     14  O   UNL     1      -7.539  -2.106 136.100  0.00  0.00    +0.000 OA
ATOM     15  N   UNL     1      -6.850  -2.820 134.027  0.00  0.00    +0.000 N 
ATOM     16  C   UNL     1      -7.184  -3.516 132.804  0.00  0.00    +0.000 C 
ATOM     17  C   UNL     1      -5.864  -3.621 132.070  0.00  0.00    +0.000 C 
ATOM     18  C   UNL     1      -5.100  -2.357 132.481  0.00  0.00    +0.000 C 
ATOM     19  C   UNL     1      -5.660  -1.979 133.867  0.00  0.00    +0.000 C 
BRANCH  13  22
ATOM     20  C   UNL     1      -9.194  -6.544 136.371  0.00  0.00    +0.000 C 
ATOM     21  C   UNL     1      -8.590  -5.294 135.883  0.00  0.00    +0.000 C 
ATOM     22  C   UNL     1      -8.090  -4.268 135.531  0.00  0.00    +0.000 C 
ENDBRANCH  13  22
ENDBRANCH   1  19
BRANCH   3  23
ATOM     23  C   UNL     1      -7.580   2.529 133.093  0.00  0.00    +0.000 A 
ATOM     24  C   UNL     1      -8.662   3.075 133.787  0.00  0.00    +0.000 A 
ATOM     25  C   UNL     1      -9.308   4.221 133.292  0.00  0.00    +0.000 A 
ATOM     26  C   UNL     1      -9.081   4.677 131.979  0.00  0.00    +0.000 A 
ATOM     27  C   UNL     1      -8.077   4.041 131.242  0.00  0.00    +0.000 A 
ATOM     28  C   UNL     1      -7.280   3.039 131.828  0.00  0.00    +0.000 A 
BRANCH  26  29
ATOM     29  C   UNL     1      -9.952   5.784 131.423  0.00  0.00    +0.000 C 
ATOM     30  O   UNL     1     -10.421   6.580 132.234  0.00  0.00    +0.000 OA
ATOM     31  N   UNL     1     -10.270   5.766 130.060  0.00  0.00    +0.000 N 
ATOM     32  H   UNL     1     -10.106   4.936 129.517  0.00  0.00    +0.000 HD
BRANCH  31  33
ATOM     33  C   UNL     1     -11.148   6.721 129.497  0.00  0.00    +0.000 A 
ATOM     34  C   UNL     1     -10.624   7.858 128.886  0.00  0.00    +0.000 A 
ATOM     35  C   UNL     1     -11.467   8.622 128.073  0.00  0.00    +0.000 A 
ATOM     36  C   UNL     1     -12.837   8.445 128.167  0.00  0.00    +0.000 A 
ATOM     37  C   UNL     1     -13.290   7.405 128.953  0.00  0.00    +0.000 A 
ATOM     38  N   UNL     1     -12.476   6.504 129.548  0.00  0.00    +0.000 NA
ENDBRANCH  31  33
ENDBRANCH  26  29
ENDBRANCH   3  23
TORSDOF 5
ENDMDL
MODEL 5
REMARK VINA RESULT:      -7.8      3.343      5.198
REMARK  Name = Acalabrutinib
REMARK  6 active torsions:
REMARK  status: ('A' for Active; 'I' for Inactive)
REMARK    1  A    between atoms: C_1  and  C_2
REMARK    2  A    between atoms: C_3  and  C_4
REMARK    3  A    between atoms: C_10  and  C_11
REMARK    4  A    between atoms: C_13  and  C_21
REMARK    5  A    between atoms: C_24  and  C_27
REMARK    6  A    between atoms: N_29  and  C_30
REMARK                            x       y       z     vdW  Elec       q    Type
REMARK                         _______ _______ _______ _____ _____    ______ ____
ROOT
ATOM      1  C   UNL     1      -6.415   3.873 128.513  0.00  0.00    +0.000 A 
ATOM      2  N   UNL     1      -5.382   4.642 128.841  0.00  0.00    +0.000 NA
ATOM      3  C   UNL     1      -5.749   5.317 129.985  0.00  0.00    +0.000 A 
ATOM      4  C   UNL     1      -7.055   5.032 130.304  0.00  0.00    +0.000 A 
ATOM      5  N   UNL     1      -7.480   4.125 129.361  0.00  0.00    +0.000 N 
ATOM      6  C   UNL     1      -8.790   3.684 129.406  0.00  0.00    +0.000 A 
ATOM      7  C   UNL     1      -9.590   4.098 130.394  0.00  0.00    +0.000 A 
ATOM      8  N   UNL     1      -9.203   4.997 131.361  0.00  0.00    +0.000 NA
ATOM      9  C   UNL     1      -7.980   5.473 131.320  0.00  0.00    +0.000 A 
ATOM     10  N   UNL     1      -7.649   6.396 132.258  0.00  0.00    +0.000 N 
ATOM     11  H   UNL     1      -8.328   6.649 132.957  0.00  0.00    +0.000 HD
ATOM     12  H   UNL     1      -6.745   6.840 132.270  0.00  0.00    +0.000 HD
ENDROOT
BRANCH   1  19
ATOM     13  C   UNL     1      -5.937   4.378 125.430  0.00  0.00    +0.000 C 
ATOM     14  O   UNL     1      -6.558   5.356 125.814  0.00  0.00    +0.000 OA
ATOM     15  N   UNL     1      -5.603   3.308 126.232  0.00  0.00    +0.000 N 
ATOM     16  C   UNL     1      -4.477   2.423 126.028  0.00  0.00    +0.000 C 
ATOM     17  C   UNL     1      -4.936   1.105 126.614  0.00  0.00    +0.000 C 
ATOM     18  C   UNL     1      -5.867   1.507 127.766  0.00  0.00    +0.000 C 
ATOM     19  C   UNL     1      -6.425   2.888 127.371  0.00  0.00    +0.000 C 
BRANCH  13  22
ATOM     20  C   UNL     1      -5.227   4.345 121.372  0.00  0.00    +0.000 C 
ATOM     21  C   UNL     1      -5.416   4.299 122.832  0.00  0.00    +0.000 C 
ATOM     22  C   UNL     1      -5.610   4.285 124.010  0.00  0.00    +0.000 C 
ENDBRANCH  13  22
ENDBRANCH   1  19
BRANCH   3  23
ATOM     23  C   UNL     1      -4.857   6.215 130.698  0.00  0.00    +0.000 A 
ATOM     24  C   UNL     1      -4.268   5.848 131.910  0.00  0.00    +0.000 A 
ATOM     25  C   UNL     1      -3.260   6.648 132.473  0.00  0.00    +0.000 A 
ATOM     26  C   UNL     1      -3.015   7.953 132.001  0.00  0.00    +0.000 A 
ATOM     27  C   UNL     1      -3.703   8.361 130.856  0.00  0.00    +0.000 A 
ATOM     28  C   UNL     1      -4.546   7.469 130.166  0.00  0.00    +0.000 A 
BRANCH  26  29
ATOM     29  C   UNL     1      -2.068   8.849 132.772  0.00  0.00    +0.000 C 
ATOM     30  O   UNL     1      -1.300   8.297 133.558  0.00  0.00    +0.000 OA
ATOM     31  N   UNL     1      -2.203  10.236 132.642  0.00  0.00    +0.000 N 
ATOM     32  H   UNL     1      -3.031  10.622 132.224  0.00  0.00    +0.000 HD
BRANCH  31  33
ATOM     33  C   UNL     1      -1.408  11.126 133.400  0.00  0.00    +0.000 A 
ATOM     34  C   UNL     1      -0.180  11.550 132.894  0.00  0.00    +0.000 A 
ATOM     35  C   UNL     1       0.439  12.651 133.494  0.00  0.00    +0.000 A 
ATOM     36  C   UNL     1       0.017  13.064 134.746  0.00  0.00    +0.000 A 
ATOM     37  C   UNL     1      -1.107  12.456 135.268  0.00  0.00    +0.000 A 
ATOM     38  N   UNL     1      -1.861  11.561 134.590  0.00  0.00    +0.000 NA
ENDBRANCH  31  33
ENDBRANCH  26  29
ENDBRANCH   3  23
TORSDOF 5
ENDMDL
MODEL 6
REMARK VINA RESULT:      -7.7      5.863      7.196
REMARK  Name = Acalabrutinib
REMARK  6 active torsions:
REMARK  status: ('A' for Active; 'I' for Inactive)
REMARK    1  A    between atoms: C_1  and  C_2
REMARK    2  A    between atoms: C_3  and  C_4
REMARK    3  A    between atoms: C_10  and  C_11
REMARK    4  A    between atoms: C_13  and  C_21
REMARK    5  A    between atoms: C_24  and  C_27
REMARK    6  A    between atoms: N_29  and  C_30
REMARK                            x       y       z     vdW  Elec       q    Type
REMARK                         _______ _______ _______ _____ _____    ______ ____
ROOT
ATOM      1  C   UNL     1      -5.306   0.565 132.181  0.00  0.00    +0.000 A 
ATOM      2  N   UNL     1      -5.731   1.125 133.309  0.00  0.00    +0.000 NA
ATOM      3  C   UNL     1      -5.759   2.484 133.080  0.00  0.00    +0.000 A 
ATOM      4  C   UNL     1      -5.252   2.765 131.834  0.00  0.00    +0.000 A 
ATOM      5  N   UNL     1      -4.953   1.547 131.270  0.00  0.00    +0.000 N 
ATOM      6  C   UNL     1      -4.378   1.519 130.013  0.00  0.00    +0.000 A 
ATOM      7  C   UNL     1      -4.183   2.667 129.354  0.00  0.00    +0.000 A 
ATOM      8  N   UNL     1      -4.474   3.905 129.878  0.00  0.00    +0.000 NA
ATOM      9  C   UNL     1      -4.977   3.970 131.089  0.00  0.00    +0.000 A 
ATOM     10  N   UNL     1      -5.205   5.208 131.594  0.00  0.00    +0.000 N 
ATOM     11  H   UNL     1      -5.017   6.014 131.019  0.00  0.00    +0.000 HD
ATOM     12  H   UNL     1      -5.550   5.345 132.529  0.00  0.00    +0.000 HD
ENDROOT
BRANCH   1  19
ATOM     13  C   UNL     1      -7.179  -1.320 130.470  0.00  0.00    +0.000 C 
ATOM     14  O   UNL     1      -7.936  -0.515 130.990  0.00  0.00    +0.000 OA
ATOM     15  N   UNL     1      -5.818  -1.351 130.682  0.00  0.00    +0.000 N 
ATOM     16  C   UNL     1      -4.835  -1.871 129.758  0.00  0.00    +0.000 C 
ATOM     17  C   UNL     1      -3.717  -2.365 130.652  0.00  0.00    +0.000 C 
ATOM     18  C   UNL     1      -3.748  -1.416 131.856  0.00  0.00    +0.000 C 
ATOM     19  C   UNL     1      -5.206  -0.920 131.943  0.00  0.00    +0.000 C 
BRANCH  13  22
ATOM     20  C   UNL     1      -9.018  -4.091 128.040  0.00  0.00    +0.000 C 
ATOM     21  C   UNL     1      -8.303  -3.162 128.931  0.00  0.00    +0.000 C 
ATOM     22  C   UNL     1      -7.759  -2.378 129.649  0.00  0.00    +0.000 C 
ENDBRANCH  13  22
ENDBRANCH   1  19
BRANCH   3  23
ATOM     23  C   UNL     1      -6.235   3.445 134.061  0.00  0.00    +0.000 A 
ATOM     24  C   UNL     1      -5.382   3.983 135.028  0.00  0.00    +0.000 A 
ATOM     25  C   UNL     1      -5.814   5.052 135.830  0.00  0.00    +0.000 A 
ATOM     26  C   UNL     1      -7.173   5.420 135.885  0.00  0.00    +0.000 A 
ATOM     27  C   UNL     1      -8.047   4.786 134.998  0.00  0.00    +0.000 A 
ATOM     28  C   UNL     1      -7.563   3.875 134.039  0.00  0.00    +0.000 A 
BRANCH  26  29
ATOM     29  C   UNL     1      -7.620   6.434 136.918  0.00  0.00    +0.000 C 
ATOM     30  O   UNL     1      -7.654   6.056 138.087  0.00  0.00    +0.000 OA
ATOM     31  N   UNL     1      -8.078   7.681 136.477  0.00  0.00    +0.000 N 
ATOM     32  H   UNL     1      -8.306   7.818 135.508  0.00  0.00    +0.000 HD
BRANCH  31  33
ATOM     33  C   UNL     1      -8.589   8.639 137.384  0.00  0.00    +0.000 A 
ATOM     34  C   UNL     1      -9.968   8.772 137.535  0.00  0.00    +0.000 A 
ATOM     35  C   UNL     1     -10.448   9.484 138.639  0.00  0.00    +0.000 A 
ATOM     36  C   UNL     1      -9.583  10.309 139.338  0.00  0.00    +0.000 A 
ATOM     37  C   UNL     1      -8.247  10.260 138.997  0.00  0.00    +0.000 A 
ATOM     38  N   UNL     1      -7.732   9.393 138.097  0.00  0.00    +0.000 NA
ENDBRANCH  31  33
ENDBRANCH  26  29
ENDBRANCH   3  23
TORSDOF 5
ENDMDL
MODEL 7
REMARK VINA RESULT:      -7.7      4.162      5.666
REMARK  Name = Acalabrutinib
REMARK  6 active torsions:
REMARK  status: ('A' for Active; 'I' for Inactive)
REMARK    1  A    between atoms: C_1  and  C_2
REMARK    2  A    between atoms: C_3  and  C_4
REMARK    3  A    between atoms: C_10  and  C_11
REMARK    4  A    between atoms: C_13  and  C_21
REMARK    5  A    between atoms: C_24  and  C_27
REMARK    6  A    between atoms: N_29  and  C_30
REMARK                            x       y       z     vdW  Elec       q    Type
REMARK                         _______ _______ _______ _____ _____    ______ ____
ROOT
ATOM      1  C   UNL     1      -6.238   3.959 130.667  0.00  0.00    +0.000 A 
ATOM      2  N   UNL     1      -5.382   4.459 131.552  0.00  0.00    +0.000 NA
ATOM      3  C   UNL     1      -4.498   5.239 130.839  0.00  0.00    +0.000 A 
ATOM      4  C   UNL     1      -4.755   5.136 129.493  0.00  0.00    +0.000 A 
ATOM      5  N   UNL     1      -5.852   4.314 129.384  0.00  0.00    +0.000 N 
ATOM      6  C   UNL     1      -6.319   3.991 128.124  0.00  0.00    +0.000 A 
ATOM      7  C   UNL     1      -5.736   4.531 127.048  0.00  0.00    +0.000 A 
ATOM      8  N   UNL     1      -4.643   5.364 127.112  0.00  0.00    +0.000 NA
ATOM      9  C   UNL     1      -4.144   5.653 128.292  0.00  0.00    +0.000 A 
ATOM     10  N   UNL     1      -3.036   6.435 128.315  0.00  0.00    +0.000 N 
ATOM     11  H   UNL     1      -2.667   6.787 127.447  0.00  0.00    +0.000 HD
ATOM     12  H   UNL     1      -2.569   6.669 129.176  0.00  0.00    +0.000 HD
ENDROOT
BRANCH   1  19
ATOM     13  C   UNL     1      -6.443   0.826 131.027  0.00  0.00    +0.000 C 
ATOM     14  O   UNL     1      -5.657   0.984 130.107  0.00  0.00    +0.000 OA
ATOM     15  N   UNL     1      -7.091   1.854 131.677  0.00  0.00    +0.000 N 
ATOM     16  C   UNL     1      -7.581   1.812 133.037  0.00  0.00    +0.000 C 
ATOM     17  C   UNL     1      -8.770   2.749 133.028  0.00  0.00    +0.000 C 
ATOM     18  C   UNL     1      -8.404   3.815 131.988  0.00  0.00    +0.000 C 
ATOM     19  C   UNL     1      -7.438   3.114 131.012  0.00  0.00    +0.000 C 
BRANCH  13  22
ATOM     20  C   UNL     1      -7.230  -3.128 131.874  0.00  0.00    +0.000 C 
ATOM     21  C   UNL     1      -7.004  -1.693 131.635  0.00  0.00    +0.000 C 
ATOM     22  C   UNL     1      -6.798  -0.540 131.401  0.00  0.00    +0.000 C 
ENDBRANCH  13  22
ENDBRANCH   1  19
BRANCH   3  23
ATOM     23  C   UNL     1      -3.441   6.015 131.465  0.00  0.00    +0.000 A 
ATOM     24  C   UNL     1      -2.187   5.459 131.730  0.00  0.00    +0.000 A 
ATOM     25  C   UNL     1      -1.127   6.281 132.147  0.00  0.00    +0.000 A 
ATOM     26  C   UNL     1      -1.355   7.604 132.575  0.00  0.00    +0.000 A 
ATOM     27  C   UNL     1      -2.646   8.116 132.421  0.00  0.00    +0.000 A 
ATOM     28  C   UNL     1      -3.651   7.356 131.792  0.00  0.00    +0.000 A 
BRANCH  26  29
ATOM     29  C   UNL     1      -0.218   8.377 133.211  0.00  0.00    +0.000 C 
ATOM     30  O   UNL     1       0.636   7.720 133.804  0.00  0.00    +0.000 OA
ATOM     31  N   UNL     1      -0.268   9.776 133.195  0.00  0.00    +0.000 N 
ATOM     32  H   UNL     1      -1.126  10.245 132.964  0.00  0.00    +0.000 HD
BRANCH  31  33
ATOM     33  C   UNL     1       0.717  10.554 133.846  0.00  0.00    +0.000 A 
ATOM     34  C   UNL     1       1.630  11.282 133.085  0.00  0.00    +0.000 A 
ATOM     35  C   UNL     1       2.382  12.274 133.722  0.00  0.00    +0.000 A 
ATOM     36  C   UNL     1       2.461  12.278 135.104  0.00  0.00    +0.000 A 
ATOM     37  C   UNL     1       1.658  11.387 135.788  0.00  0.00    +0.000 A 
ATOM     38  N   UNL     1       0.742  10.591 135.192  0.00  0.00    +0.000 NA
ENDBRANCH  31  33
ENDBRANCH  26  29
ENDBRANCH   3  23
TORSDOF 5
ENDMDL
MODEL 8
REMARK VINA RESULT:      -7.5      3.803      4.935
REMARK  Name = Acalabrutinib
REMARK  6 active torsions:
REMARK  status: ('A' for Active; 'I' for Inactive)
REMARK    1  A    between atoms: C_1  and  C_2
REMARK    2  A    between atoms: C_3  and  C_4
REMARK    3  A    between atoms: C_10  and  C_11
REMARK    4  A    between atoms: C_13  and  C_21
REMARK    5  A    between atoms: C_24  and  C_27
REMARK    6  A    between atoms: N_29  and  C_30
REMARK                            x       y       z     vdW  Elec       q    Type
REMARK                         _______ _______ _______ _____ _____    ______ ____
ROOT
ATOM      1  C   UNL     1      -5.452   2.403 129.730  0.00  0.00    +0.000 A 
ATOM      2  N   UNL     1      -5.070   3.260 130.672  0.00  0.00    +0.000 NA
ATOM      3  C   UNL     1      -4.186   4.129 130.070  0.00  0.00    +0.000 A 
ATOM      4  C   UNL     1      -3.948   3.740 128.774  0.00  0.00    +0.000 A 
ATOM      5  N   UNL     1      -4.742   2.637 128.564  0.00  0.00    +0.000 N 
ATOM      6  C   UNL     1      -4.679   1.995 127.341  0.00  0.00    +0.000 A 
ATOM      7  C   UNL     1      -3.899   2.494 126.376  0.00  0.00    +0.000 A 
ATOM      8  N   UNL     1      -3.095   3.598 126.541  0.00  0.00    +0.000 NA
ATOM      9  C   UNL     1      -3.095   4.204 127.706  0.00  0.00    +0.000 A 
ATOM     10  N   UNL     1      -2.254   5.258 127.850  0.00  0.00    +0.000 N 
ATOM     11  H   UNL     1      -1.698   5.552 127.063  0.00  0.00    +0.000 HD
ATOM     12  H   UNL     1      -2.163   5.750 128.724  0.00  0.00    +0.000 HD
ENDROOT
BRANCH   1  19
ATOM     13  C   UNL     1      -5.077  -0.590 130.671  0.00  0.00    +0.000 C 
ATOM     14  O   UNL     1      -4.100  -0.356 129.978  0.00  0.00    +0.000 OA
ATOM     15  N   UNL     1      -6.098   0.307 130.899  0.00  0.00    +0.000 N 
ATOM     16  C   UNL     1      -6.960   0.323 132.060  0.00  0.00    +0.000 C 
ATOM     17  C   UNL     1      -8.262   0.897 131.543  0.00  0.00    +0.000 C 
ATOM     18  C   UNL     1      -7.834   1.869 130.437  0.00  0.00    +0.000 C 
ATOM     19  C   UNL     1      -6.488   1.324 129.918  0.00  0.00    +0.000 C 
BRANCH  13  22
ATOM     20  C   UNL     1      -5.527  -4.493 131.913  0.00  0.00    +0.000 C 
ATOM     21  C   UNL     1      -5.352  -3.076 131.553  0.00  0.00    +0.000 C 
ATOM     22  C   UNL     1      -5.226  -1.937 131.217  0.00  0.00    +0.000 C 
ENDBRANCH  13  22
ENDBRANCH   1  19
BRANCH   3  23
ATOM     23  C   UNL     1      -3.592   5.261 130.760  0.00  0.00    +0.000 A 
ATOM     24  C   UNL     1      -4.172   6.531 130.711  0.00  0.00    +0.000 A 
ATOM     25  C   UNL     1      -3.693   7.556 131.545  0.00  0.00    +0.000 A 
ATOM     26  C   UNL     1      -2.468   7.427 132.229  0.00  0.00    +0.000 A 
ATOM     27  C   UNL     1      -1.827   6.186 132.172  0.00  0.00    +0.000 A 
ATOM     28  C   UNL     1      -2.430   5.095 131.517  0.00  0.00    +0.000 A 
BRANCH  26  29
ATOM     29  C   UNL     1      -1.894   8.633 132.943  0.00  0.00    +0.000 C 
ATOM     30  O   UNL     1      -1.200   8.412 133.934  0.00  0.00    +0.000 OA
ATOM     31  N   UNL     1      -2.279   9.910 132.518  0.00  0.00    +0.000 N 
ATOM     32  H   UNL     1      -3.070  10.017 131.907  0.00  0.00    +0.000 HD
BRANCH  31  33
ATOM     33  C   UNL     1      -1.847  11.072 133.197  0.00  0.00    +0.000 A 
ATOM     34  C   UNL     1      -2.620  11.585 134.237  0.00  0.00    +0.000 A 
ATOM     35  C   UNL     1      -2.040  12.529 135.090  0.00  0.00    +0.000 A 
ATOM     36  C   UNL     1      -0.879  13.173 134.695  0.00  0.00    +0.000 A 
ATOM     37  C   UNL     1      -0.270  12.729 133.539  0.00  0.00    +0.000 A 
ATOM     38  N   UNL     1      -0.687  11.651 132.836  0.00  0.00    +0.000 NA
ENDBRANCH  31  33
ENDBRANCH  26  29
ENDBRANCH   3  23
TORSDOF 5
ENDMDL
MODEL 9
REMARK VINA RESULT:      -7.5      2.408      4.457
REMARK  Name = Acalabrutinib
REMARK  6 active torsions:
REMARK  status: ('A' for Active; 'I' for Inactive)
REMARK    1  A    between atoms: C_1  and  C_2
REMARK    2  A    between atoms: C_3  and  C_4
REMARK    3  A    between atoms: C_10  and  C_11
REMARK    4  A    between atoms: C_13  and  C_21
REMARK    5  A    between atoms: C_24  and  C_27
REMARK    6  A    between atoms: N_29  and  C_30
REMARK                            x       y       z     vdW  Elec       q    Type
REMARK                         _______ _______ _______ _____ _____    ______ ____
ROOT
ATOM      1  C   UNL     1      -6.130   4.271 127.777  0.00  0.00    +0.000 A 
ATOM      2  N   UNL     1      -5.063   4.963 128.162  0.00  0.00    +0.000 NA
ATOM      3  C   UNL     1      -5.188   5.144 129.522  0.00  0.00    +0.000 A 
ATOM      4  C   UNL     1      -6.392   4.645 129.958  0.00  0.00    +0.000 A 
ATOM      5  N   UNL     1      -6.995   4.103 128.846  0.00  0.00    +0.000 N 
ATOM      6  C   UNL     1      -8.258   3.556 128.974  0.00  0.00    +0.000 A 
ATOM      7  C   UNL     1      -8.837   3.512 130.179  0.00  0.00    +0.000 A 
ATOM      8  N   UNL     1      -8.267   4.035 131.317  0.00  0.00    +0.000 NA
ATOM      9  C   UNL     1      -7.087   4.604 131.222  0.00  0.00    +0.000 A 
ATOM     10  N   UNL     1      -6.577   5.154 132.352  0.00  0.00    +0.000 N 
ATOM     11  H   UNL     1      -7.096   5.076 133.212  0.00  0.00    +0.000 HD
ATOM     12  H   UNL     1      -5.698   5.645 132.355  0.00  0.00    +0.000 HD
ENDROOT
BRANCH   1  19
ATOM     13  C   UNL     1      -5.613   1.397 126.569  0.00  0.00    +0.000 C 
ATOM     14  O   UNL     1      -4.685   1.584 127.339  0.00  0.00    +0.000 OA
ATOM     15  N   UNL     1      -6.602   2.321 126.310  0.00  0.00    +0.000 N 
ATOM     16  C   UNL     1      -7.945   2.013 125.870  0.00  0.00    +0.000 C 
ATOM     17  C   UNL     1      -8.349   3.221 125.052  0.00  0.00    +0.000 C 
ATOM     18  C   UNL     1      -7.616   4.392 125.719  0.00  0.00    +0.000 C 
ATOM     19  C   UNL     1      -6.369   3.767 126.376  0.00  0.00    +0.000 C 
BRANCH  13  22
ATOM     20  C   UNL     1      -5.816  -2.232 124.629  0.00  0.00    +0.000 C 
ATOM     21  C   UNL     1      -5.705  -0.902 125.251  0.00  0.00    +0.000 C 
ATOM     22  C   UNL     1      -5.627   0.157 125.797  0.00  0.00    +0.000 C 
ENDBRANCH  13  22
ENDBRANCH   1  19
BRANCH   3  23
ATOM     23  C   UNL     1      -4.178   5.804 130.332  0.00  0.00    +0.000 A 
ATOM     24  C   UNL     1      -3.065   5.112 130.815  0.00  0.00    +0.000 A 
ATOM     25  C   UNL     1      -2.009   5.814 131.421  0.00  0.00    +0.000 A 
ATOM     26  C   UNL     1      -2.156   7.161 131.808  0.00  0.00    +0.000 A 
ATOM     27  C   UNL     1      -3.332   7.814 131.429  0.00  0.00    +0.000 A 
ATOM     28  C   UNL     1      -4.288   7.165 130.625  0.00  0.00    +0.000 A 
BRANCH  26  29
ATOM     29  C   UNL     1      -1.071   7.809 132.643  0.00  0.00    +0.000 C 
ATOM     30  O   UNL     1      -0.135   7.091 132.990  0.00  0.00    +0.000 OA
ATOM     31  N   UNL     1      -1.252   9.131 133.068  0.00  0.00    +0.000 N 
ATOM     32  H   UNL     1      -2.159   9.558 133.005  0.00  0.00    +0.000 HD
BRANCH  31  33
ATOM     33  C   UNL     1      -0.317   9.763 133.920  0.00  0.00    +0.000 A 
ATOM     34  C   UNL     1       0.692  10.549 133.367  0.00  0.00    +0.000 A 
ATOM     35  C   UNL     1       1.403  11.406 134.213  0.00  0.00    +0.000 A 
ATOM     36  C   UNL     1       1.337  11.211 135.582  0.00  0.00    +0.000 A 
ATOM     37  C   UNL     1       0.441  10.269 136.046  0.00  0.00    +0.000 A 
ATOM     38  N   UNL     1      -0.432   9.607 135.252  0.00  0.00    +0.000 NA
ENDBRANCH  31  33
ENDBRANCH  26  29
ENDBRANCH   3  23
TORSDOF 5
ENDMDL
