MODEL 1
REMARK VINA RESULT:      -5.4      0.000      0.000
REMARK  Name = Acamprosate
REMARK  6 active torsions:
REMARK  status: ('A' for Active; 'I' for Inactive)
REMARK    1  A    between atoms: C_1  and  C_2
REMARK    2  A    between atoms: N_4  and  C_5
REMARK    3  A    between atoms: C_5  and  C_6
REMARK    4  A    between atoms: C_6  and  C_7
REMARK    5  A    between atoms: C_7  and  S_8
REMARK    6  A    between atoms: S_8  and  O_9
REMARK                            x       y       z     vdW  Elec       q    Type
REMARK                         _______ _______ _______ _____ _____    ______ ____
ROOT
ATOM      1  C   UNL     1     -13.311   7.711 127.615  0.00  0.00    +0.000 C 
ENDROOT
BRANCH   1   2
ATOM      2  C   UNL     1     -13.544   6.885 128.877  0.00  0.00    +0.000 C 
BRANCH   2   6
ATOM      3  C   UNL     1     -10.953   6.483 131.634  0.00  0.00    +0.000 C 
ATOM      4  C   UNL     1     -12.277   6.800 130.982  0.00  0.00    +0.000 C 
ATOM      5  O   UNL     1     -13.241   7.193 131.632  0.00  0.00    +0.000 OA
ATOM      6  N   UNL     1     -12.318   6.620 129.613  0.00  0.00    +0.000 N 
ATOM      7  H   UNL     1     -11.499   6.270 129.134  0.00  0.00    +0.000 HD
ENDBRANCH   2   6
ENDBRANCH   1   2
BRANCH   1   8
ATOM      8  C   UNL     1     -12.466   6.953 126.592  0.00  0.00    +0.000 C 
BRANCH   8   9
ATOM      9  S   UNL     1     -10.756   7.487 126.579  0.00  0.00    +0.000 S 
ATOM     10  O   UNL     1     -10.565   8.496 127.593  0.00  0.00    +0.000 OA
ATOM     11  O   UNL     1      -9.899   6.328 126.462  0.00  0.00    +0.000 OA
BRANCH   9  12
ATOM     12  O   UNL     1     -10.769   8.247 125.152  0.00  0.00    +0.000 OA
ATOM     13  H   UNL     1     -10.288   7.717 124.484  0.00  0.00    +0.000 HD
ENDBRANCH   9  12
ENDBRANCH   8   9
ENDBRANCH   1   8
TORSDOF 5
ENDMDL
MODEL 2
REMARK VINA RESULT:      -5.2      1.417      2.006
REMARK  Name = Acamprosate
REMARK  6 active torsions:
REMARK  status: ('A' for Active; 'I' for Inactive)
REMARK    1  A    between atoms: C_1  and  C_2
REMARK    2  A    between atoms: N_4  and  C_5
REMARK    3  A    between atoms: C_5  and  C_6
REMARK    4  A    between atoms: C_6  and  C_7
REMARK    5  A    between atoms: C_7  and  S_8
REMARK    6  A    between atoms: S_8  and  O_9
REMARK                            x       y       z     vdW  Elec       q    Type
REMARK                         _______ _______ _______ _____ _____    ______ ____
ROOT
ATOM      1  C   UNL     1     -13.108   7.819 128.478  0.00  0.00    +0.000 C 
ENDROOT
BRANCH   1   2
ATOM      2  C   UNL     1     -12.916   6.974 129.734  0.00  0.00    +0.000 C 
BRANCH   2   6
ATOM      3  C   UNL     1      -9.362   6.696 131.063  0.00  0.00    +0.000 C 
ATOM      4  C   UNL     1     -10.628   6.308 130.339  0.00  0.00    +0.000 C 
ATOM      5  O   UNL     1     -10.732   5.240 129.742  0.00  0.00    +0.000 OA
ATOM      6  N   UNL     1     -11.651   7.234 130.402  0.00  0.00    +0.000 N 
ATOM      7  H   UNL     1     -11.499   8.108 130.889  0.00  0.00    +0.000 HD
ENDBRANCH   2   6
ENDBRANCH   1   2
BRANCH   1   8
ATOM      8  C   UNL     1     -12.510   7.142 127.245  0.00  0.00    +0.000 C 
BRANCH   8   9
ATOM      9  S   UNL     1     -10.884   7.774 126.834  0.00  0.00    +0.000 S 
ATOM     10  O   UNL     1     -10.841   8.094 125.428  0.00  0.00    +0.000 OA
ATOM     11  O   UNL     1     -10.465   8.704 127.858  0.00  0.00    +0.000 OA
BRANCH   9  12
ATOM     12  O   UNL     1     -10.053   6.401 127.032  0.00  0.00    +0.000 OA
ATOM     13  H   UNL     1      -9.184   6.466 126.585  0.00  0.00    +0.000 HD
ENDBRANCH   9  12
ENDBRANCH   8   9
ENDBRANCH   1   8
TORSDOF 5
ENDMDL
MODEL 3
REMARK VINA RESULT:      -5.0      2.162      2.887
REMARK  Name = Acamprosate
REMARK  6 active torsions:
REMARK  status: ('A' for Active; 'I' for Inactive)
REMARK    1  A    between atoms: C_1  and  C_2
REMARK    2  A    between atoms: N_4  and  C_5
REMARK    3  A    between atoms: C_5  and  C_6
REMARK    4  A    between atoms: C_6  and  C_7
REMARK    5  A    between atoms: C_7  and  S_8
REMARK    6  A    between atoms: S_8  and  O_9
REMARK                            x       y       z     vdW  Elec       q    Type
REMARK                         _______ _______ _______ _____ _____    ______ ____
ROOT
ATOM      1  C   UNL     1     -12.881   7.310 130.190  0.00  0.00    +0.000 C 
ENDROOT
BRANCH   1   2
ATOM      2  C   UNL     1     -12.259   6.940 131.533  0.00  0.00    +0.000 C 
BRANCH   2   6
ATOM      3  C   UNL     1      -9.549   4.271 131.634  0.00  0.00    +0.000 C 
ATOM      4  C   UNL     1     -10.176   5.643 131.687  0.00  0.00    +0.000 C 
ATOM      5  O   UNL     1      -9.508   6.653 131.885  0.00  0.00    +0.000 OA
ATOM      6  N   UNL     1     -11.543   5.674 131.494  0.00  0.00    +0.000 N 
ATOM      7  H   UNL     1     -12.045   4.806 131.360  0.00  0.00    +0.000 HD
ENDBRANCH   2   6
ENDBRANCH   1   2
BRANCH   1   8
ATOM      8  C   UNL     1     -12.061   8.376 129.463  0.00  0.00    +0.000 C 
BRANCH   8   9
ATOM      9  S   UNL     1     -10.833   7.671 128.366  0.00  0.00    +0.000 S 
ATOM     10  O   UNL     1     -10.956   6.234 128.374  0.00  0.00    +0.000 OA
ATOM     11  O   UNL     1     -10.792   8.443 127.143  0.00  0.00    +0.000 OA
BRANCH   9  12
ATOM     12  O   UNL     1      -9.519   8.038 129.234  0.00  0.00    +0.000 OA
ATOM     13  H   UNL     1      -9.774   8.549 130.030  0.00  0.00    +0.000 HD
ENDBRANCH   9  12
ENDBRANCH   8   9
ENDBRANCH   1   8
TORSDOF 5
ENDMDL
MODEL 4
REMARK VINA RESULT:      -4.9      2.522      3.167
REMARK  Name = Acamprosate
REMARK  6 active torsions:
REMARK  status: ('A' for Active; 'I' for Inactive)
REMARK    1  A    between atoms: C_1  and  C_2
REMARK    2  A    between atoms: N_4  and  C_5
REMARK    3  A    between atoms: C_5  and  C_6
REMARK    4  A    between atoms: C_6  and  C_7
REMARK    5  A    between atoms: C_7  and  S_8
REMARK    6  A    between atoms: S_8  and  O_9
REMARK                            x       y       z     vdW  Elec       q    Type
REMARK                         _______ _______ _______ _____ _____    ______ ____
ROOT
ATOM      1  C   UNL     1     -10.947   7.809 129.280  0.00  0.00    +0.000 C 
ENDROOT
BRANCH   1   2
ATOM      2  C   UNL     1      -9.749   7.239 130.033  0.00  0.00    +0.000 C 
BRANCH   2   6
ATOM      3  C   UNL     1     -10.011   3.500 130.691  0.00  0.00    +0.000 C 
ATOM      4  C   UNL     1      -9.686   4.782 129.963  0.00  0.00    +0.000 C 
ATOM      5  O   UNL     1      -9.163   4.782 128.852  0.00  0.00    +0.000 OA
ATOM      6  N   UNL     1     -10.023   5.942 130.632  0.00  0.00    +0.000 N 
ATOM      7  H   UNL     1     -10.429   5.881 131.557  0.00  0.00    +0.000 HD
ENDBRANCH   2   6
ENDBRANCH   1   2
BRANCH   1   8
ATOM      8  C   UNL     1     -10.537   8.401 127.932  0.00  0.00    +0.000 C 
BRANCH   8   9
ATOM      9  S   UNL     1     -11.026   7.372 126.549  0.00  0.00    +0.000 S 
ATOM     10  O   UNL     1     -12.195   6.610 126.914  0.00  0.00    +0.000 OA
ATOM     11  O   UNL     1     -10.951   8.149 125.331  0.00  0.00    +0.000 OA
BRANCH   9  12
ATOM     12  O   UNL     1      -9.771   6.354 126.572  0.00  0.00    +0.000 OA
ATOM     13  H   UNL     1      -9.929   5.639 127.223  0.00  0.00    +0.000 HD
ENDBRANCH   9  12
ENDBRANCH   8   9
ENDBRANCH   1   8
TORSDOF 5
ENDMDL
MODEL 5
REMARK VINA RESULT:      -4.5      2.737      4.340
REMARK  Name = Acamprosate
REMARK  6 active torsions:
REMARK  status: ('A' for Active; 'I' for Inactive)
REMARK    1  A    between atoms: C_1  and  C_2
REMARK    2  A    between atoms: N_4  and  C_5
REMARK    3  A    between atoms: C_5  and  C_6
REMARK    4  A    between atoms: C_6  and  C_7
REMARK    5  A    between atoms: C_7  and  S_8
REMARK    6  A    between atoms: S_8  and  O_9
REMARK                            x       y       z     vdW  Elec       q    Type
REMARK                         _______ _______ _______ _____ _____    ______ ____
ROOT
ATOM      1  C   UNL     1     -12.095   6.593 130.811  0.00  0.00    +0.000 C 
ENDROOT
BRANCH   1   2
ATOM      2  C   UNL     1     -12.152   7.868 129.974  0.00  0.00    +0.000 C 
BRANCH   2   6
ATOM      3  C   UNL     1     -11.050   7.692 126.336  0.00  0.00    +0.000 C 
ATOM      4  C   UNL     1     -11.002   8.029 127.807  0.00  0.00    +0.000 C 
ATOM      5  O   UNL     1     -10.057   8.637 128.302  0.00  0.00    +0.000 OA
ATOM      6  N   UNL     1     -12.091   7.609 128.544  0.00  0.00    +0.000 N 
ATOM      7  H   UNL     1     -12.830   7.090 128.086  0.00  0.00    +0.000 HD
ENDBRANCH   2   6
ENDBRANCH   1   2
BRANCH   1   8
ATOM      8  C   UNL     1     -10.779   6.481 131.580  0.00  0.00    +0.000 C 
BRANCH   8   9
ATOM      9  S   UNL     1      -9.473   5.738 130.605  0.00  0.00    +0.000 S 
ATOM     10  O   UNL     1      -8.631   4.942 131.465  0.00  0.00    +0.000 OA
ATOM     11  O   UNL     1     -10.033   5.227 129.374  0.00  0.00    +0.000 OA
BRANCH   9  12
ATOM     12  O   UNL     1      -8.654   7.088 130.261  0.00  0.00    +0.000 OA
ATOM     13  H   UNL     1      -8.464   7.587 131.083  0.00  0.00    +0.000 HD
ENDBRANCH   9  12
ENDBRANCH   8   9
ENDBRANCH   1   8
TORSDOF 5
ENDMDL
MODEL 6
REMARK VINA RESULT:      -4.3     11.232     12.453
REMARK  Name = Acamprosate
REMARK  6 active torsions:
REMARK  status: ('A' for Active; 'I' for Inactive)
REMARK    1  A    between atoms: C_1  and  C_2
REMARK    2  A    between atoms: N_4  and  C_5
REMARK    3  A    between atoms: C_5  and  C_6
REMARK    4  A    between atoms: C_6  and  C_7
REMARK    5  A    between atoms: C_7  and  S_8
REMARK    6  A    between atoms: S_8  and  O_9
REMARK                            x       y       z     vdW  Elec       q    Type
REMARK                         _______ _______ _______ _____ _____    ______ ____
ROOT
ATOM      1  C   UNL     1      -7.941  -1.879 122.807  0.00  0.00    +0.000 C 
ENDROOT
BRANCH   1   2
ATOM      2  C   UNL     1      -6.458  -1.522 122.869  0.00  0.00    +0.000 C 
BRANCH   2   6
ATOM      3  C   UNL     1      -4.168  -4.479 123.570  0.00  0.00    +0.000 C 
ATOM      4  C   UNL     1      -5.040  -3.278 123.845  0.00  0.00    +0.000 C 
ATOM      5  O   UNL     1      -5.235  -2.866 124.984  0.00  0.00    +0.000 OA
ATOM      6  N   UNL     1      -5.592  -2.682 122.728  0.00  0.00    +0.000 N 
ATOM      7  H   UNL     1      -5.415  -3.081 121.814  0.00  0.00    +0.000 HD
ENDBRANCH   2   6
ENDBRANCH   1   2
BRANCH   1   8
ATOM      8  C   UNL     1      -8.660  -1.525 124.108  0.00  0.00    +0.000 C 
BRANCH   8   9
ATOM      9  S   UNL     1      -8.828  -2.930 125.207  0.00  0.00    +0.000 S 
ATOM     10  O   UNL     1     -10.117  -2.877 125.854  0.00  0.00    +0.000 OA
ATOM     11  O   UNL     1      -8.341  -4.115 124.537  0.00  0.00    +0.000 OA
BRANCH   9  12
ATOM     12  O   UNL     1      -7.729  -2.487 126.307  0.00  0.00    +0.000 OA
ATOM     13  H   UNL     1      -6.899  -2.991 126.174  0.00  0.00    +0.000 HD
ENDBRANCH   9  12
ENDBRANCH   8   9
ENDBRANCH   1   8
TORSDOF 5
ENDMDL
MODEL 7
REMARK VINA RESULT:      -4.3      2.779      3.691
REMARK  Name = Acamprosate
REMARK  6 active torsions:
REMARK  status: ('A' for Active; 'I' for Inactive)
REMARK    1  A    between atoms: C_1  and  C_2
REMARK    2  A    between atoms: N_4  and  C_5
REMARK    3  A    between atoms: C_5  and  C_6
REMARK    4  A    between atoms: C_6  and  C_7
REMARK    5  A    between atoms: C_7  and  S_8
REMARK    6  A    between atoms: S_8  and  O_9
REMARK                            x       y       z     vdW  Elec       q    Type
REMARK                         _______ _______ _______ _____ _____    ______ ____
ROOT
ATOM      1  C   UNL     1     -11.155   6.873 130.571  0.00  0.00    +0.000 C 
ENDROOT
BRANCH   1   2
ATOM      2  C   UNL     1     -11.398   5.463 130.040  0.00  0.00    +0.000 C 
BRANCH   2   6
ATOM      3  C   UNL     1      -9.981   2.357 131.721  0.00  0.00    +0.000 C 
ATOM      4  C   UNL     1     -10.273   3.357 130.629  0.00  0.00    +0.000 C 
ATOM      5  O   UNL     1      -9.842   3.215 129.489  0.00  0.00    +0.000 OA
ATOM      6  N   UNL     1     -11.058   4.429 131.005  0.00  0.00    +0.000 N 
ATOM      7  H   UNL     1     -11.365   4.505 131.967  0.00  0.00    +0.000 HD
ENDBRANCH   2   6
ENDBRANCH   1   2
BRANCH   1   8
ATOM      8  C   UNL     1     -12.291   7.822 130.193  0.00  0.00    +0.000 C 
BRANCH   8   9
ATOM      9  S   UNL     1     -12.139   8.448 128.521  0.00  0.00    +0.000 S 
ATOM     10  O   UNL     1     -10.749   8.701 128.232  0.00  0.00    +0.000 OA
ATOM     11  O   UNL     1     -12.987   7.669 127.645  0.00  0.00    +0.000 OA
BRANCH   9  12
ATOM     12  O   UNL     1     -12.843   9.884 128.753  0.00  0.00    +0.000 OA
ATOM     13  H   UNL     1     -12.193  10.604 128.616  0.00  0.00    +0.000 HD
ENDBRANCH   9  12
ENDBRANCH   8   9
ENDBRANCH   1   8
TORSDOF 5
ENDMDL
MODEL 8
REMARK VINA RESULT:      -4.3      2.091      3.711
REMARK  Name = Acamprosate
REMARK  6 active torsions:
REMARK  status: ('A' for Active; 'I' for Inactive)
REMARK    1  A    between atoms: C_1  and  C_2
REMARK    2  A    between atoms: N_4  and  C_5
REMARK    3  A    between atoms: C_5  and  C_6
REMARK    4  A    between atoms: C_6  and  C_7
REMARK    5  A    between atoms: C_7  and  S_8
REMARK    6  A    between atoms: S_8  and  O_9
REMARK                            x       y       z     vdW  Elec       q    Type
REMARK                         _______ _______ _______ _____ _____    ______ ____
ROOT
ATOM      1  C   UNL     1     -11.081   6.409 131.647  0.00  0.00    +0.000 C 
ENDROOT
BRANCH   1   2
ATOM      2  C   UNL     1     -12.438   7.037 131.339  0.00  0.00    +0.000 C 
BRANCH   2   6
ATOM      3  C   UNL     1     -13.422   7.639 127.713  0.00  0.00    +0.000 C 
ATOM      4  C   UNL     1     -13.011   7.954 129.131  0.00  0.00    +0.000 C 
ATOM      5  O   UNL     1     -12.846   9.108 129.517  0.00  0.00    +0.000 OA
ATOM      6  N   UNL     1     -12.842   6.858 129.954  0.00  0.00    +0.000 N 
ATOM      7  H   UNL     1     -12.969   5.928 129.573  0.00  0.00    +0.000 HD
ENDBRANCH   2   6
ENDBRANCH   1   2
BRANCH   1   8
ATOM      8  C   UNL     1     -10.599   5.518 130.503  0.00  0.00    +0.000 C 
BRANCH   8   9
ATOM      9  S   UNL     1      -9.472   6.366 129.397  0.00  0.00    +0.000 S 
ATOM     10  O   UNL     1     -10.062   6.443 128.083  0.00  0.00    +0.000 OA
ATOM     11  O   UNL     1      -8.924   7.521 130.074  0.00  0.00    +0.000 OA
BRANCH   9  12
ATOM     12  O   UNL     1      -8.323   5.230 129.334  0.00  0.00    +0.000 OA
ATOM     13  H   UNL     1      -7.446   5.627 129.518  0.00  0.00    +0.000 HD
ENDBRANCH   9  12
ENDBRANCH   8   9
ENDBRANCH   1   8
TORSDOF 5
ENDMDL
MODEL 9
REMARK VINA RESULT:      -4.2      8.336      9.535
REMARK  Name = Acamprosate
REMARK  6 active torsions:
REMARK  status: ('A' for Active; 'I' for Inactive)
REMARK    1  A    between atoms: C_1  and  C_2
REMARK    2  A    between atoms: N_4  and  C_5
REMARK    3  A    between atoms: C_5  and  C_6
REMARK    4  A    between atoms: C_6  and  C_7
REMARK    5  A    between atoms: C_7  and  S_8
REMARK    6  A    between atoms: S_8  and  O_9
REMARK                            x       y       z     vdW  Elec       q    Type
REMARK                         _______ _______ _______ _____ _____    ______ ____
ROOT
ATOM      1  C   UNL     1      -7.104   0.495 123.862  0.00  0.00    +0.000 C 
ENDROOT
BRANCH   1   2
ATOM      2  C   UNL     1      -7.168  -1.013 123.642  0.00  0.00    +0.000 C 
BRANCH   2   6
ATOM      3  C   UNL     1      -9.404  -3.047 125.954  0.00  0.00    +0.000 C 
ATOM      4  C   UNL     1      -8.954  -2.326 124.706  0.00  0.00    +0.000 C 
ATOM      5  O   UNL     1      -9.653  -2.278 123.699  0.00  0.00    +0.000 OA
ATOM      6  N   UNL     1      -7.711  -1.729 124.786  0.00  0.00    +0.000 N 
ATOM      7  H   UNL     1      -7.169  -1.823 125.636  0.00  0.00    +0.000 HD
ENDBRANCH   2   6
ENDBRANCH   1   2
BRANCH   1   8
ATOM      8  C   UNL     1      -8.357   1.196 123.337  0.00  0.00    +0.000 C 
BRANCH   8   9
ATOM      9  S   UNL     1      -9.573   1.487 124.620  0.00  0.00    +0.000 S 
ATOM     10  O   UNL     1     -10.891   1.227 124.094  0.00  0.00    +0.000 OA
ATOM     11  O   UNL     1      -9.101   0.910 125.859  0.00  0.00    +0.000 OA
BRANCH   9  12
ATOM     12  O   UNL     1      -9.413   3.093 124.721  0.00  0.00    +0.000 OA
ATOM     13  H   UNL     1     -10.270   3.529 124.535  0.00  0.00    +0.000 HD
ENDBRANCH   9  12
ENDBRANCH   8   9
ENDBRANCH   1   8
TORSDOF 5
ENDMDL
