MODEL 1
REMARK VINA RESULT:      -7.5      0.000      0.000
REMARK  Name = Acarbose
REMARK  27 active torsions:
REMARK  status: ('A' for Active; 'I' for Inactive)
REMARK    1  A    between atoms: C_2  and  C_4
REMARK    2  A    between atoms: C_4  and  O_5
REMARK    3  A    between atoms: C_4  and  C_6
REMARK    4  A    between atoms: C_6  and  O_7
REMARK    5  A    between atoms: C_6  and  C_8
REMARK    6  A    between atoms: C_8  and  O_10
REMARK    7  A    between atoms: C_8  and  C_46
REMARK    8  A    between atoms: O_10  and  C_11
REMARK    9  A    between atoms: C_14  and  C_15
REMARK   10  A    between atoms: C_15  and  O_16
REMARK   11  A    between atoms: C_17  and  O_19
REMARK   12  A    between atoms: O_19  and  C_20
REMARK   13  A    between atoms: C_22  and  C_23
REMARK   14  A    between atoms: C_24  and  N_25
REMARK   15  A    between atoms: N_25  and  C_26
REMARK   16  A    between atoms: C_29  and  C_30
REMARK   17  A    between atoms: C_30  and  O_31
REMARK   18  A    between atoms: C_32  and  O_33
REMARK   19  A    between atoms: C_34  and  O_35
REMARK   20  A    between atoms: C_36  and  O_37
REMARK   21  A    between atoms: C_38  and  O_39
REMARK   22  A    between atoms: C_40  and  O_41
REMARK   23  A    between atoms: C_42  and  O_43
REMARK   24  A    between atoms: C_44  and  O_45
REMARK   25  A    between atoms: C_46  and  O_47
REMARK   26  A    between atoms: C_46  and  C_48
REMARK   27  A    between atoms: C_48  and  O_49
REMARK                            x       y       z     vdW  Elec       q    Type
REMARK                         _______ _______ _______ _____ _____    ______ ____
ROOT
ATOM      1  C   UNL     1      -8.407   1.860 123.422  0.00  0.00    +0.000 C 
ATOM      2  O   UNL     1      -8.726   0.542 123.246  0.00  0.00    +0.000 OA
ATOM      3  C   UNL     1      -8.112  -0.578 124.304  0.00  0.00    +0.000 C 
ATOM      4  C   UNL     1      -8.580  -0.050 125.640  0.00  0.00    +0.000 C 
ATOM      5  C   UNL     1      -8.560   1.401 125.805  0.00  0.00    +0.000 C 
ATOM      6  C   UNL     1      -9.167   2.176 124.664  0.00  0.00    +0.000 C 
ENDROOT
BRANCH   6   7
ATOM      7  O   UNL     1      -9.028   3.565 124.858  0.00  0.00    +0.000 OA
ATOM      8  H   UNL     1      -8.062   3.686 124.805  0.00  0.00    +0.000 HD
ENDBRANCH   6   7
BRANCH   5   9
ATOM      9  O   UNL     1      -9.373   1.626 126.947  0.00  0.00    +0.000 OA
ATOM     10  H   UNL     1     -10.289   1.787 126.628  0.00  0.00    +0.000 HD
ENDBRANCH   5   9
BRANCH   4  11
ATOM     11  O   UNL     1      -7.992  -0.872 126.638  0.00  0.00    +0.000 OA
BRANCH  11  12
ATOM     12  C   UNL     1      -6.916  -0.132 127.277  0.00  0.00    +0.000 C 
ATOM     13  O   UNL     1      -7.487   0.352 128.676  0.00  0.00    +0.000 OA
ATOM     14  C   UNL     1      -7.980  -0.781 130.050  0.00  0.00    +0.000 C 
ATOM     15  C   UNL     1      -8.660   0.123 131.849  0.00  0.00    +0.000 C 
ATOM     16  C   UNL     1      -6.209  -1.993 130.360  0.00  0.00    +0.000 C 
ATOM     17  C   UNL     1      -5.195  -2.703 128.653  0.00  0.00    +0.000 C 
ATOM     18  C   UNL     1      -5.276  -1.259 127.055  0.00  0.00    +0.000 C 
BRANCH  18  19
ATOM     19  O   UNL     1      -5.458  -1.322 125.650  0.00  0.00    +0.000 OA
ATOM     20  H   UNL     1      -4.802  -0.771 125.202  0.00  0.00    +0.000 HD
ENDBRANCH  18  19
BRANCH  17  21
ATOM     21  O   UNL     1      -3.977  -3.376 128.733  0.00  0.00    +0.000 OA
ATOM     22  H   UNL     1      -4.217  -4.157 129.242  0.00  0.00    +0.000 HD
ENDBRANCH  17  21
BRANCH  16  23
ATOM     23  N   UNL     1      -6.426  -3.134 131.188  0.00  0.00    +0.000 NA
ATOM     24  H   UNL     1      -6.472  -3.998 130.651  0.00  0.00    +0.000 HD
BRANCH  23  25
ATOM     25  C   UNL     1      -5.367  -2.960 132.101  0.00  0.00    +0.000 C 
ATOM     26  C   UNL     1      -5.544  -1.996 133.272  0.00  0.00    +0.000 C 
ATOM     27  C   UNL     1      -6.136  -2.058 134.536  0.00  0.00    +0.000 C 
ATOM     28  C   UNL     1      -6.899  -3.137 135.332  0.00  0.00    +0.000 C 
ATOM     29  C   UNL     1      -6.945  -4.143 134.321  0.00  0.00    +0.000 C 
ATOM     30  C   UNL     1      -5.544  -4.252 132.732  0.00  0.00    +0.000 C 
BRANCH  30  31
ATOM     31  O   UNL     1      -5.470  -5.534 131.686  0.00  0.00    +0.000 OA
ATOM     32  H   UNL     1      -5.169  -5.306 130.792  0.00  0.00    +0.000 HD
ENDBRANCH  30  31
BRANCH  29  33
ATOM     33  O   UNL     1      -7.250  -5.695 135.259  0.00  0.00    +0.000 OA
ATOM     34  H   UNL     1      -6.525  -6.046 135.890  0.00  0.00    +0.000 HD
ENDBRANCH  29  33
BRANCH  28  35
ATOM     35  O   UNL     1      -8.277  -2.877 135.680  0.00  0.00    +0.000 OA
ATOM     36  H   UNL     1      -8.858  -3.263 134.999  0.00  0.00    +0.000 HD
ENDBRANCH  28  35
BRANCH  27  37
ATOM     37  C   UNL     1      -6.040  -0.958 135.499  0.00  0.00    +0.000 C 
BRANCH  37  38
ATOM     38  O   UNL     1      -6.087  -1.473 136.802  0.00  0.00    +0.000 OA
ATOM     39  H   UNL     1      -6.952  -1.912 136.884  0.00  0.00    +0.000 HD
ENDBRANCH  37  38
ENDBRANCH  27  37
ENDBRANCH  23  25
ENDBRANCH  16  23
ENDBRANCH  11  12
ENDBRANCH   4  11
BRANCH   3  40
ATOM     40  C   UNL     1      -8.471  -2.696 124.108  0.00  0.00    +0.000 C 
BRANCH  40  41
ATOM     41  O   UNL     1      -7.436  -1.960 123.692  0.00  0.00    +0.000 OA
ATOM     42  H   UNL     1      -6.799  -2.070 122.957  0.00  0.00    +0.000 HD
ENDBRANCH  40  41
ENDBRANCH   3  40
BRANCH   1  43
ATOM     43  O   UNL     1      -7.057   1.958 123.088  0.00  0.00    +0.000 OA
BRANCH  43  44
ATOM     44  C   UNL     1      -6.640   3.374 123.044  0.00  0.00    +0.000 C 
BRANCH  44  45
ATOM     45  C   UNL     1      -5.818   4.035 124.213  0.00  0.00    +0.000 C 
BRANCH  45  46
ATOM     46  O   UNL     1      -6.438   5.348 124.439  0.00  0.00    +0.000 OA
ATOM     47  H   UNL     1      -5.711   6.016 124.345  0.00  0.00    +0.000 HD
ENDBRANCH  45  46
BRANCH  45  48
ATOM     48  C   UNL     1      -5.560   3.429 125.643  0.00  0.00    +0.000 C 
BRANCH  48  49
ATOM     49  C   UNL     1      -6.135   4.210 126.795  0.00  0.00    +0.000 C 
ATOM     50  O   UNL     1      -7.305   4.575 126.919  0.00  0.00    +0.000 OA
ENDBRANCH  48  49
BRANCH  48  51
ATOM     51  O   UNL     1      -4.215   3.187 125.919  0.00  0.00    +0.000 OA
ATOM     52  H   UNL     1      -4.424   2.356 126.340  0.00  0.00    +0.000 HD
ENDBRANCH  48  51
ENDBRANCH  45  48
ENDBRANCH  44  45
BRANCH  44  53
ATOM     53  C   UNL     1      -6.083   3.620 121.648  0.00  0.00    +0.000 C 
BRANCH  53  54
ATOM     54  O   UNL     1      -5.213   4.736 121.676  0.00  0.00    +0.000 OA
ATOM     55  H   UNL     1      -5.535   5.289 122.432  0.00  0.00    +0.000 HD
ENDBRANCH  53  54
BRANCH  53  56
ATOM     56  C   UNL     1      -7.137   3.940 120.584  0.00  0.00    +0.000 C 
BRANCH  56  57
ATOM     57  O   UNL     1      -8.444   3.979 121.027  0.00  0.00    +0.000 OA
ATOM     58  H   UNL     1      -8.590   3.705 121.942  0.00  0.00    +0.000 HD
ENDBRANCH  56  57
ENDBRANCH  53  56
ENDBRANCH  44  53
ENDBRANCH  43  44
ENDBRANCH   1  43
TORSDOF 26
ENDMDL
MODEL 2
REMARK VINA RESULT:      -7.5      4.690      9.119
REMARK  Name = Acarbose
REMARK  27 active torsions:
REMARK  status: ('A' for Active; 'I' for Inactive)
REMARK    1  A    between atoms: C_2  and  C_4
REMARK    2  A    between atoms: C_4  and  O_5
REMARK    3  A    between atoms: C_4  and  C_6
REMARK    4  A    between atoms: C_6  and  O_7
REMARK    5  A    between atoms: C_6  and  C_8
REMARK    6  A    between atoms: C_8  and  O_10
REMARK    7  A    between atoms: C_8  and  C_46
REMARK    8  A    between atoms: O_10  and  C_11
REMARK    9  A    between atoms: C_14  and  C_15
REMARK   10  A    between atoms: C_15  and  O_16
REMARK   11  A    between atoms: C_17  and  O_19
REMARK   12  A    between atoms: O_19  and  C_20
REMARK   13  A    between atoms: C_22  and  C_23
REMARK   14  A    between atoms: C_24  and  N_25
REMARK   15  A    between atoms: N_25  and  C_26
REMARK   16  A    between atoms: C_29  and  C_30
REMARK   17  A    between atoms: C_30  and  O_31
REMARK   18  A    between atoms: C_32  and  O_33
REMARK   19  A    between atoms: C_34  and  O_35
REMARK   20  A    between atoms: C_36  and  O_37
REMARK   21  A    between atoms: C_38  and  O_39
REMARK   22  A    between atoms: C_40  and  O_41
REMARK   23  A    between atoms: C_42  and  O_43
REMARK   24  A    between atoms: C_44  and  O_45
REMARK   25  A    between atoms: C_46  and  O_47
REMARK   26  A    between atoms: C_46  and  C_48
REMARK   27  A    between atoms: C_48  and  O_49
REMARK                            x       y       z     vdW  Elec       q    Type
REMARK                         _______ _______ _______ _____ _____    ______ ____
ROOT
ATOM      1  C   UNL     1      -4.371   4.945 131.846  0.00  0.00    +0.000 C 
ATOM      2  O   UNL     1      -5.690   5.293 131.756  0.00  0.00    +0.000 OA
ATOM      3  C   UNL     1      -6.530   4.895 130.381  0.00  0.00    +0.000 C 
ATOM      4  C   UNL     1      -6.326   3.400 130.300  0.00  0.00    +0.000 C 
ATOM      5  C   UNL     1      -5.006   2.905 130.684  0.00  0.00    +0.000 C 
ATOM      6  C   UNL     1      -4.473   3.464 131.978  0.00  0.00    +0.000 C 
ENDROOT
BRANCH   6   7
ATOM      7  O   UNL     1      -3.164   3.009 132.230  0.00  0.00    +0.000 OA
ATOM      8  H   UNL     1      -3.076   2.268 131.603  0.00  0.00    +0.000 HD
ENDBRANCH   6   7
BRANCH   5   9
ATOM      9  O   UNL     1      -5.207   1.513 130.877  0.00  0.00    +0.000 OA
ATOM     10  H   UNL     1      -4.832   1.282 131.755  0.00  0.00    +0.000 HD
ENDBRANCH   5   9
BRANCH   4  11
ATOM     11  O   UNL     1      -6.901   2.971 129.075  0.00  0.00    +0.000 OA
BRANCH  11  12
ATOM     12  C   UNL     1      -5.830   2.657 128.142  0.00  0.00    +0.000 C 
ATOM     13  O   UNL     1      -5.853   1.080 127.963  0.00  0.00    +0.000 OA
ATOM     14  C   UNL     1      -7.249   0.137 127.203  0.00  0.00    +0.000 C 
ATOM     15  C   UNL     1      -7.006  -1.967 127.024  0.00  0.00    +0.000 C 
ATOM     16  C   UNL     1      -7.516   1.099 125.279  0.00  0.00    +0.000 C 
ATOM     17  C   UNL     1      -7.444   3.204 125.216  0.00  0.00    +0.000 C 
ATOM     18  C   UNL     1      -6.017   3.968 126.640  0.00  0.00    +0.000 C 
BRANCH  18  19
ATOM     19  O   UNL     1      -5.979   5.066 127.537  0.00  0.00    +0.000 OA
ATOM     20  H   UNL     1      -6.293   5.868 127.099  0.00  0.00    +0.000 HD
ENDBRANCH  18  19
BRANCH  17  21
ATOM     21  O   UNL     1      -7.471   3.919 124.019  0.00  0.00    +0.000 OA
ATOM     22  H   UNL     1      -8.306   3.632 123.638  0.00  0.00    +0.000 HD
ENDBRANCH  17  21
BRANCH  16  23
ATOM     23  N   UNL     1      -8.720   0.729 124.610  0.00  0.00    +0.000 NA
ATOM     24  H   UNL     1      -9.424   1.463 124.649  0.00  0.00    +0.000 HD
BRANCH  23  25
ATOM     25  C   UNL     1      -8.185   0.370 123.356  0.00  0.00    +0.000 C 
ATOM     26  C   UNL     1      -7.017  -0.611 123.298  0.00  0.00    +0.000 C 
ATOM     27  C   UNL     1      -6.877  -2.001 123.342  0.00  0.00    +0.000 C 
ATOM     28  C   UNL     1      -7.848  -3.191 123.484  0.00  0.00    +0.000 C 
ATOM     29  C   UNL     1      -9.054  -2.451 123.672  0.00  0.00    +0.000 C 
ATOM     30  C   UNL     1      -9.310  -0.462 122.983  0.00  0.00    +0.000 C 
BRANCH  30  31
ATOM     31  O   UNL     1     -10.771   0.317 123.014  0.00  0.00    +0.000 OA
ATOM     32  H   UNL     1     -10.753   1.187 123.446  0.00  0.00    +0.000 HD
ENDBRANCH  30  31
BRANCH  29  33
ATOM     33  O   UNL     1     -10.378  -3.652 123.240  0.00  0.00    +0.000 OA
ATOM     34  H   UNL     1     -10.266  -4.634 123.505  0.00  0.00    +0.000 HD
ENDBRANCH  29  33
BRANCH  28  35
ATOM     35  O   UNL     1      -7.726  -4.033 124.651  0.00  0.00    +0.000 OA
ATOM     36  H   UNL     1      -6.834  -4.427 124.670  0.00  0.00    +0.000 HD
ENDBRANCH  28  35
BRANCH  27  37
ATOM     37  C   UNL     1      -5.585  -2.663 123.148  0.00  0.00    +0.000 C 
BRANCH  37  38
ATOM     38  O   UNL     1      -5.096  -3.106 124.385  0.00  0.00    +0.000 OA
ATOM     39  H   UNL     1      -5.876  -3.201 124.961  0.00  0.00    +0.000 HD
ENDBRANCH  37  38
ENDBRANCH  27  37
ENDBRANCH  23  25
ENDBRANCH  16  23
ENDBRANCH  11  12
ENDBRANCH   4  11
BRANCH   3  40
ATOM     40  C   UNL     1      -8.593   5.442 130.069  0.00  0.00    +0.000 C 
BRANCH  40  41
ATOM     41  O   UNL     1      -7.481   6.167 129.915  0.00  0.00    +0.000 OA
ATOM     42  H   UNL     1      -6.694   6.299 130.482  0.00  0.00    +0.000 HD
ENDBRANCH  40  41
ENDBRANCH   3  40
BRANCH   1  43
ATOM     43  O   UNL     1      -3.711   5.770 130.937  0.00  0.00    +0.000 OA
BRANCH  43  44
ATOM     44  C   UNL     1      -3.631   7.149 131.459  0.00  0.00    +0.000 C 
BRANCH  44  45
ATOM     45  C   UNL     1      -2.419   7.637 132.339  0.00  0.00    +0.000 C 
BRANCH  45  46
ATOM     46  O   UNL     1      -2.965   7.836 133.689  0.00  0.00    +0.000 OA
ATOM     47  H   UNL     1      -3.920   7.579 133.640  0.00  0.00    +0.000 HD
ENDBRANCH  45  46
BRANCH  45  48
ATOM     48  C   UNL     1      -1.042   6.899 132.537  0.00  0.00    +0.000 C 
BRANCH  48  49
ATOM     49  C   UNL     1       0.005   7.667 133.299  0.00  0.00    +0.000 C 
ATOM     50  O   UNL     1       0.047   8.888 133.455  0.00  0.00    +0.000 OA
ENDBRANCH  48  49
BRANCH  48  51
ATOM     51  O   UNL     1      -0.466   6.451 131.350  0.00  0.00    +0.000 OA
ATOM     52  H   UNL     1      -0.832   7.187 130.863  0.00  0.00    +0.000 HD
ENDBRANCH  48  51
ENDBRANCH  45  48
ENDBRANCH  44  45
BRANCH  44  53
ATOM     53  C   UNL     1      -3.999   8.073 130.306  0.00  0.00    +0.000 C 
BRANCH  53  54
ATOM     54  O   UNL     1      -5.396   8.019 130.084  0.00  0.00    +0.000 OA
ATOM     55  H   UNL     1      -5.682   7.157 130.482  0.00  0.00    +0.000 HD
ENDBRANCH  53  54
BRANCH  53  56
ATOM     56  C   UNL     1      -3.350   7.716 128.965  0.00  0.00    +0.000 C 
BRANCH  56  57
ATOM     57  O   UNL     1      -4.095   6.898 128.137  0.00  0.00    +0.000 OA
ATOM     58  H   UNL     1      -3.626   6.522 127.381  0.00  0.00    +0.000 HD
ENDBRANCH  56  57
ENDBRANCH  53  56
ENDBRANCH  44  53
ENDBRANCH  43  44
ENDBRANCH   1  43
TORSDOF 26
ENDMDL
MODEL 3
REMARK VINA RESULT:      -7.4      4.635     11.209
REMARK  Name = Acarbose
REMARK  27 active torsions:
REMARK  status: ('A' for Active; 'I' for Inactive)
REMARK    1  A    between atoms: C_2  and  C_4
REMARK    2  A    between atoms: C_4  and  O_5
REMARK    3  A    between atoms: C_4  and  C_6
REMARK    4  A    between atoms: C_6  and  O_7
REMARK    5  A    between atoms: C_6  and  C_8
REMARK    6  A    between atoms: C_8  and  O_10
REMARK    7  A    between atoms: C_8  and  C_46
REMARK    8  A    between atoms: O_10  and  C_11
REMARK    9  A    between atoms: C_14  and  C_15
REMARK   10  A    between atoms: C_15  and  O_16
REMARK   11  A    between atoms: C_17  and  O_19
REMARK   12  A    between atoms: O_19  and  C_20
REMARK   13  A    between atoms: C_22  and  C_23
REMARK   14  A    between atoms: C_24  and  N_25
REMARK   15  A    between atoms: N_25  and  C_26
REMARK   16  A    between atoms: C_29  and  C_30
REMARK   17  A    between atoms: C_30  and  O_31
REMARK   18  A    between atoms: C_32  and  O_33
REMARK   19  A    between atoms: C_34  and  O_35
REMARK   20  A    between atoms: C_36  and  O_37
REMARK   21  A    between atoms: C_38  and  O_39
REMARK   22  A    between atoms: C_40  and  O_41
REMARK   23  A    between atoms: C_42  and  O_43
REMARK   24  A    between atoms: C_44  and  O_45
REMARK   25  A    between atoms: C_46  and  O_47
REMARK   26  A    between atoms: C_46  and  C_48
REMARK   27  A    between atoms: C_48  and  O_49
REMARK                            x       y       z     vdW  Elec       q    Type
REMARK                         _______ _______ _______ _____ _____    ______ ____
ROOT
ATOM      1  C   UNL     1      -3.736  -2.869 132.480  0.00  0.00    +0.000 C 
ATOM      2  O   UNL     1      -5.024  -3.205 132.797  0.00  0.00    +0.000 OA
ATOM      3  C   UNL     1      -6.133  -1.993 133.027  0.00  0.00    +0.000 C 
ATOM      4  C   UNL     1      -6.045  -1.224 131.729  0.00  0.00    +0.000 C 
ATOM      5  C   UNL     1      -4.712  -1.081 131.151  0.00  0.00    +0.000 C 
ATOM      6  C   UNL     1      -3.908  -2.354 131.092  0.00  0.00    +0.000 C 
ENDROOT
BRANCH   6   7
ATOM      7  O   UNL     1      -2.606  -2.115 130.607  0.00  0.00    +0.000 OA
ATOM      8  H   UNL     1      -2.073  -2.749 131.122  0.00  0.00    +0.000 HD
ENDBRANCH   6   7
BRANCH   5   9
ATOM      9  O   UNL     1      -4.961  -0.678 129.813  0.00  0.00    +0.000 OA
ATOM     10  H   UNL     1      -4.481  -1.301 129.224  0.00  0.00    +0.000 HD
ENDBRANCH   5   9
BRANCH   4  11
ATOM     11  O   UNL     1      -6.868  -0.076 131.873  0.00  0.00    +0.000 OA
BRANCH  11  12
ATOM     12  C   UNL     1      -6.018   1.084 132.086  0.00  0.00    +0.000 C 
ATOM     13  O   UNL     1      -5.968   1.852 130.698  0.00  0.00    +0.000 OA
ATOM     14  C   UNL     1      -7.429   2.648 129.894  0.00  0.00    +0.000 C 
ATOM     15  C   UNL     1      -7.084   3.669 128.062  0.00  0.00    +0.000 C 
ATOM     16  C   UNL     1      -8.194   3.966 131.436  0.00  0.00    +0.000 C 
ATOM     17  C   UNL     1      -8.289   3.221 133.405  0.00  0.00    +0.000 C 
ATOM     18  C   UNL     1      -6.635   1.900 133.808  0.00  0.00    +0.000 C 
BRANCH  18  19
ATOM     19  O   UNL     1      -6.472   0.671 134.497  0.00  0.00    +0.000 OA
ATOM     20  H   UNL     1      -7.282   0.146 134.443  0.00  0.00    +0.000 HD
ENDBRANCH  18  19
BRANCH  17  21
ATOM     21  O   UNL     1      -8.638   4.021 134.492  0.00  0.00    +0.000 OA
ATOM     22  H   UNL     1      -7.874   3.917 135.067  0.00  0.00    +0.000 HD
ENDBRANCH  17  21
BRANCH  16  23
ATOM     23  N   UNL     1      -9.489   4.494 131.155  0.00  0.00    +0.000 NA
ATOM     24  H   UNL     1     -10.139   4.354 131.927  0.00  0.00    +0.000 HD
BRANCH  23  25
ATOM     25  C   UNL     1      -9.130   5.811 130.804  0.00  0.00    +0.000 C 
ATOM     26  C   UNL     1      -9.485   6.335 129.415  0.00  0.00    +0.000 C 
ATOM     27  C   UNL     1     -10.623   6.879 128.814  0.00  0.00    +0.000 C 
ATOM     28  C   UNL     1     -12.060   7.190 129.280  0.00  0.00    +0.000 C 
ATOM     29  C   UNL     1     -11.971   6.646 130.596  0.00  0.00    +0.000 C 
ATOM     30  C   UNL     1     -10.136   6.433 131.639  0.00  0.00    +0.000 C 
BRANCH  30  31
ATOM     31  O   UNL     1     -10.057   6.002 133.236  0.00  0.00    +0.000 OA
ATOM     32  H   UNL     1     -10.920   5.934 133.677  0.00  0.00    +0.000 HD
ENDBRANCH  30  31
BRANCH  29  33
ATOM     33  O   UNL     1     -13.346   7.463 131.503  0.00  0.00    +0.000 OA
ATOM     34  H   UNL     1     -13.142   7.963 132.372  0.00  0.00    +0.000 HD
ENDBRANCH  29  33
BRANCH  28  35
ATOM     35  O   UNL     1     -13.149   6.486 128.644  0.00  0.00    +0.000 OA
ATOM     36  H   UNL     1     -13.633   7.101 128.063  0.00  0.00    +0.000 HD
ENDBRANCH  28  35
BRANCH  27  37
ATOM     37  C   UNL     1     -10.610   7.401 127.445  0.00  0.00    +0.000 C 
BRANCH  37  38
ATOM     38  O   UNL     1     -11.166   6.450 126.578  0.00  0.00    +0.000 OA
ATOM     39  H   UNL     1     -11.256   5.633 127.099  0.00  0.00    +0.000 HD
ENDBRANCH  37  38
ENDBRANCH  27  37
ENDBRANCH  23  25
ENDBRANCH  16  23
ENDBRANCH  11  12
ENDBRANCH   4  11
BRANCH   3  40
ATOM     40  C   UNL     1      -8.178  -2.369 133.601  0.00  0.00    +0.000 C 
BRANCH  40  41
ATOM     41  O   UNL     1      -7.140  -1.969 134.341  0.00  0.00    +0.000 OA
ATOM     42  H   UNL     1      -6.186  -2.190 134.317  0.00  0.00    +0.000 HD
ENDBRANCH  40  41
ENDBRANCH   3  40
BRANCH   1  43
ATOM     43  O   UNL     1      -3.209  -2.304 133.640  0.00  0.00    +0.000 OA
BRANCH  43  44
ATOM     44  C   UNL     1      -3.095  -3.324 134.702  0.00  0.00    +0.000 C 
BRANCH  44  45
ATOM     45  C   UNL     1      -1.754  -4.108 134.962  0.00  0.00    +0.000 C 
BRANCH  45  46
ATOM     46  O   UNL     1      -1.549  -4.946 133.772  0.00  0.00    +0.000 OA
ATOM     47  H   UNL     1      -1.864  -4.411 133.001  0.00  0.00    +0.000 HD
ENDBRANCH  45  46
BRANCH  45  48
ATOM     48  C   UNL     1      -0.348  -3.484 135.296  0.00  0.00    +0.000 C 
BRANCH  48  49
ATOM     49  C   UNL     1       0.063  -2.311 134.446  0.00  0.00    +0.000 C 
ATOM     50  O   UNL     1       1.095  -2.217 133.781  0.00  0.00    +0.000 OA
ENDBRANCH  48  49
BRANCH  48  51
ATOM     51  O   UNL     1       0.696  -4.408 135.287  0.00  0.00    +0.000 OA
ATOM     52  H   UNL     1       0.847  -4.288 136.222  0.00  0.00    +0.000 HD
ENDBRANCH  48  51
ENDBRANCH  45  48
ENDBRANCH  44  45
BRANCH  44  53
ATOM     53  C   UNL     1      -3.743  -2.731 135.946  0.00  0.00    +0.000 C 
BRANCH  53  54
ATOM     54  O   UNL     1      -5.084  -3.174 136.036  0.00  0.00    +0.000 OA
ATOM     55  H   UNL     1      -5.251  -3.652 135.185  0.00  0.00    +0.000 HD
ENDBRANCH  53  54
BRANCH  53  56
ATOM     56  C   UNL     1      -3.808  -1.201 135.968  0.00  0.00    +0.000 C 
BRANCH  56  57
ATOM     57  O   UNL     1      -2.590  -0.549 135.988  0.00  0.00    +0.000 OA
ATOM     58  H   UNL     1      -2.025  -0.684 135.216  0.00  0.00    +0.000 HD
ENDBRANCH  56  57
ENDBRANCH  53  56
ENDBRANCH  44  53
ENDBRANCH  43  44
ENDBRANCH   1  43
TORSDOF 26
ENDMDL
MODEL 4
REMARK VINA RESULT:      -7.3      4.141      7.069
REMARK  Name = Acarbose
REMARK  27 active torsions:
REMARK  status: ('A' for Active; 'I' for Inactive)
REMARK    1  A    between atoms: C_2  and  C_4
REMARK    2  A    between atoms: C_4  and  O_5
REMARK    3  A    between atoms: C_4  and  C_6
REMARK    4  A    between atoms: C_6  and  O_7
REMARK    5  A    between atoms: C_6  and  C_8
REMARK    6  A    between atoms: C_8  and  O_10
REMARK    7  A    between atoms: C_8  and  C_46
REMARK    8  A    between atoms: O_10  and  C_11
REMARK    9  A    between atoms: C_14  and  C_15
REMARK   10  A    between atoms: C_15  and  O_16
REMARK   11  A    between atoms: C_17  and  O_19
REMARK   12  A    between atoms: O_19  and  C_20
REMARK   13  A    between atoms: C_22  and  C_23
REMARK   14  A    between atoms: C_24  and  N_25
REMARK   15  A    between atoms: N_25  and  C_26
REMARK   16  A    between atoms: C_29  and  C_30
REMARK   17  A    between atoms: C_30  and  O_31
REMARK   18  A    between atoms: C_32  and  O_33
REMARK   19  A    between atoms: C_34  and  O_35
REMARK   20  A    between atoms: C_36  and  O_37
REMARK   21  A    between atoms: C_38  and  O_39
REMARK   22  A    between atoms: C_40  and  O_41
REMARK   23  A    between atoms: C_42  and  O_43
REMARK   24  A    between atoms: C_44  and  O_45
REMARK   25  A    between atoms: C_46  and  O_47
REMARK   26  A    between atoms: C_46  and  C_48
REMARK   27  A    between atoms: C_48  and  O_49
REMARK                            x       y       z     vdW  Elec       q    Type
REMARK                         _______ _______ _______ _____ _____    ______ ____
ROOT
ATOM      1  C   UNL     1      -6.960   0.506 125.651  0.00  0.00    +0.000 C 
ATOM      2  O   UNL     1      -7.008   1.774 125.139  0.00  0.00    +0.000 OA
ATOM      3  C   UNL     1      -7.461   3.021 126.135  0.00  0.00    +0.000 C 
ATOM      4  C   UNL     1      -6.476   2.900 127.274  0.00  0.00    +0.000 C 
ATOM      5  C   UNL     1      -6.128   1.543 127.687  0.00  0.00    +0.000 C 
ATOM      6  C   UNL     1      -5.783   0.607 126.558  0.00  0.00    +0.000 C 
ENDROOT
BRANCH   6   7
ATOM      7  O   UNL     1      -5.549  -0.700 127.031  0.00  0.00    +0.000 OA
ATOM      8  H   UNL     1      -6.295  -1.197 126.648  0.00  0.00    +0.000 HD
ENDBRANCH   6   7
BRANCH   5   9
ATOM      9  O   UNL     1      -4.955   1.714 128.467  0.00  0.00    +0.000 OA
ATOM     10  H   UNL     1      -4.199   1.805 127.845  0.00  0.00    +0.000 HD
ENDBRANCH   5   9
BRANCH   4  11
ATOM     11  O   UNL     1      -6.861   3.849 128.256  0.00  0.00    +0.000 OA
BRANCH  11  12
ATOM     12  C   UNL     1      -8.049   3.360 128.938  0.00  0.00    +0.000 C 
ATOM     13  O   UNL     1      -7.536   2.308 130.011  0.00  0.00    +0.000 OA
ATOM     14  C   UNL     1      -6.467   2.732 131.458  0.00  0.00    +0.000 C 
ATOM     15  C   UNL     1      -5.968   1.148 132.784  0.00  0.00    +0.000 C 
ATOM     16  C   UNL     1      -7.568   4.315 132.448  0.00  0.00    +0.000 C 
ATOM     17  C   UNL     1      -8.436   5.810 131.242  0.00  0.00    +0.000 C 
ATOM     18  C   UNL     1      -9.132   4.985 129.377  0.00  0.00    +0.000 C 
BRANCH  18  19
ATOM     19  O   UNL     1      -9.124   5.408 128.023  0.00  0.00    +0.000 OA
ATOM     20  H   UNL     1      -8.215   5.518 127.712  0.00  0.00    +0.000 HD
ENDBRANCH  18  19
BRANCH  17  21
ATOM     21  O   UNL     1      -9.273   6.797 131.760  0.00  0.00    +0.000 OA
ATOM     22  H   UNL     1      -9.309   6.556 132.691  0.00  0.00    +0.000 HD
ENDBRANCH  17  21
BRANCH  16  23
ATOM     23  N   UNL     1      -6.818   5.005 133.446  0.00  0.00    +0.000 NA
ATOM     24  H   UNL     1      -6.990   6.009 133.434  0.00  0.00    +0.000 HD
BRANCH  23  25
ATOM     25  C   UNL     1      -7.210   4.266 134.580  0.00  0.00    +0.000 C 
ATOM     26  C   UNL     1      -6.137   3.654 135.478  0.00  0.00    +0.000 C 
ATOM     27  C   UNL     1      -5.321   4.114 136.515  0.00  0.00    +0.000 C 
ATOM     28  C   UNL     1      -5.122   5.467 137.228  0.00  0.00    +0.000 C 
ATOM     29  C   UNL     1      -6.001   6.253 136.426  0.00  0.00    +0.000 C 
ATOM     30  C   UNL     1      -7.625   5.427 135.339  0.00  0.00    +0.000 C 
BRANCH  30  31
ATOM     31  O   UNL     1      -8.766   6.360 134.583  0.00  0.00    +0.000 OA
ATOM     32  H   UNL     1      -9.381   5.863 134.018  0.00  0.00    +0.000 HD
ENDBRANCH  30  31
BRANCH  29  33
ATOM     33  O   UNL     1      -6.372   7.712 137.482  0.00  0.00    +0.000 OA
ATOM     34  H   UNL     1      -6.255   7.636 138.495  0.00  0.00    +0.000 HD
ENDBRANCH  29  33
BRANCH  28  35
ATOM     35  O   UNL     1      -3.830   6.106 137.125  0.00  0.00    +0.000 OA
ATOM     36  H   UNL     1      -3.941   6.991 136.731  0.00  0.00    +0.000 HD
ENDBRANCH  28  35
BRANCH  27  37
ATOM     37  C   UNL     1      -4.440   3.220 137.271  0.00  0.00    +0.000 C 
BRANCH  37  38
ATOM     38  O   UNL     1      -3.202   3.125 136.620  0.00  0.00    +0.000 OA
ATOM     39  H   UNL     1      -2.780   2.318 136.965  0.00  0.00    +0.000 HD
ENDBRANCH  37  38
ENDBRANCH  27  37
ENDBRANCH  23  25
ENDBRANCH  16  23
ENDBRANCH  11  12
ENDBRANCH   4  11
BRANCH   3  40
ATOM     40  C   UNL     1      -7.651   5.057 125.449  0.00  0.00    +0.000 C 
BRANCH  40  41
ATOM     41  O   UNL     1      -8.562   4.081 125.498  0.00  0.00    +0.000 OA
ATOM     42  H   UNL     1      -9.397   3.981 125.999  0.00  0.00    +0.000 HD
ENDBRANCH  40  41
ENDBRANCH   3  40
BRANCH   1  43
ATOM     43  O   UNL     1      -8.290   0.146 125.863  0.00  0.00    +0.000 OA
BRANCH  43  44
ATOM     44  C   UNL     1      -8.794  -0.652 124.728  0.00  0.00    +0.000 C 
BRANCH  44  45
ATOM     45  C   UNL     1      -9.198   0.012 123.358  0.00  0.00    +0.000 C 
BRANCH  45  46
ATOM     46  O   UNL     1     -10.123  -0.933 122.717  0.00  0.00    +0.000 OA
ATOM     47  H   UNL     1     -10.940  -0.416 122.501  0.00  0.00    +0.000 HD
ENDBRANCH  45  46
BRANCH  45  48
ATOM     48  C   UNL     1      -9.832   1.439 123.154  0.00  0.00    +0.000 C 
BRANCH  48  49
ATOM     49  C   UNL     1      -9.055   2.377 122.269  0.00  0.00    +0.000 C 
ATOM     50  O   UNL     1      -8.623   3.487 122.580  0.00  0.00    +0.000 OA
ENDBRANCH  48  49
BRANCH  48  51
ATOM     51  O   UNL     1     -10.112   2.107 124.345  0.00  0.00    +0.000 OA
ATOM     52  H   UNL     1     -10.373   2.895 123.873  0.00  0.00    +0.000 HD
ENDBRANCH  48  51
ENDBRANCH  45  48
ENDBRANCH  44  45
BRANCH  44  53
ATOM     53  C   UNL     1      -7.880  -1.864 124.609  0.00  0.00    +0.000 C 
BRANCH  53  54
ATOM     54  O   UNL     1      -7.373  -1.946 123.290  0.00  0.00    +0.000 OA
ATOM     55  H   UNL     1      -6.517  -1.449 123.317  0.00  0.00    +0.000 HD
ENDBRANCH  53  54
BRANCH  53  56
ATOM     56  C   UNL     1      -8.561  -3.210 124.878  0.00  0.00    +0.000 C 
BRANCH  56  57
ATOM     57  O   UNL     1      -9.901  -3.280 124.553  0.00  0.00    +0.000 OA
ATOM     58  H   UNL     1     -10.115  -3.758 123.741  0.00  0.00    +0.000 HD
ENDBRANCH  56  57
ENDBRANCH  53  56
ENDBRANCH  44  53
ENDBRANCH  43  44
ENDBRANCH   1  43
TORSDOF 26
ENDMDL
MODEL 5
REMARK VINA RESULT:      -7.2      4.233      9.237
REMARK  Name = Acarbose
REMARK  27 active torsions:
REMARK  status: ('A' for Active; 'I' for Inactive)
REMARK    1  A    between atoms: C_2  and  C_4
REMARK    2  A    between atoms: C_4  and  O_5
REMARK    3  A    between atoms: C_4  and  C_6
REMARK    4  A    between atoms: C_6  and  O_7
REMARK    5  A    between atoms: C_6  and  C_8
REMARK    6  A    between atoms: C_8  and  O_10
REMARK    7  A    between atoms: C_8  and  C_46
REMARK    8  A    between atoms: O_10  and  C_11
REMARK    9  A    between atoms: C_14  and  C_15
REMARK   10  A    between atoms: C_15  and  O_16
REMARK   11  A    between atoms: C_17  and  O_19
REMARK   12  A    between atoms: O_19  and  C_20
REMARK   13  A    between atoms: C_22  and  C_23
REMARK   14  A    between atoms: C_24  and  N_25
REMARK   15  A    between atoms: N_25  and  C_26
REMARK   16  A    between atoms: C_29  and  C_30
REMARK   17  A    between atoms: C_30  and  O_31
REMARK   18  A    between atoms: C_32  and  O_33
REMARK   19  A    between atoms: C_34  and  O_35
REMARK   20  A    between atoms: C_36  and  O_37
REMARK   21  A    between atoms: C_38  and  O_39
REMARK   22  A    between atoms: C_40  and  O_41
REMARK   23  A    between atoms: C_42  and  O_43
REMARK   24  A    between atoms: C_44  and  O_45
REMARK   25  A    between atoms: C_46  and  O_47
REMARK   26  A    between atoms: C_46  and  C_48
REMARK   27  A    between atoms: C_48  and  O_49
REMARK                            x       y       z     vdW  Elec       q    Type
REMARK                         _______ _______ _______ _____ _____    ______ ____
ROOT
ATOM      1  C   UNL     1      -6.037   4.652 131.452  0.00  0.00    +0.000 C 
ATOM      2  O   UNL     1      -6.745   3.623 130.894  0.00  0.00    +0.000 OA
ATOM      3  C   UNL     1      -7.355   3.808 129.363  0.00  0.00    +0.000 C 
ATOM      4  C   UNL     1      -6.121   4.153 128.563  0.00  0.00    +0.000 C 
ATOM      5  C   UNL     1      -5.145   5.020 129.219  0.00  0.00    +0.000 C 
ATOM      6  C   UNL     1      -4.794   4.623 130.630  0.00  0.00    +0.000 C 
ENDROOT
BRANCH   6   7
ATOM      7  O   UNL     1      -3.921   5.558 131.221  0.00  0.00    +0.000 OA
ATOM      8  H   UNL     1      -4.030   6.338 130.647  0.00  0.00    +0.000 HD
ENDBRANCH   6   7
BRANCH   5   9
ATOM      9  O   UNL     1      -3.972   4.869 128.435  0.00  0.00    +0.000 OA
ATOM     10  H   UNL     1      -3.239   5.315 128.914  0.00  0.00    +0.000 HD
ENDBRANCH   5   9
BRANCH   4  11
ATOM     11  O   UNL     1      -6.554   4.464 127.248  0.00  0.00    +0.000 OA
BRANCH  11  12
ATOM     12  C   UNL     1      -5.504   4.098 126.311  0.00  0.00    +0.000 C 
ATOM     13  O   UNL     1      -5.134   2.589 126.636  0.00  0.00    +0.000 OA
ATOM     14  C   UNL     1      -6.289   1.163 126.421  0.00  0.00    +0.000 C 
ATOM     15  C   UNL     1      -5.527  -0.770 126.871  0.00  0.00    +0.000 C 
ATOM     16  C   UNL     1      -6.921   1.335 124.355  0.00  0.00    +0.000 C 
ATOM     17  C   UNL     1      -7.396   3.258 123.631  0.00  0.00    +0.000 C 
ATOM     18  C   UNL     1      -6.121   4.750 124.521  0.00  0.00    +0.000 C 
BRANCH  18  19
ATOM     19  O   UNL     1      -6.305   6.066 125.017  0.00  0.00    +0.000 OA
ATOM     20  H   UNL     1      -6.859   6.052 125.809  0.00  0.00    +0.000 HD
ENDBRANCH  18  19
BRANCH  17  21
ATOM     21  O   UNL     1      -7.685   3.502 122.290  0.00  0.00    +0.000 OA
ATOM     22  H   UNL     1      -7.037   4.179 122.069  0.00  0.00    +0.000 HD
ENDBRANCH  17  21
BRANCH  16  23
ATOM     23  N   UNL     1      -8.032   0.506 124.019  0.00  0.00    +0.000 NA
ATOM     24  H   UNL     1      -8.859   1.049 123.773  0.00  0.00    +0.000 HD
BRANCH  23  25
ATOM     25  C   UNL     1      -7.430  -0.295 123.028  0.00  0.00    +0.000 C 
ATOM     26  C   UNL     1      -6.496  -1.426 123.451  0.00  0.00    +0.000 C 
ATOM     27  C   UNL     1      -6.658  -2.741 123.894  0.00  0.00    +0.000 C 
ATOM     28  C   UNL     1      -7.867  -3.658 124.173  0.00  0.00    +0.000 C 
ATOM     29  C   UNL     1      -8.904  -2.708 123.931  0.00  0.00    +0.000 C 
ATOM     30  C   UNL     1      -8.648  -1.004 122.695  0.00  0.00    +0.000 C 
BRANCH  30  31
ATOM     31  O   UNL     1      -9.905  -0.023 122.248  0.00  0.00    +0.000 OA
ATOM     32  H   UNL     1     -10.009   0.771 122.797  0.00  0.00    +0.000 HD
ENDBRANCH  30  31
BRANCH  29  33
ATOM     33  O   UNL     1     -10.385  -3.749 123.606  0.00  0.00    +0.000 OA
ATOM     34  H   UNL     1     -11.029  -3.479 122.858  0.00  0.00    +0.000 HD
ENDBRANCH  29  33
BRANCH  28  35
ATOM     35  O   UNL     1      -8.073  -4.119 125.526  0.00  0.00    +0.000 OA
ATOM     36  H   UNL     1      -7.722  -5.024 125.613  0.00  0.00    +0.000 HD
ENDBRANCH  28  35
BRANCH  27  37
ATOM     37  C   UNL     1      -5.519  -3.634 124.125  0.00  0.00    +0.000 C 
BRANCH  37  38
ATOM     38  O   UNL     1      -4.405  -3.161 123.418  0.00  0.00    +0.000 OA
ATOM     39  H   UNL     1      -3.692  -3.068 124.075  0.00  0.00    +0.000 HD
ENDBRANCH  37  38
ENDBRANCH  27  37
ENDBRANCH  23  25
ENDBRANCH  16  23
ENDBRANCH  11  12
ENDBRANCH   4  11
BRANCH   3  40
ATOM     40  C   UNL     1      -8.550   2.301 128.387  0.00  0.00    +0.000 C 
BRANCH  40  41
ATOM     41  O   UNL     1      -8.895   3.514 128.832  0.00  0.00    +0.000 OA
ATOM     42  H   UNL     1      -8.469   4.135 129.457  0.00  0.00    +0.000 HD
ENDBRANCH  40  41
ENDBRANCH   3  40
BRANCH   1  43
ATOM     43  O   UNL     1      -6.978   5.647 131.709  0.00  0.00    +0.000 OA
BRANCH  43  44
ATOM     44  C   UNL     1      -7.933   5.197 132.741  0.00  0.00    +0.000 C 
BRANCH  44  45
ATOM     45  C   UNL     1      -9.348   4.613 132.368  0.00  0.00    +0.000 C 
BRANCH  45  46
ATOM     46  O   UNL     1     -10.142   4.683 133.602  0.00  0.00    +0.000 OA
ATOM     47  H   UNL     1     -11.090   4.610 133.324  0.00  0.00    +0.000 HD
ENDBRANCH  45  46
BRANCH  45  48
ATOM     48  C   UNL     1     -10.297   5.110 131.216  0.00  0.00    +0.000 C 
BRANCH  48  49
ATOM     49  C   UNL     1     -11.072   6.368 131.507  0.00  0.00    +0.000 C 
ATOM     50  O   UNL     1     -12.104   6.453 132.174  0.00  0.00    +0.000 OA
ENDBRANCH  48  49
BRANCH  48  51
ATOM     51  O   UNL     1     -11.199   4.144 130.772  0.00  0.00    +0.000 OA
ATOM     52  H   UNL     1     -10.588   3.842 130.103  0.00  0.00    +0.000 HD
ENDBRANCH  48  51
ENDBRANCH  45  48
ENDBRANCH  44  45
BRANCH  44  53
ATOM     53  C   UNL     1      -7.137   4.364 133.737  0.00  0.00    +0.000 C 
BRANCH  53  54
ATOM     54  O   UNL     1      -7.776   3.116 133.928  0.00  0.00    +0.000 OA
ATOM     55  H   UNL     1      -8.594   3.164 133.372  0.00  0.00    +0.000 HD
ENDBRANCH  53  54
BRANCH  53  56
ATOM     56  C   UNL     1      -7.007   4.983 135.132  0.00  0.00    +0.000 C 
BRANCH  56  57
ATOM     57  O   UNL     1      -6.118   6.034 135.242  0.00  0.00    +0.000 OA
ATOM     58  H   UNL     1      -6.293   6.798 134.678  0.00  0.00    +0.000 HD
ENDBRANCH  56  57
ENDBRANCH  53  56
ENDBRANCH  44  53
ENDBRANCH  43  44
ENDBRANCH   1  43
TORSDOF 26
ENDMDL
MODEL 6
REMARK VINA RESULT:      -7.2      4.171      8.951
REMARK  Name = Acarbose
REMARK  27 active torsions:
REMARK  status: ('A' for Active; 'I' for Inactive)
REMARK    1  A    between atoms: C_2  and  C_4
REMARK    2  A    between atoms: C_4  and  O_5
REMARK    3  A    between atoms: C_4  and  C_6
REMARK    4  A    between atoms: C_6  and  O_7
REMARK    5  A    between atoms: C_6  and  C_8
REMARK    6  A    between atoms: C_8  and  O_10
REMARK    7  A    between atoms: C_8  and  C_46
REMARK    8  A    between atoms: O_10  and  C_11
REMARK    9  A    between atoms: C_14  and  C_15
REMARK   10  A    between atoms: C_15  and  O_16
REMARK   11  A    between atoms: C_17  and  O_19
REMARK   12  A    between atoms: O_19  and  C_20
REMARK   13  A    between atoms: C_22  and  C_23
REMARK   14  A    between atoms: C_24  and  N_25
REMARK   15  A    between atoms: N_25  and  C_26
REMARK   16  A    between atoms: C_29  and  C_30
REMARK   17  A    between atoms: C_30  and  O_31
REMARK   18  A    between atoms: C_32  and  O_33
REMARK   19  A    between atoms: C_34  and  O_35
REMARK   20  A    between atoms: C_36  and  O_37
REMARK   21  A    between atoms: C_38  and  O_39
REMARK   22  A    between atoms: C_40  and  O_41
REMARK   23  A    between atoms: C_42  and  O_43
REMARK   24  A    between atoms: C_44  and  O_45
REMARK   25  A    between atoms: C_46  and  O_47
REMARK   26  A    between atoms: C_46  and  C_48
REMARK   27  A    between atoms: C_48  and  O_49
REMARK                            x       y       z     vdW  Elec       q    Type
REMARK                         _______ _______ _______ _____ _____    ______ ____
ROOT
ATOM      1  C   UNL     1      -6.683   5.015 132.368  0.00  0.00    +0.000 C 
ATOM      2  O   UNL     1      -7.903   5.491 131.975  0.00  0.00    +0.000 OA
ATOM      3  C   UNL     1      -8.394   5.239 130.410  0.00  0.00    +0.000 C 
ATOM      4  C   UNL     1      -8.297   3.737 130.280  0.00  0.00    +0.000 C 
ATOM      5  C   UNL     1      -7.163   3.101 130.947  0.00  0.00    +0.000 C 
ATOM      6  C   UNL     1      -6.935   3.546 132.368  0.00  0.00    +0.000 C 
ENDROOT
BRANCH   6   7
ATOM      7  O   UNL     1      -5.774   2.957 132.908  0.00  0.00    +0.000 OA
ATOM      8  H   UNL     1      -6.059   2.038 133.062  0.00  0.00    +0.000 HD
ENDBRANCH   6   7
BRANCH   5   9
ATOM      9  O   UNL     1      -7.518   1.727 130.987  0.00  0.00    +0.000 OA
ATOM     10  H   UNL     1      -7.930   1.556 131.863  0.00  0.00    +0.000 HD
ENDBRANCH   5   9
BRANCH   4  11
ATOM     11  O   UNL     1      -8.572   3.421 128.924  0.00  0.00    +0.000 OA
BRANCH  11  12
ATOM     12  C   UNL     1      -7.318   3.129 128.248  0.00  0.00    +0.000 C 
ATOM     13  O   UNL     1      -7.187   1.548 128.229  0.00  0.00    +0.000 OA
ATOM     14  C   UNL     1      -8.331   0.418 127.318  0.00  0.00    +0.000 C 
ATOM     15  C   UNL     1      -7.902  -1.662 127.403  0.00  0.00    +0.000 C 
ATOM     16  C   UNL     1      -8.282   1.183 125.290  0.00  0.00    +0.000 C 
ATOM     17  C   UNL     1      -8.356   3.274 125.028  0.00  0.00    +0.000 C 
ATOM     18  C   UNL     1      -7.300   4.285 126.613  0.00  0.00    +0.000 C 
BRANCH  18  19
ATOM     19  O   UNL     1      -7.522   5.454 127.385  0.00  0.00    +0.000 OA
ATOM     20  H   UNL     1      -8.081   5.251 128.147  0.00  0.00    +0.000 HD
ENDBRANCH  18  19
BRANCH  17  21
ATOM     21  O   UNL     1      -8.198   3.878 123.782  0.00  0.00    +0.000 OA
ATOM     22  H   UNL     1      -8.324   4.807 123.997  0.00  0.00    +0.000 HD
ENDBRANCH  17  21
BRANCH  16  23
ATOM     23  N   UNL     1      -9.298   0.648 124.445  0.00  0.00    +0.000 NA
ATOM     24  H   UNL     1     -10.052   1.313 124.278  0.00  0.00    +0.000 HD
BRANCH  23  25
ATOM     25  C   UNL     1      -8.502   0.242 123.356  0.00  0.00    +0.000 C 
ATOM     26  C   UNL     1      -7.303  -0.669 123.609  0.00  0.00    +0.000 C 
ATOM     27  C   UNL     1      -7.112  -2.042 123.786  0.00  0.00    +0.000 C 
ATOM     28  C   UNL     1      -8.035  -3.277 123.818  0.00  0.00    +0.000 C 
ATOM     29  C   UNL     1      -9.286  -2.600 123.703  0.00  0.00    +0.000 C 
ATOM     30  C   UNL     1      -9.486  -0.679 122.827  0.00  0.00    +0.000 C 
BRANCH  30  31
ATOM     31  O   UNL     1     -10.957   0.011 122.504  0.00  0.00    +0.000 OA
ATOM     32  H   UNL     1     -10.999   0.966 122.676  0.00  0.00    +0.000 HD
ENDBRANCH  30  31
BRANCH  29  33
ATOM     33  O   UNL     1     -10.437  -3.904 123.105  0.00  0.00    +0.000 OA
ATOM     34  H   UNL     1     -10.771  -4.613 123.762  0.00  0.00    +0.000 HD
ENDBRANCH  29  33
BRANCH  28  35
ATOM     35  O   UNL     1      -8.117  -4.033 125.046  0.00  0.00    +0.000 OA
ATOM     36  H   UNL     1      -7.546  -3.616 125.718  0.00  0.00    +0.000 HD
ENDBRANCH  28  35
BRANCH  27  37
ATOM     37  C   UNL     1      -5.778  -2.636 123.907  0.00  0.00    +0.000 C 
BRANCH  37  38
ATOM     38  O   UNL     1      -5.464  -2.805 125.262  0.00  0.00    +0.000 OA
ATOM     39  H   UNL     1      -5.778  -2.001 125.712  0.00  0.00    +0.000 HD
ENDBRANCH  37  38
ENDBRANCH  27  37
ENDBRANCH  23  25
ENDBRANCH  16  23
ENDBRANCH  11  12
ENDBRANCH   4  11
BRANCH   3  40
ATOM     40  C   UNL     1     -10.257   5.994 129.630  0.00  0.00    +0.000 C 
BRANCH  40  41
ATOM     41  O   UNL     1      -9.029   6.517 129.572  0.00  0.00    +0.000 OA
ATOM     42  H   UNL     1      -8.706   7.432 129.442  0.00  0.00    +0.000 HD
ENDBRANCH  40  41
ENDBRANCH   3  40
BRANCH   1  43
ATOM     43  O   UNL     1      -5.749   5.815 131.712  0.00  0.00    +0.000 OA
BRANCH  43  44
ATOM     44  C   UNL     1      -4.390   5.259 131.878  0.00  0.00    +0.000 C 
BRANCH  44  45
ATOM     45  C   UNL     1      -3.584   4.659 130.665  0.00  0.00    +0.000 C 
BRANCH  45  46
ATOM     46  O   UNL     1      -3.722   3.201 130.781  0.00  0.00    +0.000 OA
ATOM     47  H   UNL     1      -4.608   2.978 130.398  0.00  0.00    +0.000 HD
ENDBRANCH  45  46
BRANCH  45  48
ATOM     48  C   UNL     1      -3.790   4.992 129.141  0.00  0.00    +0.000 C 
BRANCH  48  49
ATOM     49  C   UNL     1      -2.667   5.749 128.482  0.00  0.00    +0.000 C 
ATOM     50  O   UNL     1      -1.853   6.485 129.042  0.00  0.00    +0.000 OA
ENDBRANCH  48  49
BRANCH  48  51
ATOM     51  O   UNL     1      -4.979   5.663 128.865  0.00  0.00    +0.000 OA
ATOM     52  H   UNL     1      -5.168   5.084 128.130  0.00  0.00    +0.000 HD
ENDBRANCH  48  51
ENDBRANCH  45  48
ENDBRANCH  44  45
BRANCH  44  53
ATOM     53  C   UNL     1      -3.616   6.251 132.736  0.00  0.00    +0.000 C 
BRANCH  53  54
ATOM     54  O   UNL     1      -2.930   7.165 131.901  0.00  0.00    +0.000 OA
ATOM     55  H   UNL     1      -2.053   7.301 132.342  0.00  0.00    +0.000 HD
ENDBRANCH  53  54
BRANCH  53  56
ATOM     56  C   UNL     1      -2.547   5.624 133.635  0.00  0.00    +0.000 C 
BRANCH  56  57
ATOM     57  O   UNL     1      -2.592   4.249 133.752  0.00  0.00    +0.000 OA
ATOM     58  H   UNL     1      -3.173   3.901 134.441  0.00  0.00    +0.000 HD
ENDBRANCH  56  57
ENDBRANCH  53  56
ENDBRANCH  44  53
ENDBRANCH  43  44
ENDBRANCH   1  43
TORSDOF 26
ENDMDL
MODEL 7
REMARK VINA RESULT:      -7.1      4.244      9.431
REMARK  Name = Acarbose
REMARK  27 active torsions:
REMARK  status: ('A' for Active; 'I' for Inactive)
REMARK    1  A    between atoms: C_2  and  C_4
REMARK    2  A    between atoms: C_4  and  O_5
REMARK    3  A    between atoms: C_4  and  C_6
REMARK    4  A    between atoms: C_6  and  O_7
REMARK    5  A    between atoms: C_6  and  C_8
REMARK    6  A    between atoms: C_8  and  O_10
REMARK    7  A    between atoms: C_8  and  C_46
REMARK    8  A    between atoms: O_10  and  C_11
REMARK    9  A    between atoms: C_14  and  C_15
REMARK   10  A    between atoms: C_15  and  O_16
REMARK   11  A    between atoms: C_17  and  O_19
REMARK   12  A    between atoms: O_19  and  C_20
REMARK   13  A    between atoms: C_22  and  C_23
REMARK   14  A    between atoms: C_24  and  N_25
REMARK   15  A    between atoms: N_25  and  C_26
REMARK   16  A    between atoms: C_29  and  C_30
REMARK   17  A    between atoms: C_30  and  O_31
REMARK   18  A    between atoms: C_32  and  O_33
REMARK   19  A    between atoms: C_34  and  O_35
REMARK   20  A    between atoms: C_36  and  O_37
REMARK   21  A    between atoms: C_38  and  O_39
REMARK   22  A    between atoms: C_40  and  O_41
REMARK   23  A    between atoms: C_42  and  O_43
REMARK   24  A    between atoms: C_44  and  O_45
REMARK   25  A    between atoms: C_46  and  O_47
REMARK   26  A    between atoms: C_46  and  C_48
REMARK   27  A    between atoms: C_48  and  O_49
REMARK                            x       y       z     vdW  Elec       q    Type
REMARK                         _______ _______ _______ _____ _____    ______ ____
ROOT
ATOM      1  C   UNL     1      -5.627   5.395 132.240  0.00  0.00    +0.000 C 
ATOM      2  O   UNL     1      -5.953   4.074 132.100  0.00  0.00    +0.000 OA
ATOM      3  C   UNL     1      -6.691   3.576 130.701  0.00  0.00    +0.000 C 
ATOM      4  C   UNL     1      -5.721   4.042 129.640  0.00  0.00    +0.000 C 
ATOM      5  C   UNL     1      -5.081   5.334 129.871  0.00  0.00    +0.000 C 
ATOM      6  C   UNL     1      -4.516   5.522 131.255  0.00  0.00    +0.000 C 
ENDROOT
BRANCH   6   7
ATOM      7  O   UNL     1      -3.999   6.823 131.424  0.00  0.00    +0.000 OA
ATOM      8  H   UNL     1      -3.211   6.809 130.851  0.00  0.00    +0.000 HD
ENDBRANCH   6   7
BRANCH   5   9
ATOM      9  O   UNL     1      -3.989   5.341 128.965  0.00  0.00    +0.000 OA
ATOM     10  H   UNL     1      -4.084   6.137 128.396  0.00  0.00    +0.000 HD
ENDBRANCH   5   9
BRANCH   4  11
ATOM     11  O   UNL     1      -6.326   3.779 128.383  0.00  0.00    +0.000 OA
BRANCH  11  12
ATOM     12  C   UNL     1      -5.304   3.305 127.463  0.00  0.00    +0.000 C 
ATOM     13  O   UNL     1      -5.349   1.720 127.538  0.00  0.00    +0.000 OA
ATOM     14  C   UNL     1      -6.788   0.692 127.002  0.00  0.00    +0.000 C 
ATOM     15  C   UNL     1      -6.572  -1.417 127.147  0.00  0.00    +0.000 C 
ATOM     16  C   UNL     1      -7.138   1.342 124.964  0.00  0.00    +0.000 C 
ATOM     17  C   UNL     1      -7.051   3.410 124.565  0.00  0.00    +0.000 C 
ATOM     18  C   UNL     1      -5.551   4.365 125.783  0.00  0.00    +0.000 C 
BRANCH  18  19
ATOM     19  O   UNL     1      -5.460   5.590 126.492  0.00  0.00    +0.000 OA
ATOM     20  H   UNL     1      -6.344   5.923 126.701  0.00  0.00    +0.000 HD
ENDBRANCH  18  19
BRANCH  17  21
ATOM     21  O   UNL     1      -7.128   3.927 123.273  0.00  0.00    +0.000 OA
ATOM     22  H   UNL     1      -6.208   3.901 122.995  0.00  0.00    +0.000 HD
ENDBRANCH  17  21
BRANCH  16  23
ATOM     23  N   UNL     1      -8.376   0.890 124.417  0.00  0.00    +0.000 NA
ATOM     24  H   UNL     1      -9.085   1.622 124.411  0.00  0.00    +0.000 HD
BRANCH  23  25
ATOM     25  C   UNL     1      -7.913   0.387 123.185  0.00  0.00    +0.000 C 
ATOM     26  C   UNL     1      -6.803  -0.661 123.179  0.00  0.00    +0.000 C 
ATOM     27  C   UNL     1      -6.737  -2.047 123.351  0.00  0.00    +0.000 C 
ATOM     28  C   UNL     1      -7.764  -3.161 123.640  0.00  0.00    +0.000 C 
ATOM     29  C   UNL     1      -8.919  -2.338 123.800  0.00  0.00    +0.000 C 
ATOM     30  C   UNL     1      -9.095  -0.411 122.933  0.00  0.00    +0.000 C 
BRANCH  30  31
ATOM     31  O   UNL     1     -10.510   0.451 122.942  0.00  0.00    +0.000 OA
ATOM     32  H   UNL     1     -10.547   1.155 123.610  0.00  0.00    +0.000 HD
ENDBRANCH  30  31
BRANCH  29  33
ATOM     33  O   UNL     1     -10.322  -3.496 123.532  0.00  0.00    +0.000 OA
ATOM     34  H   UNL     1     -10.239  -4.222 122.816  0.00  0.00    +0.000 HD
ENDBRANCH  29  33
BRANCH  28  35
ATOM     35  O   UNL     1      -7.639  -3.896 124.877  0.00  0.00    +0.000 OA
ATOM     36  H   UNL     1      -7.209  -3.331 125.544  0.00  0.00    +0.000 HD
ENDBRANCH  28  35
BRANCH  27  37
ATOM     37  C   UNL     1      -5.491  -2.797 123.174  0.00  0.00    +0.000 C 
BRANCH  37  38
ATOM     38  O   UNL     1      -5.012  -3.207 124.426  0.00  0.00    +0.000 OA
ATOM     39  H   UNL     1      -4.692  -2.400 124.867  0.00  0.00    +0.000 HD
ENDBRANCH  37  38
ENDBRANCH  27  37
ENDBRANCH  23  25
ENDBRANCH  16  23
ENDBRANCH  11  12
ENDBRANCH   4  11
BRANCH   3  40
ATOM     40  C   UNL     1      -7.327   1.542 130.371  0.00  0.00    +0.000 C 
BRANCH  40  41
ATOM     41  O   UNL     1      -8.025   2.600 130.794  0.00  0.00    +0.000 OA
ATOM     42  H   UNL     1      -8.302   3.429 130.353  0.00  0.00    +0.000 HD
ENDBRANCH  40  41
ENDBRANCH   3  40
BRANCH   1  43
ATOM     43  O   UNL     1      -6.843   6.060 132.385  0.00  0.00    +0.000 OA
BRANCH  43  44
ATOM     44  C   UNL     1      -7.621   5.472 133.494  0.00  0.00    +0.000 C 
BRANCH  44  45
ATOM     45  C   UNL     1      -7.172   5.621 134.996  0.00  0.00    +0.000 C 
BRANCH  45  46
ATOM     46  O   UNL     1      -8.415   5.666 135.778  0.00  0.00    +0.000 OA
ATOM     47  H   UNL     1      -8.318   4.984 136.489  0.00  0.00    +0.000 HD
ENDBRANCH  45  46
BRANCH  45  48
ATOM     48  C   UNL     1      -6.200   4.668 135.787  0.00  0.00    +0.000 C 
BRANCH  48  49
ATOM     49  C   UNL     1      -4.854   5.249 136.129  0.00  0.00    +0.000 C 
ATOM     50  O   UNL     1      -4.171   5.984 135.414  0.00  0.00    +0.000 OA
ENDBRANCH  48  49
BRANCH  48  51
ATOM     51  O   UNL     1      -5.991   3.436 135.169  0.00  0.00    +0.000 OA
ATOM     52  H   UNL     1      -6.582   3.664 134.454  0.00  0.00    +0.000 HD
ENDBRANCH  48  51
ENDBRANCH  45  48
ENDBRANCH  44  45
BRANCH  44  53
ATOM     53  C   UNL     1      -9.083   5.805 133.224  0.00  0.00    +0.000 C 
BRANCH  53  54
ATOM     54  O   UNL     1      -9.877   4.653 133.435  0.00  0.00    +0.000 OA
ATOM     55  H   UNL     1      -9.261   3.891 133.289  0.00  0.00    +0.000 HD
ENDBRANCH  53  54
BRANCH  53  56
ATOM     56  C   UNL     1      -9.383   6.263 131.794  0.00  0.00    +0.000 C 
BRANCH  56  57
ATOM     57  O   UNL     1      -9.527   5.256 130.860  0.00  0.00    +0.000 OA
ATOM     58  H   UNL     1      -9.732   4.379 131.210  0.00  0.00    +0.000 HD
ENDBRANCH  56  57
ENDBRANCH  53  56
ENDBRANCH  44  53
ENDBRANCH  43  44
ENDBRANCH   1  43
TORSDOF 26
ENDMDL
MODEL 8
REMARK VINA RESULT:      -7.0      4.013      6.945
REMARK  Name = Acarbose
REMARK  27 active torsions:
REMARK  status: ('A' for Active; 'I' for Inactive)
REMARK    1  A    between atoms: C_2  and  C_4
REMARK    2  A    between atoms: C_4  and  O_5
REMARK    3  A    between atoms: C_4  and  C_6
REMARK    4  A    between atoms: C_6  and  O_7
REMARK    5  A    between atoms: C_6  and  C_8
REMARK    6  A    between atoms: C_8  and  O_10
REMARK    7  A    between atoms: C_8  and  C_46
REMARK    8  A    between atoms: O_10  and  C_11
REMARK    9  A    between atoms: C_14  and  C_15
REMARK   10  A    between atoms: C_15  and  O_16
REMARK   11  A    between atoms: C_17  and  O_19
REMARK   12  A    between atoms: O_19  and  C_20
REMARK   13  A    between atoms: C_22  and  C_23
REMARK   14  A    between atoms: C_24  and  N_25
REMARK   15  A    between atoms: N_25  and  C_26
REMARK   16  A    between atoms: C_29  and  C_30
REMARK   17  A    between atoms: C_30  and  O_31
REMARK   18  A    between atoms: C_32  and  O_33
REMARK   19  A    between atoms: C_34  and  O_35
REMARK   20  A    between atoms: C_36  and  O_37
REMARK   21  A    between atoms: C_38  and  O_39
REMARK   22  A    between atoms: C_40  and  O_41
REMARK   23  A    between atoms: C_42  and  O_43
REMARK   24  A    between atoms: C_44  and  O_45
REMARK   25  A    between atoms: C_46  and  O_47
REMARK   26  A    between atoms: C_46  and  C_48
REMARK   27  A    between atoms: C_48  and  O_49
REMARK                            x       y       z     vdW  Elec       q    Type
REMARK                         _______ _______ _______ _____ _____    ______ ____
ROOT
ATOM      1  C   UNL     1      -6.459   0.666 125.065  0.00  0.00    +0.000 C 
ATOM      2  O   UNL     1      -6.305   1.973 124.693  0.00  0.00    +0.000 OA
ATOM      3  C   UNL     1      -6.759   3.166 125.753  0.00  0.00    +0.000 C 
ATOM      4  C   UNL     1      -5.956   2.824 126.986  0.00  0.00    +0.000 C 
ATOM      5  C   UNL     1      -5.810   1.402 127.290  0.00  0.00    +0.000 C 
ATOM      6  C   UNL     1      -5.412   0.543 126.119  0.00  0.00    +0.000 C 
ENDROOT
BRANCH   6   7
ATOM      7  O   UNL     1      -5.381  -0.821 126.472  0.00  0.00    +0.000 OA
ATOM      8  H   UNL     1      -4.836  -1.208 125.763  0.00  0.00    +0.000 HD
ENDBRANCH   6   7
BRANCH   5   9
ATOM      9  O   UNL     1      -4.743   1.361 128.225  0.00  0.00    +0.000 OA
ATOM     10  H   UNL     1      -4.085   2.038 127.950  0.00  0.00    +0.000 HD
ENDBRANCH   5   9
BRANCH   4  11
ATOM     11  O   UNL     1      -6.372   3.715 128.010  0.00  0.00    +0.000 OA
BRANCH  11  12
ATOM     12  C   UNL     1      -7.590   3.198 128.613  0.00  0.00    +0.000 C 
ATOM     13  O   UNL     1      -7.125   2.163 129.723  0.00  0.00    +0.000 OA
ATOM     14  C   UNL     1      -6.168   2.619 131.237  0.00  0.00    +0.000 C 
ATOM     15  C   UNL     1      -5.720   1.053 132.602  0.00  0.00    +0.000 C 
ATOM     16  C   UNL     1      -7.373   4.177 132.142  0.00  0.00    +0.000 C 
ATOM     17  C   UNL     1      -8.194   5.646 130.873  0.00  0.00    +0.000 C 
ATOM     18  C   UNL     1      -8.741   4.797 128.969  0.00  0.00    +0.000 C 
BRANCH  18  19
ATOM     19  O   UNL     1      -8.652   5.215 127.616  0.00  0.00    +0.000 OA
ATOM     20  H   UNL     1      -9.532   5.404 127.264  0.00  0.00    +0.000 HD
ENDBRANCH  18  19
BRANCH  17  21
ATOM     21  O   UNL     1      -9.089   6.613 131.327  0.00  0.00    +0.000 OA
ATOM     22  H   UNL     1      -8.677   6.890 132.151  0.00  0.00    +0.000 HD
ENDBRANCH  17  21
BRANCH  16  23
ATOM     23  N   UNL     1      -6.709   4.889 133.185  0.00  0.00    +0.000 NA
ATOM     24  H   UNL     1      -6.902   5.889 133.153  0.00  0.00    +0.000 HD
BRANCH  23  25
ATOM     25  C   UNL     1      -7.163   4.148 134.295  0.00  0.00    +0.000 C 
ATOM     26  C   UNL     1      -6.141   3.511 135.233  0.00  0.00    +0.000 C 
ATOM     27  C   UNL     1      -5.365   3.949 136.310  0.00  0.00    +0.000 C 
ATOM     28  C   UNL     1      -5.175   5.293 137.042  0.00  0.00    +0.000 C 
ATOM     29  C   UNL     1      -6.005   6.100 136.208  0.00  0.00    +0.000 C 
ATOM     30  C   UNL     1      -7.593   5.310 135.044  0.00  0.00    +0.000 C 
BRANCH  30  31
ATOM     31  O   UNL     1      -8.683   6.268 134.247  0.00  0.00    +0.000 OA
ATOM     32  H   UNL     1      -9.248   6.804 134.828  0.00  0.00    +0.000 HD
ENDBRANCH  30  31
BRANCH  29  33
ATOM     33  O   UNL     1      -6.398   7.557 137.259  0.00  0.00    +0.000 OA
ATOM     34  H   UNL     1      -7.186   8.158 137.003  0.00  0.00    +0.000 HD
ENDBRANCH  29  33
BRANCH  28  35
ATOM     35  O   UNL     1      -3.870   5.911 137.001  0.00  0.00    +0.000 OA
ATOM     36  H   UNL     1      -3.188   5.231 137.151  0.00  0.00    +0.000 HD
ENDBRANCH  28  35
BRANCH  27  37
ATOM     37  C   UNL     1      -4.533   3.035 137.096  0.00  0.00    +0.000 C 
BRANCH  37  38
ATOM     38  O   UNL     1      -3.190   3.190 136.725  0.00  0.00    +0.000 OA
ATOM     39  H   UNL     1      -3.111   4.099 136.384  0.00  0.00    +0.000 HD
ENDBRANCH  37  38
ENDBRANCH  27  37
ENDBRANCH  23  25
ENDBRANCH  16  23
ENDBRANCH  11  12
ENDBRANCH   4  11
BRANCH   3  40
ATOM     40  C   UNL     1      -6.641   5.266 125.275  0.00  0.00    +0.000 C 
BRANCH  40  41
ATOM     41  O   UNL     1      -7.664   4.414 125.151  0.00  0.00    +0.000 OA
ATOM     42  H   UNL     1      -8.624   4.504 125.322  0.00  0.00    +0.000 HD
ENDBRANCH  40  41
ENDBRANCH   3  40
BRANCH   1  43
ATOM     43  O   UNL     1      -7.835   0.446 125.069  0.00  0.00    +0.000 OA
BRANCH  43  44
ATOM     44  C   UNL     1      -8.253  -0.220 123.818  0.00  0.00    +0.000 C 
BRANCH  44  45
ATOM     45  C   UNL     1      -8.237  -1.787 123.665  0.00  0.00    +0.000 C 
BRANCH  45  46
ATOM     46  O   UNL     1      -7.738  -2.047 122.308  0.00  0.00    +0.000 OA
ATOM     47  H   UNL     1      -7.387  -1.183 121.973  0.00  0.00    +0.000 HD
ENDBRANCH  45  46
BRANCH  45  48
ATOM     48  C   UNL     1      -7.500  -2.817 124.599  0.00  0.00    +0.000 C 
BRANCH  48  49
ATOM     49  C   UNL     1      -6.112  -3.210 124.168  0.00  0.00    +0.000 C 
ATOM     50  O   UNL     1      -5.168  -2.447 123.958  0.00  0.00    +0.000 OA
ENDBRANCH  48  49
BRANCH  48  51
ATOM     51  O   UNL     1      -8.223  -3.986 124.832  0.00  0.00    +0.000 OA
ATOM     52  H   UNL     1      -8.441  -4.068 123.906  0.00  0.00    +0.000 HD
ENDBRANCH  48  51
ENDBRANCH  45  48
ENDBRANCH  44  45
BRANCH  44  53
ATOM     53  C   UNL     1      -9.543   0.457 123.376  0.00  0.00    +0.000 C 
BRANCH  53  54
ATOM     54  O   UNL     1     -10.207  -0.363 122.431  0.00  0.00    +0.000 OA
ATOM     55  H   UNL     1     -10.659  -1.058 122.973  0.00  0.00    +0.000 HD
ENDBRANCH  53  54
BRANCH  53  56
ATOM     56  C   UNL     1      -9.355   1.813 122.690  0.00  0.00    +0.000 C 
BRANCH  56  57
ATOM     57  O   UNL     1      -9.202   2.896 123.534  0.00  0.00    +0.000 OA
ATOM     58  H   UNL     1      -8.420   2.884 124.101  0.00  0.00    +0.000 HD
ENDBRANCH  56  57
ENDBRANCH  53  56
ENDBRANCH  44  53
ENDBRANCH  43  44
ENDBRANCH   1  43
TORSDOF 26
ENDMDL
MODEL 9
REMARK VINA RESULT:      -6.9      4.394     10.998
REMARK  Name = Acarbose
REMARK  27 active torsions:
REMARK  status: ('A' for Active; 'I' for Inactive)
REMARK    1  A    between atoms: C_2  and  C_4
REMARK    2  A    between atoms: C_4  and  O_5
REMARK    3  A    between atoms: C_4  and  C_6
REMARK    4  A    between atoms: C_6  and  O_7
REMARK    5  A    between atoms: C_6  and  C_8
REMARK    6  A    between atoms: C_8  and  O_10
REMARK    7  A    between atoms: C_8  and  C_46
REMARK    8  A    between atoms: O_10  and  C_11
REMARK    9  A    between atoms: C_14  and  C_15
REMARK   10  A    between atoms: C_15  and  O_16
REMARK   11  A    between atoms: C_17  and  O_19
REMARK   12  A    between atoms: O_19  and  C_20
REMARK   13  A    between atoms: C_22  and  C_23
REMARK   14  A    between atoms: C_24  and  N_25
REMARK   15  A    between atoms: N_25  and  C_26
REMARK   16  A    between atoms: C_29  and  C_30
REMARK   17  A    between atoms: C_30  and  O_31
REMARK   18  A    between atoms: C_32  and  O_33
REMARK   19  A    between atoms: C_34  and  O_35
REMARK   20  A    between atoms: C_36  and  O_37
REMARK   21  A    between atoms: C_38  and  O_39
REMARK   22  A    between atoms: C_40  and  O_41
REMARK   23  A    between atoms: C_42  and  O_43
REMARK   24  A    between atoms: C_44  and  O_45
REMARK   25  A    between atoms: C_46  and  O_47
REMARK   26  A    between atoms: C_46  and  C_48
REMARK   27  A    between atoms: C_48  and  O_49
REMARK                            x       y       z     vdW  Elec       q    Type
REMARK                         _______ _______ _______ _____ _____    ______ ____
ROOT
ATOM      1  C   UNL     1      -4.472  -3.444 131.574  0.00  0.00    +0.000 C 
ATOM      2  O   UNL     1      -5.254  -3.078 130.514  0.00  0.00    +0.000 OA
ATOM      3  C   UNL     1      -6.434  -1.935 130.747  0.00  0.00    +0.000 C 
ATOM      4  C   UNL     1      -5.650  -0.772 131.308  0.00  0.00    +0.000 C 
ATOM      5  C   UNL     1      -4.570  -1.105 132.234  0.00  0.00    +0.000 C 
ATOM      6  C   UNL     1      -3.658  -2.211 131.769  0.00  0.00    +0.000 C 
ENDROOT
BRANCH   6   7
ATOM      7  O   UNL     1      -2.703  -2.533 132.754  0.00  0.00    +0.000 OA
ATOM      8  H   UNL     1      -2.768  -1.775 133.363  0.00  0.00    +0.000 HD
ENDBRANCH   6   7
BRANCH   5   9
ATOM      9  O   UNL     1      -3.795   0.083 132.296  0.00  0.00    +0.000 OA
ATOM     10  H   UNL     1      -3.186   0.077 131.525  0.00  0.00    +0.000 HD
ENDBRANCH   5   9
BRANCH   4  11
ATOM     11  O   UNL     1      -6.593   0.226 131.670  0.00  0.00    +0.000 OA
BRANCH  11  12
ATOM     12  C   UNL     1      -5.874   1.423 132.076  0.00  0.00    +0.000 C 
ATOM     13  O   UNL     1      -5.740   2.318 130.772  0.00  0.00    +0.000 OA
ATOM     14  C   UNL     1      -7.168   3.072 129.874  0.00  0.00    +0.000 C 
ATOM     15  C   UNL     1      -6.715   4.281 128.186  0.00  0.00    +0.000 C 
ATOM     16  C   UNL     1      -8.206   4.179 131.421  0.00  0.00    +0.000 C 
ATOM     17  C   UNL     1      -8.449   3.250 133.298  0.00  0.00    +0.000 C 
ATOM     18  C   UNL     1      -6.741   2.027 133.777  0.00  0.00    +0.000 C 
BRANCH  18  19
ATOM     19  O   UNL     1      -6.549   0.755 134.376  0.00  0.00    +0.000 OA
ATOM     20  H   UNL     1      -6.996   0.070 133.860  0.00  0.00    +0.000 HD
ENDBRANCH  18  19
BRANCH  17  21
ATOM     21  O   UNL     1      -8.981   3.918 134.400  0.00  0.00    +0.000 OA
ATOM     22  H   UNL     1      -9.145   3.191 135.009  0.00  0.00    +0.000 HD
ENDBRANCH  17  21
BRANCH  16  23
ATOM     23  N   UNL     1      -9.503   4.632 131.038  0.00  0.00    +0.000 NA
ATOM     24  H   UNL     1     -10.198   4.471 131.765  0.00  0.00    +0.000 HD
BRANCH  23  25
ATOM     25  C   UNL     1      -9.189   5.959 130.684  0.00  0.00    +0.000 C 
ATOM     26  C   UNL     1      -9.582   6.474 129.302  0.00  0.00    +0.000 C 
ATOM     27  C   UNL     1     -10.746   6.984 128.720  0.00  0.00    +0.000 C 
ATOM     28  C   UNL     1     -12.184   7.252 129.210  0.00  0.00    +0.000 C 
ATOM     29  C   UNL     1     -12.057   6.708 130.524  0.00  0.00    +0.000 C 
ATOM     30  C   UNL     1     -10.200   6.549 131.536  0.00  0.00    +0.000 C 
BRANCH  30  31
ATOM     31  O   UNL     1     -10.082   6.118 133.131  0.00  0.00    +0.000 OA
ATOM     32  H   UNL     1      -9.306   5.573 133.343  0.00  0.00    +0.000 HD
ENDBRANCH  30  31
BRANCH  29  33
ATOM     33  O   UNL     1     -13.441   7.483 131.455  0.00  0.00    +0.000 OA
ATOM     34  H   UNL     1     -13.467   7.395 132.474  0.00  0.00    +0.000 HD
ENDBRANCH  29  33
BRANCH  28  35
ATOM     35  O   UNL     1     -13.261   6.516 128.591  0.00  0.00    +0.000 OA
ATOM     36  H   UNL     1     -12.888   5.855 127.979  0.00  0.00    +0.000 HD
ENDBRANCH  28  35
BRANCH  27  37
ATOM     37  C   UNL     1     -10.771   7.509 127.352  0.00  0.00    +0.000 C 
BRANCH  37  38
ATOM     38  O   UNL     1     -11.223   6.511 126.478  0.00  0.00    +0.000 OA
ATOM     39  H   UNL     1     -12.189   6.469 126.598  0.00  0.00    +0.000 HD
ENDBRANCH  37  38
ENDBRANCH  27  37
ENDBRANCH  23  25
ENDBRANCH  16  23
ENDBRANCH  11  12
ENDBRANCH   4  11
BRANCH   3  40
ATOM     40  C   UNL     1      -7.788  -1.313 129.187  0.00  0.00    +0.000 C 
BRANCH  40  41
ATOM     41  O   UNL     1      -7.997  -2.119 130.233  0.00  0.00    +0.000 OA
ATOM     42  H   UNL     1      -7.889  -3.084 130.356  0.00  0.00    +0.000 HD
ENDBRANCH  40  41
ENDBRANCH   3  40
BRANCH   1  43
ATOM     43  O   UNL     1      -5.314  -4.165 132.419  0.00  0.00    +0.000 OA
BRANCH  43  44
ATOM     44  C   UNL     1      -4.692  -4.327 133.749  0.00  0.00    +0.000 C 
BRANCH  44  45
ATOM     45  C   UNL     1      -5.303  -3.662 135.039  0.00  0.00    +0.000 C 
BRANCH  45  46
ATOM     46  O   UNL     1      -4.453  -2.497 135.324  0.00  0.00    +0.000 OA
ATOM     47  H   UNL     1      -4.235  -2.094 134.445  0.00  0.00    +0.000 HD
ENDBRANCH  45  46
BRANCH  45  48
ATOM     48  C   UNL     1      -6.786  -3.170 135.233  0.00  0.00    +0.000 C 
BRANCH  48  49
ATOM     49  C   UNL     1      -7.852  -4.202 134.979  0.00  0.00    +0.000 C 
ATOM     50  O   UNL     1      -7.854  -5.366 135.381  0.00  0.00    +0.000 OA
ENDBRANCH  48  49
BRANCH  48  51
ATOM     51  O   UNL     1      -7.104  -2.033 134.494  0.00  0.00    +0.000 OA
ATOM     52  H   UNL     1      -7.785  -1.786 135.116  0.00  0.00    +0.000 HD
ENDBRANCH  48  51
ENDBRANCH  45  48
ENDBRANCH  44  45
BRANCH  44  53
ATOM     53  C   UNL     1      -4.345  -5.803 133.890  0.00  0.00    +0.000 C 
BRANCH  53  54
ATOM     54  O   UNL     1      -5.006  -6.338 135.021  0.00  0.00    +0.000 OA
ATOM     55  H   UNL     1      -5.394  -7.194 134.706  0.00  0.00    +0.000 HD
ENDBRANCH  53  54
BRANCH  53  56
ATOM     56  C   UNL     1      -2.856  -6.095 134.101  0.00  0.00    +0.000 C 
BRANCH  56  57
ATOM     57  O   UNL     1      -1.981  -5.264 133.430  0.00  0.00    +0.000 OA
ATOM     58  H   UNL     1      -1.070  -5.578 133.357  0.00  0.00    +0.000 HD
ENDBRANCH  56  57
ENDBRANCH  53  56
ENDBRANCH  44  53
ENDBRANCH  43  44
ENDBRANCH   1  43
TORSDOF 26
ENDMDL
