MODEL 1
REMARK VINA RESULT:      -6.6      0.000      0.000
REMARK  Name = Acebutolol
REMARK  15 active torsions:
REMARK  status: ('A' for Active; 'I' for Inactive)
REMARK    1  A    between atoms: C_1  and  C_2
REMARK    2  A    between atoms: C_2  and  C_3
REMARK    3  A    between atoms: C_3  and  C_4
REMARK    4  A    between atoms: N_6  and  C_7
REMARK    5  A    between atoms: C_10  and  O_11
REMARK    6  A    between atoms: O_11  and  C_12
REMARK    7  A    between atoms: C_12  and  C_13
REMARK    8  A    between atoms: C_13  and  O_14
REMARK    9  A    between atoms: C_13  and  C_15
REMARK   10  A    between atoms: C_15  and  N_16
REMARK   11  A    between atoms: N_16  and  C_17
REMARK   12  A    between atoms: C_17  and  C_18
REMARK   13  A    between atoms: C_17  and  C_19
REMARK   14  A    between atoms: C_20  and  C_22
REMARK   15  A    between atoms: C_22  and  C_23
REMARK                            x       y       z     vdW  Elec       q    Type
REMARK                         _______ _______ _______ _____ _____    ______ ____
ROOT
ATOM      1  C   UNL     1      -5.137   3.773 125.860  0.00  0.00    +0.000 A 
ATOM      2  C   UNL     1      -6.344   3.306 126.357  0.00  0.00    +0.000 A 
ATOM      3  C   UNL     1      -7.436   3.143 125.486  0.00  0.00    +0.000 A 
ATOM      4  C   UNL     1      -7.380   3.478 124.107  0.00  0.00    +0.000 A 
ATOM      5  C   UNL     1      -6.114   3.920 123.584  0.00  0.00    +0.000 A 
ATOM      6  C   UNL     1      -5.045   4.058 124.497  0.00  0.00    +0.000 A 
ENDROOT
BRANCH   1   9
ATOM      7  C   UNL     1      -3.732   5.094 127.369  0.00  0.00    +0.000 C 
ATOM      8  O   UNL     1      -4.507   6.051 127.386  0.00  0.00    +0.000 OA
ATOM      9  N   UNL     1      -3.992   3.912 126.685  0.00  0.00    +0.000 N 
ATOM     10  H   UNL     1      -3.435   3.088 126.874  0.00  0.00    +0.000 HD
BRANCH   7  11
ATOM     11  C   UNL     1      -2.434   5.134 128.163  0.00  0.00    +0.000 C 
BRANCH  11  13
ATOM     12  C   UNL     1      -2.849   5.294 130.669  0.00  0.00    +0.000 C 
ATOM     13  C   UNL     1      -2.609   6.056 129.380  0.00  0.00    +0.000 C 
ENDBRANCH  11  13
ENDBRANCH   7  11
ENDBRANCH   1   9
BRANCH   5  14
ATOM     14  C   UNL     1      -5.586   4.200 122.153  0.00  0.00    +0.000 C 
ATOM     15  C   UNL     1      -6.045   3.363 121.041  0.00  0.00    +0.000 C 
ATOM     16  O   UNL     1      -4.715   5.056 121.907  0.00  0.00    +0.000 OA
ENDBRANCH   5  14
BRANCH   4  17
ATOM     17  O   UNL     1      -8.666   3.307 123.577  0.00  0.00    +0.000 OA
BRANCH  17  18
ATOM     18  C   UNL     1      -8.970   2.076 122.967  0.00  0.00    +0.000 C 
BRANCH  18  19
ATOM     19  C   UNL     1      -9.731   0.910 123.563  0.00  0.00    +0.000 C 
BRANCH  19  20
ATOM     20  O   UNL     1     -11.032   1.307 123.967  0.00  0.00    +0.000 OA
ATOM     21  H   UNL     1     -10.986   1.479 124.923  0.00  0.00    +0.000 HD
ENDBRANCH  19  20
BRANCH  19  22
ATOM     22  C   UNL     1      -9.841  -0.179 122.439  0.00  0.00    +0.000 C 
BRANCH  22  23
ATOM     23  N   UNL     1      -9.866  -1.483 123.083  0.00  0.00    +0.000 NA
ATOM     24  H   UNL     1     -10.154  -2.169 122.381  0.00  0.00    +0.000 HD
BRANCH  23  25
ATOM     25  C   UNL     1      -8.606  -1.875 123.708  0.00  0.00    +0.000 C 
ATOM     26  C   UNL     1      -8.684  -3.281 124.304  0.00  0.00    +0.000 C 
ATOM     27  C   UNL     1      -7.540  -1.842 122.615  0.00  0.00    +0.000 C 
ENDBRANCH  23  25
ENDBRANCH  22  23
ENDBRANCH  19  22
ENDBRANCH  18  19
ENDBRANCH  17  18
ENDBRANCH   4  17
TORSDOF 11
ENDMDL
MODEL 2
REMARK VINA RESULT:      -6.6      2.801      6.550
REMARK  Name = Acebutolol
REMARK  15 active torsions:
REMARK  status: ('A' for Active; 'I' for Inactive)
REMARK    1  A    between atoms: C_1  and  C_2
REMARK    2  A    between atoms: C_2  and  C_3
REMARK    3  A    between atoms: C_3  and  C_4
REMARK    4  A    between atoms: N_6  and  C_7
REMARK    5  A    between atoms: C_10  and  O_11
REMARK    6  A    between atoms: O_11  and  C_12
REMARK    7  A    between atoms: C_12  and  C_13
REMARK    8  A    between atoms: C_13  and  O_14
REMARK    9  A    between atoms: C_13  and  C_15
REMARK   10  A    between atoms: C_15  and  N_16
REMARK   11  A    between atoms: N_16  and  C_17
REMARK   12  A    between atoms: C_17  and  C_18
REMARK   13  A    between atoms: C_17  and  C_19
REMARK   14  A    between atoms: C_20  and  C_22
REMARK   15  A    between atoms: C_22  and  C_23
REMARK                            x       y       z     vdW  Elec       q    Type
REMARK                         _______ _______ _______ _____ _____    ______ ____
ROOT
ATOM      1  C   UNL     1      -7.671   0.261 123.765  0.00  0.00    +0.000 A 
ATOM      2  C   UNL     1      -8.749   0.526 124.596  0.00  0.00    +0.000 A 
ATOM      3  C   UNL     1      -9.064   1.857 124.919  0.00  0.00    +0.000 A 
ATOM      4  C   UNL     1      -8.297   2.964 124.467  0.00  0.00    +0.000 A 
ATOM      5  C   UNL     1      -7.206   2.690 123.568  0.00  0.00    +0.000 A 
ATOM      6  C   UNL     1      -6.936   1.336 123.266  0.00  0.00    +0.000 A 
ENDROOT
BRANCH   1   9
ATOM      7  C   UNL     1      -6.440  -1.829 124.102  0.00  0.00    +0.000 C 
ATOM      8  O   UNL     1      -5.954  -1.467 125.173  0.00  0.00    +0.000 OA
ATOM      9  N   UNL     1      -7.338  -1.060 123.370  0.00  0.00    +0.000 N 
ATOM     10  H   UNL     1      -7.867  -1.484 122.619  0.00  0.00    +0.000 HD
BRANCH   7  11
ATOM     11  C   UNL     1      -6.118  -3.203 123.531  0.00  0.00    +0.000 C 
BRANCH  11  13
ATOM     12  C   UNL     1      -4.171  -4.842 123.508  0.00  0.00    +0.000 C 
ATOM     13  C   UNL     1      -4.593  -3.386 123.472  0.00  0.00    +0.000 C 
ENDBRANCH  11  13
ENDBRANCH   7  11
ENDBRANCH   1   9
BRANCH   5  14
ATOM     14  C   UNL     1      -6.264   3.587 122.723  0.00  0.00    +0.000 C 
ATOM     15  C   UNL     1      -5.925   3.184 121.356  0.00  0.00    +0.000 C 
ATOM     16  O   UNL     1      -5.704   4.601 123.180  0.00  0.00    +0.000 OA
ENDBRANCH   5  14
BRANCH   4  17
ATOM     17  O   UNL     1      -8.816   4.116 125.072  0.00  0.00    +0.000 OA
BRANCH  17  18
ATOM     18  C   UNL     1      -7.991   4.820 125.968  0.00  0.00    +0.000 C 
BRANCH  18  19
ATOM     19  C   UNL     1      -6.643   4.396 126.515  0.00  0.00    +0.000 C 
BRANCH  19  20
ATOM     20  O   UNL     1      -5.657   5.381 126.254  0.00  0.00    +0.000 OA
ATOM     21  H   UNL     1      -4.817   5.033 126.599  0.00  0.00    +0.000 HD
ENDBRANCH  19  20
BRANCH  19  22
ATOM     22  C   UNL     1      -6.819   4.227 128.065  0.00  0.00    +0.000 C 
BRANCH  22  23
ATOM     23  N   UNL     1      -8.219   3.931 128.325  0.00  0.00    +0.000 NA
ATOM     24  H   UNL     1      -8.649   3.666 127.435  0.00  0.00    +0.000 HD
BRANCH  23  25
ATOM     25  C   UNL     1      -8.443   2.904 129.337  0.00  0.00    +0.000 C 
ATOM     26  C   UNL     1      -9.755   3.130 130.092  0.00  0.00    +0.000 C 
ATOM     27  C   UNL     1      -8.499   1.564 128.607  0.00  0.00    +0.000 C 
ENDBRANCH  23  25
ENDBRANCH  22  23
ENDBRANCH  19  22
ENDBRANCH  18  19
ENDBRANCH  17  18
ENDBRANCH   4  17
TORSDOF 11
ENDMDL
MODEL 3
REMARK VINA RESULT:      -6.5      4.957      6.838
REMARK  Name = Acebutolol
REMARK  15 active torsions:
REMARK  status: ('A' for Active; 'I' for Inactive)
REMARK    1  A    between atoms: C_1  and  C_2
REMARK    2  A    between atoms: C_2  and  C_3
REMARK    3  A    between atoms: C_3  and  C_4
REMARK    4  A    between atoms: N_6  and  C_7
REMARK    5  A    between atoms: C_10  and  O_11
REMARK    6  A    between atoms: O_11  and  C_12
REMARK    7  A    between atoms: C_12  and  C_13
REMARK    8  A    between atoms: C_13  and  O_14
REMARK    9  A    between atoms: C_13  and  C_15
REMARK   10  A    between atoms: C_15  and  N_16
REMARK   11  A    between atoms: N_16  and  C_17
REMARK   12  A    between atoms: C_17  and  C_18
REMARK   13  A    between atoms: C_17  and  C_19
REMARK   14  A    between atoms: C_20  and  C_22
REMARK   15  A    between atoms: C_22  and  C_23
REMARK                            x       y       z     vdW  Elec       q    Type
REMARK                         _______ _______ _______ _____ _____    ______ ____
ROOT
ATOM      1  C   UNL     1      -7.558  -2.569 128.848  0.00  0.00    +0.000 A 
ATOM      2  C   UNL     1      -8.200  -3.724 128.429  0.00  0.00    +0.000 A 
ATOM      3  C   UNL     1      -8.924  -3.716 127.223  0.00  0.00    +0.000 A 
ATOM      4  C   UNL     1      -9.072  -2.554 126.419  0.00  0.00    +0.000 A 
ATOM      5  C   UNL     1      -8.369  -1.369 126.833  0.00  0.00    +0.000 A 
ATOM      6  C   UNL     1      -7.647  -1.431 128.046  0.00  0.00    +0.000 A 
ENDROOT
BRANCH   1   9
ATOM      7  C   UNL     1      -5.434  -2.892 130.022  0.00  0.00    +0.000 C 
ATOM      8  O   UNL     1      -4.812  -3.163 128.994  0.00  0.00    +0.000 OA
ATOM      9  N   UNL     1      -6.777  -2.535 130.032  0.00  0.00    +0.000 N 
ATOM     10  H   UNL     1      -7.181  -2.119 130.861  0.00  0.00    +0.000 HD
BRANCH   7  11
ATOM     11  C   UNL     1      -4.730  -2.879 131.371  0.00  0.00    +0.000 C 
BRANCH  11  13
ATOM     12  C   UNL     1      -5.279  -5.194 132.276  0.00  0.00    +0.000 C 
ATOM     13  C   UNL     1      -5.545  -3.705 132.380  0.00  0.00    +0.000 C 
ENDBRANCH  11  13
ENDBRANCH   7  11
ENDBRANCH   1   9
BRANCH   5  14
ATOM     14  C   UNL     1      -8.117   0.012 126.173  0.00  0.00    +0.000 C 
ATOM     15  C   UNL     1      -7.140   0.926 126.770  0.00  0.00    +0.000 C 
ATOM     16  O   UNL     1      -8.772   0.427 125.199  0.00  0.00    +0.000 OA
ENDBRANCH   5  14
BRANCH   4  17
ATOM     17  O   UNL     1      -9.945  -2.873 125.371  0.00  0.00    +0.000 OA
BRANCH  17  18
ATOM     18  C   UNL     1      -9.386  -3.286 124.147  0.00  0.00    +0.000 C 
BRANCH  18  19
ATOM     19  C   UNL     1      -8.910  -2.413 123.005  0.00  0.00    +0.000 C 
BRANCH  19  20
ATOM     20  O   UNL     1      -9.541  -1.143 123.039  0.00  0.00    +0.000 OA
ATOM     21  H   UNL     1      -9.341  -0.709 122.192  0.00  0.00    +0.000 HD
ENDBRANCH  19  20
BRANCH  19  22
ATOM     22  C   UNL     1      -7.362  -2.233 123.190  0.00  0.00    +0.000 C 
BRANCH  22  23
ATOM     23  N   UNL     1      -6.877  -3.350 123.985  0.00  0.00    +0.000 NA
ATOM     24  H   UNL     1      -6.939  -4.191 123.407  0.00  0.00    +0.000 HD
BRANCH  23  25
ATOM     25  C   UNL     1      -5.525  -3.178 124.509  0.00  0.00    +0.000 C 
ATOM     26  C   UNL     1      -4.470  -3.725 123.545  0.00  0.00    +0.000 C 
ATOM     27  C   UNL     1      -5.310  -1.678 124.702  0.00  0.00    +0.000 C 
ENDBRANCH  23  25
ENDBRANCH  22  23
ENDBRANCH  19  22
ENDBRANCH  18  19
ENDBRANCH  17  18
ENDBRANCH   4  17
TORSDOF 11
ENDMDL
MODEL 4
REMARK VINA RESULT:      -6.4      4.007      6.052
REMARK  Name = Acebutolol
REMARK  15 active torsions:
REMARK  status: ('A' for Active; 'I' for Inactive)
REMARK    1  A    between atoms: C_1  and  C_2
REMARK    2  A    between atoms: C_2  and  C_3
REMARK    3  A    between atoms: C_3  and  C_4
REMARK    4  A    between atoms: N_6  and  C_7
REMARK    5  A    between atoms: C_10  and  O_11
REMARK    6  A    between atoms: O_11  and  C_12
REMARK    7  A    between atoms: C_12  and  C_13
REMARK    8  A    between atoms: C_13  and  O_14
REMARK    9  A    between atoms: C_13  and  C_15
REMARK   10  A    between atoms: C_15  and  N_16
REMARK   11  A    between atoms: N_16  and  C_17
REMARK   12  A    between atoms: C_17  and  C_18
REMARK   13  A    between atoms: C_17  and  C_19
REMARK   14  A    between atoms: C_20  and  C_22
REMARK   15  A    between atoms: C_22  and  C_23
REMARK                            x       y       z     vdW  Elec       q    Type
REMARK                         _______ _______ _______ _____ _____    ______ ____
ROOT
ATOM      1  C   UNL     1      -6.882  -2.256 126.958  0.00  0.00    +0.000 A 
ATOM      2  C   UNL     1      -8.238  -1.982 127.055  0.00  0.00    +0.000 A 
ATOM      3  C   UNL     1      -8.988  -1.769 125.885  0.00  0.00    +0.000 A 
ATOM      4  C   UNL     1      -8.412  -1.777 124.587  0.00  0.00    +0.000 A 
ATOM      5  C   UNL     1      -7.015  -2.107 124.485  0.00  0.00    +0.000 A 
ATOM      6  C   UNL     1      -6.307  -2.322 125.689  0.00  0.00    +0.000 A 
ENDROOT
BRANCH   1   9
ATOM      7  C   UNL     1      -5.277  -1.546 128.665  0.00  0.00    +0.000 C 
ATOM      8  O   UNL     1      -5.260  -0.377 128.281  0.00  0.00    +0.000 OA
ATOM      9  N   UNL     1      -6.090  -2.524 128.103  0.00  0.00    +0.000 N 
ATOM     10  H   UNL     1      -6.226  -3.403 128.585  0.00  0.00    +0.000 HD
BRANCH   7  11
ATOM     11  C   UNL     1      -4.426  -1.985 129.848  0.00  0.00    +0.000 C 
BRANCH  11  13
ATOM     12  C   UNL     1      -2.886  -3.831 129.015  0.00  0.00    +0.000 C 
ATOM     13  C   UNL     1      -4.165  -3.497 129.757  0.00  0.00    +0.000 C 
ENDBRANCH  11  13
ENDBRANCH   7  11
ENDBRANCH   1   9
BRANCH   5  14
ATOM     14  C   UNL     1      -6.068  -2.398 123.291  0.00  0.00    +0.000 C 
ATOM     15  C   UNL     1      -4.873  -3.219 123.506  0.00  0.00    +0.000 C 
ATOM     16  O   UNL     1      -6.224  -1.893 122.163  0.00  0.00    +0.000 OA
ENDBRANCH   5  14
BRANCH   4  17
ATOM     17  O   UNL     1      -9.413  -1.412 123.676  0.00  0.00    +0.000 OA
BRANCH  17  18
ATOM     18  C   UNL     1      -9.270  -0.190 122.993  0.00  0.00    +0.000 C 
BRANCH  18  19
ATOM     19  C   UNL     1     -10.103   1.065 123.158  0.00  0.00    +0.000 C 
BRANCH  19  20
ATOM     20  O   UNL     1     -10.867   1.014 124.351  0.00  0.00    +0.000 OA
ATOM     21  H   UNL     1     -11.247   0.120 124.401  0.00  0.00    +0.000 HD
ENDBRANCH  19  20
BRANCH  19  22
ATOM     22  C   UNL     1      -9.096   2.266 123.233  0.00  0.00    +0.000 C 
BRANCH  22  23
ATOM     23  N   UNL     1      -9.285   2.927 124.514  0.00  0.00    +0.000 NA
ATOM     24  H   UNL     1      -9.994   2.401 125.032  0.00  0.00    +0.000 HD
BRANCH  23  25
ATOM     25  C   UNL     1      -8.067   3.075 125.306  0.00  0.00    +0.000 C 
ATOM     26  C   UNL     1      -7.632   1.747 125.929  0.00  0.00    +0.000 C 
ATOM     27  C   UNL     1      -6.979   3.574 124.358  0.00  0.00    +0.000 C 
ENDBRANCH  23  25
ENDBRANCH  22  23
ENDBRANCH  19  22
ENDBRANCH  18  19
ENDBRANCH  17  18
ENDBRANCH   4  17
TORSDOF 11
ENDMDL
MODEL 5
REMARK VINA RESULT:      -6.4      7.550     11.799
REMARK  Name = Acebutolol
REMARK  15 active torsions:
REMARK  status: ('A' for Active; 'I' for Inactive)
REMARK    1  A    between atoms: C_1  and  C_2
REMARK    2  A    between atoms: C_2  and  C_3
REMARK    3  A    between atoms: C_3  and  C_4
REMARK    4  A    between atoms: N_6  and  C_7
REMARK    5  A    between atoms: C_10  and  O_11
REMARK    6  A    between atoms: O_11  and  C_12
REMARK    7  A    between atoms: C_12  and  C_13
REMARK    8  A    between atoms: C_13  and  O_14
REMARK    9  A    between atoms: C_13  and  C_15
REMARK   10  A    between atoms: C_15  and  N_16
REMARK   11  A    between atoms: N_16  and  C_17
REMARK   12  A    between atoms: C_17  and  C_18
REMARK   13  A    between atoms: C_17  and  C_19
REMARK   14  A    between atoms: C_20  and  C_22
REMARK   15  A    between atoms: C_22  and  C_23
REMARK                            x       y       z     vdW  Elec       q    Type
REMARK                         _______ _______ _______ _____ _____    ______ ____
ROOT
ATOM      1  C   UNL     1      -9.394   6.883 130.947  0.00  0.00    +0.000 A 
ATOM      2  C   UNL     1     -10.139   6.238 131.921  0.00  0.00    +0.000 A 
ATOM      3  C   UNL     1      -9.480   5.557 132.961  0.00  0.00    +0.000 A 
ATOM      4  C   UNL     1      -8.066   5.457 133.042  0.00  0.00    +0.000 A 
ATOM      5  C   UNL     1      -7.294   6.165 132.055  0.00  0.00    +0.000 A 
ATOM      6  C   UNL     1      -8.003   6.842 131.038  0.00  0.00    +0.000 A 
ENDROOT
BRANCH   1   9
ATOM      7  C   UNL     1     -10.100   7.113 128.613  0.00  0.00    +0.000 C 
ATOM      8  O   UNL     1      -9.752   5.972 128.309  0.00  0.00    +0.000 OA
ATOM      9  N   UNL     1     -10.008   7.622 129.904  0.00  0.00    +0.000 N 
ATOM     10  H   UNL     1     -10.498   8.475 130.144  0.00  0.00    +0.000 HD
BRANCH   7  11
ATOM     11  C   UNL     1     -10.719   8.037 127.574  0.00  0.00    +0.000 C 
BRANCH  11  13
ATOM     12  C   UNL     1     -13.194   7.472 127.740  0.00  0.00    +0.000 C 
ATOM     13  C   UNL     1     -12.109   8.484 128.051  0.00  0.00    +0.000 C 
ENDBRANCH  11  13
ENDBRANCH   7  11
ENDBRANCH   1   9
BRANCH   5  14
ATOM     14  C   UNL     1      -5.780   6.463 131.891  0.00  0.00    +0.000 C 
ATOM     15  C   UNL     1      -5.253   6.793 130.565  0.00  0.00    +0.000 C 
ATOM     16  O   UNL     1      -4.962   6.350 132.824  0.00  0.00    +0.000 OA
ENDBRANCH   5  14
BRANCH   4  17
ATOM     17  O   UNL     1      -7.762   4.616 134.121  0.00  0.00    +0.000 OA
BRANCH  17  18
ATOM     18  C   UNL     1      -7.797   5.164 135.417  0.00  0.00    +0.000 C 
BRANCH  18  19
ATOM     19  C   UNL     1      -6.622   5.559 136.288  0.00  0.00    +0.000 C 
BRANCH  19  20
ATOM     20  O   UNL     1      -5.738   6.418 135.586  0.00  0.00    +0.000 OA
ATOM     21  H   UNL     1      -6.287   6.967 135.001  0.00  0.00    +0.000 HD
ENDBRANCH  19  20
BRANCH  19  22
ATOM     22  C   UNL     1      -7.215   6.317 137.527  0.00  0.00    +0.000 C 
BRANCH  22  23
ATOM     23  N   UNL     1      -8.389   7.050 137.080  0.00  0.00    +0.000 NA
ATOM     24  H   UNL     1      -9.167   6.388 137.029  0.00  0.00    +0.000 HD
BRANCH  23  25
ATOM     25  C   UNL     1      -8.739   8.199 137.911  0.00  0.00    +0.000 C 
ATOM     26  C   UNL     1      -7.719   9.331 137.771  0.00  0.00    +0.000 C 
ATOM     27  C   UNL     1     -10.109   8.685 137.443  0.00  0.00    +0.000 C 
ENDBRANCH  23  25
ENDBRANCH  22  23
ENDBRANCH  19  22
ENDBRANCH  18  19
ENDBRANCH  17  18
ENDBRANCH   4  17
TORSDOF 11
ENDMDL
MODEL 6
REMARK VINA RESULT:      -6.3      6.363      9.343
REMARK  Name = Acebutolol
REMARK  15 active torsions:
REMARK  status: ('A' for Active; 'I' for Inactive)
REMARK    1  A    between atoms: C_1  and  C_2
REMARK    2  A    between atoms: C_2  and  C_3
REMARK    3  A    between atoms: C_3  and  C_4
REMARK    4  A    between atoms: N_6  and  C_7
REMARK    5  A    between atoms: C_10  and  O_11
REMARK    6  A    between atoms: O_11  and  C_12
REMARK    7  A    between atoms: C_12  and  C_13
REMARK    8  A    between atoms: C_13  and  O_14
REMARK    9  A    between atoms: C_13  and  C_15
REMARK   10  A    between atoms: C_15  and  N_16
REMARK   11  A    between atoms: N_16  and  C_17
REMARK   12  A    between atoms: C_17  and  C_18
REMARK   13  A    between atoms: C_17  and  C_19
REMARK   14  A    between atoms: C_20  and  C_22
REMARK   15  A    between atoms: C_22  and  C_23
REMARK                            x       y       z     vdW  Elec       q    Type
REMARK                         _______ _______ _______ _____ _____    ______ ____
ROOT
ATOM      1  C   UNL     1      -9.782   6.589 131.312  0.00  0.00    +0.000 A 
ATOM      2  C   UNL     1     -10.096   5.923 132.487  0.00  0.00    +0.000 A 
ATOM      3  C   UNL     1      -9.062   5.459 133.320  0.00  0.00    +0.000 A 
ATOM      4  C   UNL     1      -7.687   5.600 132.993  0.00  0.00    +0.000 A 
ATOM      5  C   UNL     1      -7.362   6.330 131.796  0.00  0.00    +0.000 A 
ATOM      6  C   UNL     1      -8.437   6.785 130.999  0.00  0.00    +0.000 A 
ENDROOT
BRANCH   1   9
ATOM      7  C   UNL     1     -11.458   6.312 129.549  0.00  0.00    +0.000 C 
ATOM      8  O   UNL     1     -11.306   5.092 129.481  0.00  0.00    +0.000 OA
ATOM      9  N   UNL     1     -10.786   7.117 130.461  0.00  0.00    +0.000 N 
ATOM     10  H   UNL     1     -11.099   8.066 130.620  0.00  0.00    +0.000 HD
BRANCH   7  11
ATOM     11  C   UNL     1     -12.461   7.017 128.648  0.00  0.00    +0.000 C 
BRANCH  11  13
ATOM     12  C   UNL     1     -10.992   7.715 126.690  0.00  0.00    +0.000 C 
ATOM     13  C   UNL     1     -11.762   8.173 127.913  0.00  0.00    +0.000 C 
ENDBRANCH  11  13
ENDBRANCH   7  11
ENDBRANCH   1   9
BRANCH   5  14
ATOM     14  C   UNL     1      -6.035   6.856 131.190  0.00  0.00    +0.000 C 
ATOM     15  C   UNL     1      -4.763   6.481 131.812  0.00  0.00    +0.000 C 
ATOM     16  O   UNL     1      -5.995   7.661 130.240  0.00  0.00    +0.000 OA
ENDBRANCH   5  14
BRANCH   4  17
ATOM     17  O   UNL     1      -6.947   4.924 133.972  0.00  0.00    +0.000 OA
BRANCH  17  18
ATOM     18  C   UNL     1      -7.287   3.587 134.251  0.00  0.00    +0.000 C 
BRANCH  18  19
ATOM     19  C   UNL     1      -6.710   2.335 133.623  0.00  0.00    +0.000 C 
BRANCH  19  20
ATOM     20  O   UNL     1      -6.375   1.378 134.614  0.00  0.00    +0.000 OA
ATOM     21  H   UNL     1      -5.624   0.868 134.267  0.00  0.00    +0.000 HD
ENDBRANCH  19  20
BRANCH  19  22
ATOM     22  C   UNL     1      -7.822   1.749 132.684  0.00  0.00    +0.000 C 
BRANCH  22  23
ATOM     23  N   UNL     1      -7.591   2.265 131.344  0.00  0.00    +0.000 NA
ATOM     24  H   UNL     1      -7.207   1.502 130.781  0.00  0.00    +0.000 HD
BRANCH  23  25
ATOM     25  C   UNL     1      -8.770   2.840 130.704  0.00  0.00    +0.000 C 
ATOM     26  C   UNL     1      -8.867   2.438 129.231  0.00  0.00    +0.000 C 
ATOM     27  C   UNL     1      -9.988   2.311 131.458  0.00  0.00    +0.000 C 
ENDBRANCH  23  25
ENDBRANCH  22  23
ENDBRANCH  19  22
ENDBRANCH  18  19
ENDBRANCH  17  18
ENDBRANCH   4  17
TORSDOF 11
ENDMDL
MODEL 7
REMARK VINA RESULT:      -6.3      4.520      7.903
REMARK  Name = Acebutolol
REMARK  15 active torsions:
REMARK  status: ('A' for Active; 'I' for Inactive)
REMARK    1  A    between atoms: C_1  and  C_2
REMARK    2  A    between atoms: C_2  and  C_3
REMARK    3  A    between atoms: C_3  and  C_4
REMARK    4  A    between atoms: N_6  and  C_7
REMARK    5  A    between atoms: C_10  and  O_11
REMARK    6  A    between atoms: O_11  and  C_12
REMARK    7  A    between atoms: C_12  and  C_13
REMARK    8  A    between atoms: C_13  and  O_14
REMARK    9  A    between atoms: C_13  and  C_15
REMARK   10  A    between atoms: C_15  and  N_16
REMARK   11  A    between atoms: N_16  and  C_17
REMARK   12  A    between atoms: C_17  and  C_18
REMARK   13  A    between atoms: C_17  and  C_19
REMARK   14  A    between atoms: C_20  and  C_22
REMARK   15  A    between atoms: C_22  and  C_23
REMARK                            x       y       z     vdW  Elec       q    Type
REMARK                         _______ _______ _______ _____ _____    ______ ____
ROOT
ATOM      1  C   UNL     1      -7.737  -0.474 126.272  0.00  0.00    +0.000 A 
ATOM      2  C   UNL     1      -7.770  -0.382 127.654  0.00  0.00    +0.000 A 
ATOM      3  C   UNL     1      -8.077   0.850 128.261  0.00  0.00    +0.000 A 
ATOM      4  C   UNL     1      -8.316   2.036 127.518  0.00  0.00    +0.000 A 
ATOM      5  C   UNL     1      -8.326   1.929 126.083  0.00  0.00    +0.000 A 
ATOM      6  C   UNL     1      -8.022   0.668 125.523  0.00  0.00    +0.000 A 
ENDROOT
BRANCH   1   9
ATOM      7  C   UNL     1      -6.230  -1.983 125.068  0.00  0.00    +0.000 C 
ATOM      8  O   UNL     1      -5.252  -1.248 125.204  0.00  0.00    +0.000 OA
ATOM      9  N   UNL     1      -7.479  -1.702 125.610  0.00  0.00    +0.000 N 
ATOM     10  H   UNL     1      -8.183  -2.427 125.654  0.00  0.00    +0.000 HD
BRANCH   7  11
ATOM     11  C   UNL     1      -6.108  -3.305 124.325  0.00  0.00    +0.000 C 
BRANCH  11  13
ATOM     12  C   UNL     1      -4.175  -4.707 123.445  0.00  0.00    +0.000 C 
ATOM     13  C   UNL     1      -4.791  -3.325 123.532  0.00  0.00    +0.000 C 
ENDBRANCH  11  13
ENDBRANCH   7  11
ENDBRANCH   1   9
BRANCH   5  14
ATOM     14  C   UNL     1      -8.713   2.903 124.939  0.00  0.00    +0.000 C 
ATOM     15  C   UNL     1      -8.945   2.372 123.593  0.00  0.00    +0.000 C 
ATOM     16  O   UNL     1      -8.753   4.139 125.085  0.00  0.00    +0.000 OA
ENDBRANCH   5  14
BRANCH   4  17
ATOM     17  O   UNL     1      -8.466   3.086 128.434  0.00  0.00    +0.000 OA
BRANCH  17  18
ATOM     18  C   UNL     1      -9.226   2.847 129.594  0.00  0.00    +0.000 C 
BRANCH  18  19
ATOM     19  C   UNL     1     -10.109   3.826 130.341  0.00  0.00    +0.000 C 
BRANCH  19  20
ATOM     20  O   UNL     1     -10.187   3.491 131.717  0.00  0.00    +0.000 OA
ATOM     21  H   UNL     1     -11.053   3.802 132.030  0.00  0.00    +0.000 HD
ENDBRANCH  19  20
BRANCH  19  22
ATOM     22  C   UNL     1      -9.448   5.240 130.183  0.00  0.00    +0.000 C 
BRANCH  22  23
ATOM     23  N   UNL     1     -10.031   5.876 129.012  0.00  0.00    +0.000 NA
ATOM     24  H   UNL     1     -10.885   5.365 128.776  0.00  0.00    +0.000 HD
BRANCH  23  25
ATOM     25  C   UNL     1     -10.305   7.301 129.169  0.00  0.00    +0.000 C 
ATOM     26  C   UNL     1     -10.616   7.969 127.828  0.00  0.00    +0.000 C 
ATOM     27  C   UNL     1     -11.515   7.422 130.092  0.00  0.00    +0.000 C 
ENDBRANCH  23  25
ENDBRANCH  22  23
ENDBRANCH  19  22
ENDBRANCH  18  19
ENDBRANCH  17  18
ENDBRANCH   4  17
TORSDOF 11
ENDMDL
MODEL 8
REMARK VINA RESULT:      -6.3      3.669      6.253
REMARK  Name = Acebutolol
REMARK  15 active torsions:
REMARK  status: ('A' for Active; 'I' for Inactive)
REMARK    1  A    between atoms: C_1  and  C_2
REMARK    2  A    between atoms: C_2  and  C_3
REMARK    3  A    between atoms: C_3  and  C_4
REMARK    4  A    between atoms: N_6  and  C_7
REMARK    5  A    between atoms: C_10  and  O_11
REMARK    6  A    between atoms: O_11  and  C_12
REMARK    7  A    between atoms: C_12  and  C_13
REMARK    8  A    between atoms: C_13  and  O_14
REMARK    9  A    between atoms: C_13  and  C_15
REMARK   10  A    between atoms: C_15  and  N_16
REMARK   11  A    between atoms: N_16  and  C_17
REMARK   12  A    between atoms: C_17  and  C_18
REMARK   13  A    between atoms: C_17  and  C_19
REMARK   14  A    between atoms: C_20  and  C_22
REMARK   15  A    between atoms: C_22  and  C_23
REMARK                            x       y       z     vdW  Elec       q    Type
REMARK                         _______ _______ _______ _____ _____    ______ ____
ROOT
ATOM      1  C   UNL     1      -6.985   2.072 123.478  0.00  0.00    +0.000 A 
ATOM      2  C   UNL     1      -6.413   2.483 124.672  0.00  0.00    +0.000 A 
ATOM      3  C   UNL     1      -6.698   1.780 125.856  0.00  0.00    +0.000 A 
ATOM      4  C   UNL     1      -7.593   0.679 125.902  0.00  0.00    +0.000 A 
ATOM      5  C   UNL     1      -8.151   0.226 124.655  0.00  0.00    +0.000 A 
ATOM      6  C   UNL     1      -7.825   0.959 123.492  0.00  0.00    +0.000 A 
ENDROOT
BRANCH   1   9
ATOM      7  C   UNL     1      -7.679   3.386 121.532  0.00  0.00    +0.000 C 
ATOM      8  O   UNL     1      -8.826   3.549 121.947  0.00  0.00    +0.000 OA
ATOM      9  N   UNL     1      -6.694   2.717 122.249  0.00  0.00    +0.000 N 
ATOM     10  H   UNL     1      -5.725   2.795 121.966  0.00  0.00    +0.000 HD
BRANCH   7  11
ATOM     11  C   UNL     1      -7.249   3.974 120.195  0.00  0.00    +0.000 C 
BRANCH  11  13
ATOM     12  C   UNL     1      -5.441   5.556 119.356  0.00  0.00    +0.000 C 
ATOM     13  C   UNL     1      -5.774   4.397 120.274  0.00  0.00    +0.000 C 
ENDBRANCH  11  13
ENDBRANCH   7  11
ENDBRANCH   1   9
BRANCH   5  14
ATOM     14  C   UNL     1      -8.995  -1.010 124.245  0.00  0.00    +0.000 C 
ATOM     15  C   UNL     1      -9.163  -2.111 125.196  0.00  0.00    +0.000 C 
ATOM     16  O   UNL     1      -9.472  -1.157 123.104  0.00  0.00    +0.000 OA
ENDBRANCH   5  14
BRANCH   4  17
ATOM     17  O   UNL     1      -7.735   0.304 127.245  0.00  0.00    +0.000 OA
BRANCH  17  18
ATOM     18  C   UNL     1      -6.864  -0.678 127.752  0.00  0.00    +0.000 C 
BRANCH  18  19
ATOM     19  C   UNL     1      -5.506  -1.078 127.213  0.00  0.00    +0.000 C 
BRANCH  19  20
ATOM     20  O   UNL     1      -4.635  -1.458 128.266  0.00  0.00    +0.000 OA
ATOM     21  H   UNL     1      -3.923  -0.796 128.292  0.00  0.00    +0.000 HD
ENDBRANCH  19  20
BRANCH  19  22
ATOM     22  C   UNL     1      -5.742  -2.302 126.261  0.00  0.00    +0.000 C 
BRANCH  22  23
ATOM     23  N   UNL     1      -5.340  -1.907 124.920  0.00  0.00    +0.000 NA
ATOM     24  H   UNL     1      -4.325  -1.780 124.926  0.00  0.00    +0.000 HD
BRANCH  23  25
ATOM     25  C   UNL     1      -5.741  -2.837 123.869  0.00  0.00    +0.000 C 
ATOM     26  C   UNL     1      -5.957  -2.122 122.533  0.00  0.00    +0.000 C 
ATOM     27  C   UNL     1      -4.615  -3.858 123.725  0.00  0.00    +0.000 C 
ENDBRANCH  23  25
ENDBRANCH  22  23
ENDBRANCH  19  22
ENDBRANCH  18  19
ENDBRANCH  17  18
ENDBRANCH   4  17
TORSDOF 11
ENDMDL
MODEL 9
REMARK VINA RESULT:      -6.2      4.026      6.860
REMARK  Name = Acebutolol
REMARK  15 active torsions:
REMARK  status: ('A' for Active; 'I' for Inactive)
REMARK    1  A    between atoms: C_1  and  C_2
REMARK    2  A    between atoms: C_2  and  C_3
REMARK    3  A    between atoms: C_3  and  C_4
REMARK    4  A    between atoms: N_6  and  C_7
REMARK    5  A    between atoms: C_10  and  O_11
REMARK    6  A    between atoms: O_11  and  C_12
REMARK    7  A    between atoms: C_12  and  C_13
REMARK    8  A    between atoms: C_13  and  O_14
REMARK    9  A    between atoms: C_13  and  C_15
REMARK   10  A    between atoms: C_15  and  N_16
REMARK   11  A    between atoms: N_16  and  C_17
REMARK   12  A    between atoms: C_17  and  C_18
REMARK   13  A    between atoms: C_17  and  C_19
REMARK   14  A    between atoms: C_20  and  C_22
REMARK   15  A    between atoms: C_22  and  C_23
REMARK                            x       y       z     vdW  Elec       q    Type
REMARK                         _______ _______ _______ _____ _____    ______ ____
ROOT
ATOM      1  C   UNL     1      -7.316  -0.973 127.606  0.00  0.00    +0.000 A 
ATOM      2  C   UNL     1      -7.730   0.343 127.746  0.00  0.00    +0.000 A 
ATOM      3  C   UNL     1      -8.577   0.910 126.777  0.00  0.00    +0.000 A 
ATOM      4  C   UNL     1      -9.002   0.208 125.617  0.00  0.00    +0.000 A 
ATOM      5  C   UNL     1      -8.607  -1.171 125.497  0.00  0.00    +0.000 A 
ATOM      6  C   UNL     1      -7.766  -1.697 126.502  0.00  0.00    +0.000 A 
ENDROOT
BRANCH   1   9
ATOM      7  C   UNL     1      -7.051  -2.184 129.718  0.00  0.00    +0.000 C 
ATOM      8  O   UNL     1      -8.263  -2.272 129.915  0.00  0.00    +0.000 OA
ATOM      9  N   UNL     1      -6.501  -1.607 128.578  0.00  0.00    +0.000 N 
ATOM     10  H   UNL     1      -5.523  -1.750 128.364  0.00  0.00    +0.000 HD
BRANCH   7  11
ATOM     11  C   UNL     1      -6.060  -2.770 130.713  0.00  0.00    +0.000 C 
BRANCH  11  13
ATOM     12  C   UNL     1      -5.504  -5.236 130.998  0.00  0.00    +0.000 C 
ATOM     13  C   UNL     1      -5.400  -4.017 130.104  0.00  0.00    +0.000 C 
ENDBRANCH  11  13
ENDBRANCH   7  11
ENDBRANCH   1   9
BRANCH   5  14
ATOM     14  C   UNL     1      -8.992  -2.313 124.520  0.00  0.00    +0.000 C 
ATOM     15  C   UNL     1      -8.361  -3.626 124.668  0.00  0.00    +0.000 C 
ATOM     16  O   UNL     1      -9.755  -2.147 123.550  0.00  0.00    +0.000 OA
ENDBRANCH   5  14
BRANCH   4  17
ATOM     17  O   UNL     1      -9.724   1.105 124.819  0.00  0.00    +0.000 OA
BRANCH  17  18
ATOM     18  C   UNL     1      -9.190   1.450 123.564  0.00  0.00    +0.000 C 
BRANCH  18  19
ATOM     19  C   UNL     1      -8.655   2.798 123.123  0.00  0.00    +0.000 C 
BRANCH  19  20
ATOM     20  O   UNL     1      -8.547   3.685 124.224  0.00  0.00    +0.000 OA
ATOM     21  H   UNL     1      -7.666   4.093 124.168  0.00  0.00    +0.000 HD
ENDBRANCH  19  20
BRANCH  19  22
ATOM     22  C   UNL     1      -7.231   2.540 122.516  0.00  0.00    +0.000 C 
BRANCH  22  23
ATOM     23  N   UNL     1      -6.557   3.824 122.403  0.00  0.00    +0.000 NA
ATOM     24  H   UNL     1      -6.096   4.011 123.297  0.00  0.00    +0.000 HD
BRANCH  23  25
ATOM     25  C   UNL     1      -5.606   3.914 121.300  0.00  0.00    +0.000 C 
ATOM     26  C   UNL     1      -6.271   4.422 120.019  0.00  0.00    +0.000 C 
ATOM     27  C   UNL     1      -4.516   4.893 121.731  0.00  0.00    +0.000 C 
ENDBRANCH  23  25
ENDBRANCH  22  23
ENDBRANCH  19  22
ENDBRANCH  18  19
ENDBRANCH  17  18
ENDBRANCH   4  17
TORSDOF 11
ENDMDL
