MODEL 1
REMARK VINA RESULT:      -6.9      0.000      0.000
REMARK  Name = Aceclofenac
REMARK  8 active torsions:
REMARK  status: ('A' for Active; 'I' for Inactive)
REMARK    1  A    between atoms: O_1  and  C_2
REMARK    2  A    between atoms: C_2  and  C_4
REMARK    3  A    between atoms: C_4  and  O_5
REMARK    4  A    between atoms: O_5  and  C_6
REMARK    5  A    between atoms: C_6  and  C_8
REMARK    6  A    between atoms: C_8  and  C_9
REMARK    7  A    between atoms: C_14  and  N_15
REMARK    8  A    between atoms: N_15  and  C_16
REMARK                            x       y       z     vdW  Elec       q    Type
REMARK                         _______ _______ _______ _____ _____    ______ ____
ROOT
ATOM      1  C   UNL     1      -7.419  -1.789 123.653  0.00  0.00    +0.000 A 
ATOM      2  C   UNL     1      -6.554  -1.871 122.525  0.00  0.00    +0.000 A 
ATOM      3  C   UNL     1      -5.353  -2.584 122.579  0.00  0.00    +0.000 A 
ATOM      4  C   UNL     1      -4.935  -3.137 123.782  0.00  0.00    +0.000 A 
ATOM      5  C   UNL     1      -5.726  -2.985 124.929  0.00  0.00    +0.000 A 
ATOM      6  C   UNL     1      -6.983  -2.320 124.905  0.00  0.00    +0.000 A 
ENDROOT
BRANCH   6   7
ATOM      7  N   UNL     1      -7.672  -2.209 126.166  0.00  0.00    +0.000 N 
ATOM      8  H   UNL     1      -8.328  -1.429 126.127  0.00  0.00    +0.000 HD
BRANCH   7   9
ATOM      9  C   UNL     1      -7.165  -2.393 127.476  0.00  0.00    +0.000 A 
ATOM     10  C   UNL     1      -7.722  -3.279 128.410  0.00  0.00    +0.000 A 
ATOM     11 CL   UNL     1      -9.238  -4.009 128.089  0.00  0.00    +0.000 Cl
ATOM     12  C   UNL     1      -7.078  -3.673 129.611  0.00  0.00    +0.000 A 
ATOM     13  C   UNL     1      -5.764  -3.401 129.776  0.00  0.00    +0.000 A 
ATOM     14  C   UNL     1      -5.298  -2.462 128.907  0.00  0.00    +0.000 A 
ATOM     15  C   UNL     1      -6.072  -1.732 127.949  0.00  0.00    +0.000 A 
ATOM     16 CL   UNL     1      -5.758  -0.121 127.276  0.00  0.00    +0.000 Cl
ENDBRANCH   7   9
ENDBRANCH   6   7
BRANCH   1  17
ATOM     17  C   UNL     1      -8.926  -1.508 123.333  0.00  0.00    +0.000 C 
BRANCH  17  18
ATOM     18  C   UNL     1      -9.259   0.014 123.778  0.00  0.00    +0.000 C 
ATOM     19  O   UNL     1     -10.181   0.607 123.215  0.00  0.00    +0.000 OA
BRANCH  18  20
ATOM     20  O   UNL     1      -8.517   0.598 124.833  0.00  0.00    +0.000 OA
BRANCH  20  21
ATOM     21  C   UNL     1      -7.650   1.969 124.956  0.00  0.00    +0.000 C 
BRANCH  21  22
ATOM     22  C   UNL     1      -8.344   3.359 124.516  0.00  0.00    +0.000 C 
ATOM     23  O   UNL     1      -8.784   4.178 125.251  0.00  0.00    +0.000 OA
BRANCH  22  24
ATOM     24  O   UNL     1      -8.583   3.445 123.158  0.00  0.00    +0.000 OA
ATOM     25  H   UNL     1      -8.427   4.288 122.699  0.00  0.00    +0.000 HD
ENDBRANCH  22  24
ENDBRANCH  21  22
ENDBRANCH  20  21
ENDBRANCH  18  20
ENDBRANCH  17  18
ENDBRANCH   1  17
TORSDOF 8
ENDMDL
MODEL 2
REMARK VINA RESULT:      -6.8      2.946      5.766
REMARK  Name = Aceclofenac
REMARK  8 active torsions:
REMARK  status: ('A' for Active; 'I' for Inactive)
REMARK    1  A    between atoms: O_1  and  C_2
REMARK    2  A    between atoms: C_2  and  C_4
REMARK    3  A    between atoms: C_4  and  O_5
REMARK    4  A    between atoms: O_5  and  C_6
REMARK    5  A    between atoms: C_6  and  C_8
REMARK    6  A    between atoms: C_8  and  C_9
REMARK    7  A    between atoms: C_14  and  N_15
REMARK    8  A    between atoms: N_15  and  C_16
REMARK                            x       y       z     vdW  Elec       q    Type
REMARK                         _______ _______ _______ _____ _____    ______ ____
ROOT
ATOM      1  C   UNL     1      -6.004  -1.694 125.219  0.00  0.00    +0.000 A 
ATOM      2  C   UNL     1      -5.468  -2.911 124.711  0.00  0.00    +0.000 A 
ATOM      3  C   UNL     1      -5.342  -3.135 123.337  0.00  0.00    +0.000 A 
ATOM      4  C   UNL     1      -5.843  -2.202 122.440  0.00  0.00    +0.000 A 
ATOM      5  C   UNL     1      -6.462  -1.039 122.919  0.00  0.00    +0.000 A 
ATOM      6  C   UNL     1      -6.558  -0.744 124.307  0.00  0.00    +0.000 A 
ENDROOT
BRANCH   6   7
ATOM      7  N   UNL     1      -7.250   0.471 124.657  0.00  0.00    +0.000 N 
ATOM      8  H   UNL     1      -8.254   0.293 124.688  0.00  0.00    +0.000 HD
BRANCH   7   9
ATOM      9  C   UNL     1      -6.973   1.800 124.254  0.00  0.00    +0.000 A 
ATOM     10  C   UNL     1      -6.042   2.632 124.894  0.00  0.00    +0.000 A 
ATOM     11 CL   UNL     1      -5.368   2.152 126.394  0.00  0.00    +0.000 Cl
ATOM     12  C   UNL     1      -5.559   3.850 124.350  0.00  0.00    +0.000 A 
ATOM     13  C   UNL     1      -5.792   4.129 123.048  0.00  0.00    +0.000 A 
ATOM     14  C   UNL     1      -6.774   3.359 122.502  0.00  0.00    +0.000 A 
ATOM     15  C   UNL     1      -7.579   2.396 123.188  0.00  0.00    +0.000 A 
ATOM     16 CL   UNL     1      -9.222   1.852 122.797  0.00  0.00    +0.000 Cl
ENDBRANCH   7   9
ENDBRANCH   6   7
BRANCH   1  17
ATOM     17  C   UNL     1      -5.565  -1.313 126.673  0.00  0.00    +0.000 C 
BRANCH  17  18
ATOM     18  C   UNL     1      -6.842  -1.511 127.651  0.00  0.00    +0.000 C 
ATOM     19  O   UNL     1      -7.220  -0.555 128.330  0.00  0.00    +0.000 OA
BRANCH  18  20
ATOM     20  O   UNL     1      -7.514  -2.757 127.658  0.00  0.00    +0.000 OA
BRANCH  20  21
ATOM     21  C   UNL     1      -8.850  -3.302 126.906  0.00  0.00    +0.000 C 
BRANCH  21  22
ATOM     22  C   UNL     1      -9.452  -2.434 125.684  0.00  0.00    +0.000 C 
ATOM     23  O   UNL     1      -9.685  -1.272 125.707  0.00  0.00    +0.000 OA
BRANCH  22  24
ATOM     24  O   UNL     1      -9.886  -3.208 124.626  0.00  0.00    +0.000 OA
ATOM     25  H   UNL     1      -9.255  -3.461 123.930  0.00  0.00    +0.000 HD
ENDBRANCH  22  24
ENDBRANCH  21  22
ENDBRANCH  20  21
ENDBRANCH  18  20
ENDBRANCH  17  18
ENDBRANCH   1  17
TORSDOF 8
ENDMDL
MODEL 3
REMARK VINA RESULT:      -6.8      3.265      5.389
REMARK  Name = Aceclofenac
REMARK  8 active torsions:
REMARK  status: ('A' for Active; 'I' for Inactive)
REMARK    1  A    between atoms: O_1  and  C_2
REMARK    2  A    between atoms: C_2  and  C_4
REMARK    3  A    between atoms: C_4  and  O_5
REMARK    4  A    between atoms: O_5  and  C_6
REMARK    5  A    between atoms: C_6  and  C_8
REMARK    6  A    between atoms: C_8  and  C_9
REMARK    7  A    between atoms: C_14  and  N_15
REMARK    8  A    between atoms: N_15  and  C_16
REMARK                            x       y       z     vdW  Elec       q    Type
REMARK                         _______ _______ _______ _____ _____    ______ ____
ROOT
ATOM      1  C   UNL     1      -7.056   2.407 125.005  0.00  0.00    +0.000 A 
ATOM      2  C   UNL     1      -7.455   3.226 126.099  0.00  0.00    +0.000 A 
ATOM      3  C   UNL     1      -7.897   2.670 127.302  0.00  0.00    +0.000 A 
ATOM      4  C   UNL     1      -8.055   1.295 127.407  0.00  0.00    +0.000 A 
ATOM      5  C   UNL     1      -7.760   0.475 126.309  0.00  0.00    +0.000 A 
ATOM      6  C   UNL     1      -7.250   0.994 125.087  0.00  0.00    +0.000 A 
ENDROOT
BRANCH   6   7
ATOM      7  N   UNL     1      -7.023   0.039 124.031  0.00  0.00    +0.000 N 
ATOM      8  H   UNL     1      -7.054   0.515 123.130  0.00  0.00    +0.000 HD
BRANCH   7   9
ATOM      9  C   UNL     1      -7.483  -1.297 123.927  0.00  0.00    +0.000 A 
ATOM     10  C   UNL     1      -6.662  -2.420 124.104  0.00  0.00    +0.000 A 
ATOM     11 CL   UNL     1      -4.964  -2.223 124.203  0.00  0.00    +0.000 Cl
ATOM     12  C   UNL     1      -7.151  -3.742 124.271  0.00  0.00    +0.000 A 
ATOM     13  C   UNL     1      -8.464  -3.932 124.528  0.00  0.00    +0.000 A 
ATOM     14  C   UNL     1      -9.230  -2.842 124.245  0.00  0.00    +0.000 A 
ATOM     15  C   UNL     1      -8.780  -1.617 123.657  0.00  0.00    +0.000 A 
ATOM     16 CL   UNL     1      -9.702  -0.460 122.679  0.00  0.00    +0.000 Cl
ENDBRANCH   7   9
ENDBRANCH   6   7
BRANCH   1  17
ATOM     17  C   UNL     1      -6.062   3.066 123.990  0.00  0.00    +0.000 C 
BRANCH  17  18
ATOM     18  C   UNL     1      -6.831   3.240 122.574  0.00  0.00    +0.000 C 
ATOM     19  O   UNL     1      -8.063   3.224 122.564  0.00  0.00    +0.000 OA
BRANCH  18  20
ATOM     20  O   UNL     1      -6.067   3.457 121.401  0.00  0.00    +0.000 OA
BRANCH  20  21
ATOM     21  C   UNL     1      -6.379   4.219 119.999  0.00  0.00    +0.000 C 
BRANCH  21  22
ATOM     22  C   UNL     1      -5.441   5.465 119.577  0.00  0.00    +0.000 C 
ATOM     23  O   UNL     1      -4.733   6.077 120.303  0.00  0.00    +0.000 OA
BRANCH  22  24
ATOM     24  O   UNL     1      -5.681   5.920 118.295  0.00  0.00    +0.000 OA
ATOM     25  H   UNL     1      -5.004   6.453 117.844  0.00  0.00    +0.000 HD
ENDBRANCH  22  24
ENDBRANCH  21  22
ENDBRANCH  20  21
ENDBRANCH  18  20
ENDBRANCH  17  18
ENDBRANCH   1  17
TORSDOF 8
ENDMDL
MODEL 4
REMARK VINA RESULT:      -6.8      1.948      4.973
REMARK  Name = Aceclofenac
REMARK  8 active torsions:
REMARK  status: ('A' for Active; 'I' for Inactive)
REMARK    1  A    between atoms: O_1  and  C_2
REMARK    2  A    between atoms: C_2  and  C_4
REMARK    3  A    between atoms: C_4  and  O_5
REMARK    4  A    between atoms: O_5  and  C_6
REMARK    5  A    between atoms: C_6  and  C_8
REMARK    6  A    between atoms: C_8  and  C_9
REMARK    7  A    between atoms: C_14  and  N_15
REMARK    8  A    between atoms: N_15  and  C_16
REMARK                            x       y       z     vdW  Elec       q    Type
REMARK                         _______ _______ _______ _____ _____    ______ ____
ROOT
ATOM      1  C   UNL     1      -7.773  -0.614 128.759  0.00  0.00    +0.000 A 
ATOM      2  C   UNL     1      -7.774  -0.937 130.145  0.00  0.00    +0.000 A 
ATOM      3  C   UNL     1      -7.701  -2.263 130.584  0.00  0.00    +0.000 A 
ATOM      4  C   UNL     1      -7.735  -3.296 129.658  0.00  0.00    +0.000 A 
ATOM      5  C   UNL     1      -7.832  -3.002 128.291  0.00  0.00    +0.000 A 
ATOM      6  C   UNL     1      -7.847  -1.668 127.798  0.00  0.00    +0.000 A 
ENDROOT
BRANCH   6   7
ATOM      7  N   UNL     1      -7.984  -1.515 126.371  0.00  0.00    +0.000 N 
ATOM      8  H   UNL     1      -8.973  -1.515 126.123  0.00  0.00    +0.000 HD
BRANCH   7   9
ATOM      9  C   UNL     1      -7.190  -2.069 125.337  0.00  0.00    +0.000 A 
ATOM     10  C   UNL     1      -5.913  -1.599 124.997  0.00  0.00    +0.000 A 
ATOM     11 CL   UNL     1      -5.345  -0.128 125.665  0.00  0.00    +0.000 Cl
ATOM     12  C   UNL     1      -5.005  -2.301 124.163  0.00  0.00    +0.000 A 
ATOM     13  C   UNL     1      -5.249  -3.598 123.866  0.00  0.00    +0.000 A 
ATOM     14  C   UNL     1      -6.531  -3.975 124.124  0.00  0.00    +0.000 A 
ATOM     15  C   UNL     1      -7.592  -3.128 124.579  0.00  0.00    +0.000 A 
ATOM     16 CL   UNL     1      -9.337  -3.313 124.325  0.00  0.00    +0.000 Cl
ENDBRANCH   7   9
ENDBRANCH   6   7
BRANCH   1  17
ATOM     17  C   UNL     1      -7.269   0.825 128.398  0.00  0.00    +0.000 C 
BRANCH  17  18
ATOM     18  C   UNL     1      -8.550   1.704 127.938  0.00  0.00    +0.000 C 
ATOM     19  O   UNL     1      -8.842   2.710 128.588  0.00  0.00    +0.000 OA
BRANCH  18  20
ATOM     20  O   UNL     1      -9.263   1.322 126.775  0.00  0.00    +0.000 OA
BRANCH  20  21
ATOM     21  C   UNL     1      -9.055   1.634 125.192  0.00  0.00    +0.000 C 
BRANCH  21  22
ATOM     22  C   UNL     1      -9.991   0.860 124.127  0.00  0.00    +0.000 C 
ATOM     23  O   UNL     1      -9.636   0.012 123.380  0.00  0.00    +0.000 OA
BRANCH  22  24
ATOM     24  O   UNL     1     -11.248   1.417 123.999  0.00  0.00    +0.000 OA
ATOM     25  H   UNL     1     -11.659   1.468 123.119  0.00  0.00    +0.000 HD
ENDBRANCH  22  24
ENDBRANCH  21  22
ENDBRANCH  20  21
ENDBRANCH  18  20
ENDBRANCH  17  18
ENDBRANCH   1  17
TORSDOF 8
ENDMDL
MODEL 5
REMARK VINA RESULT:      -6.8      4.026      6.257
REMARK  Name = Aceclofenac
REMARK  8 active torsions:
REMARK  status: ('A' for Active; 'I' for Inactive)
REMARK    1  A    between atoms: O_1  and  C_2
REMARK    2  A    between atoms: C_2  and  C_4
REMARK    3  A    between atoms: C_4  and  O_5
REMARK    4  A    between atoms: O_5  and  C_6
REMARK    5  A    between atoms: C_6  and  C_8
REMARK    6  A    between atoms: C_8  and  C_9
REMARK    7  A    between atoms: C_14  and  N_15
REMARK    8  A    between atoms: N_15  and  C_16
REMARK                            x       y       z     vdW  Elec       q    Type
REMARK                         _______ _______ _______ _____ _____    ______ ____
ROOT
ATOM      1  C   UNL     1      -5.992   4.012 123.613  0.00  0.00    +0.000 A 
ATOM      2  C   UNL     1      -5.067   4.661 122.746  0.00  0.00    +0.000 A 
ATOM      3  C   UNL     1      -4.937   4.284 121.406  0.00  0.00    +0.000 A 
ATOM      4  C   UNL     1      -5.641   3.187 120.929  0.00  0.00    +0.000 A 
ATOM      5  C   UNL     1      -6.485   2.474 121.792  0.00  0.00    +0.000 A 
ATOM      6  C   UNL     1      -6.693   2.860 123.145  0.00  0.00    +0.000 A 
ENDROOT
BRANCH   6   7
ATOM      7  N   UNL     1      -7.562   2.014 123.925  0.00  0.00    +0.000 N 
ATOM      8  H   UNL     1      -7.512   2.288 124.906  0.00  0.00    +0.000 HD
BRANCH   7   9
ATOM      9  C   UNL     1      -7.810   0.626 123.788  0.00  0.00    +0.000 A 
ATOM     10  C   UNL     1      -8.995   0.094 123.259  0.00  0.00    +0.000 A 
ATOM     11 CL   UNL     1     -10.338   1.121 122.986  0.00  0.00    +0.000 Cl
ATOM     12  C   UNL     1      -9.151  -1.260 122.866  0.00  0.00    +0.000 A 
ATOM     13  C   UNL     1      -8.055  -2.043 122.747  0.00  0.00    +0.000 A 
ATOM     14  C   UNL     1      -6.957  -1.526 123.363  0.00  0.00    +0.000 A 
ATOM     15  C   UNL     1      -6.906  -0.329 124.146  0.00  0.00    +0.000 A 
ATOM     16 CL   UNL     1      -5.797   0.077 125.469  0.00  0.00    +0.000 Cl
ENDBRANCH   7   9
ENDBRANCH   6   7
BRANCH   1  17
ATOM     17  C   UNL     1      -6.474   4.854 124.843  0.00  0.00    +0.000 C 
BRANCH  17  18
ATOM     18  C   UNL     1      -5.627   4.377 126.140  0.00  0.00    +0.000 C 
ATOM     19  O   UNL     1      -5.818   4.950 127.214  0.00  0.00    +0.000 OA
BRANCH  18  20
ATOM     20  O   UNL     1      -4.735   3.285 126.013  0.00  0.00    +0.000 OA
BRANCH  20  21
ATOM     21  C   UNL     1      -3.589   2.667 126.989  0.00  0.00    +0.000 C 
BRANCH  21  22
ATOM     22  C   UNL     1      -2.270   3.553 127.281  0.00  0.00    +0.000 C 
ATOM     23  O   UNL     1      -2.248   4.606 127.823  0.00  0.00    +0.000 OA
BRANCH  22  24
ATOM     24  O   UNL     1      -1.140   3.074 126.649  0.00  0.00    +0.000 OA
ATOM     25  H   UNL     1      -1.088   2.131 126.415  0.00  0.00    +0.000 HD
ENDBRANCH  22  24
ENDBRANCH  21  22
ENDBRANCH  20  21
ENDBRANCH  18  20
ENDBRANCH  17  18
ENDBRANCH   1  17
TORSDOF 8
ENDMDL
MODEL 6
REMARK VINA RESULT:      -6.7      1.930      2.873
REMARK  Name = Aceclofenac
REMARK  8 active torsions:
REMARK  status: ('A' for Active; 'I' for Inactive)
REMARK    1  A    between atoms: O_1  and  C_2
REMARK    2  A    between atoms: C_2  and  C_4
REMARK    3  A    between atoms: C_4  and  O_5
REMARK    4  A    between atoms: O_5  and  C_6
REMARK    5  A    between atoms: C_6  and  C_8
REMARK    6  A    between atoms: C_8  and  C_9
REMARK    7  A    between atoms: C_14  and  N_15
REMARK    8  A    between atoms: N_15  and  C_16
REMARK                            x       y       z     vdW  Elec       q    Type
REMARK                         _______ _______ _______ _____ _____    ______ ____
ROOT
ATOM      1  C   UNL     1      -8.775  -0.774 124.440  0.00  0.00    +0.000 A 
ATOM      2  C   UNL     1      -9.049  -1.158 123.097  0.00  0.00    +0.000 A 
ATOM      3  C   UNL     1      -9.421  -2.466 122.775  0.00  0.00    +0.000 A 
ATOM      4  C   UNL     1      -9.424  -3.443 123.761  0.00  0.00    +0.000 A 
ATOM      5  C   UNL     1      -9.064  -3.106 125.074  0.00  0.00    +0.000 A 
ATOM      6  C   UNL     1      -8.737  -1.776 125.457  0.00  0.00    +0.000 A 
ENDROOT
BRANCH   6   7
ATOM      7  N   UNL     1      -8.353  -1.583 126.833  0.00  0.00    +0.000 N 
ATOM      8  H   UNL     1      -8.340  -0.586 127.045  0.00  0.00    +0.000 HD
BRANCH   7   9
ATOM      9  C   UNL     1      -7.388  -2.286 127.594  0.00  0.00    +0.000 A 
ATOM     10  C   UNL     1      -6.003  -2.112 127.449  0.00  0.00    +0.000 A 
ATOM     11 CL   UNL     1      -5.395  -1.206 126.129  0.00  0.00    +0.000 Cl
ATOM     12  C   UNL     1      -5.042  -2.596 128.373  0.00  0.00    +0.000 A 
ATOM     13  C   UNL     1      -5.452  -3.029 129.587  0.00  0.00    +0.000 A 
ATOM     14  C   UNL     1      -6.790  -3.276 129.644  0.00  0.00    +0.000 A 
ATOM     15  C   UNL     1      -7.717  -3.193 128.556  0.00  0.00    +0.000 A 
ATOM     16 CL   UNL     1      -9.241  -4.073 128.336  0.00  0.00    +0.000 Cl
ENDBRANCH   7   9
ENDBRANCH   6   7
BRANCH   1  17
ATOM     17  C   UNL     1      -8.955   0.749 124.761  0.00  0.00    +0.000 C 
BRANCH  17  18
ATOM     18  C   UNL     1      -7.524   1.479 124.547  0.00  0.00    +0.000 C 
ATOM     19  O   UNL     1      -7.073   1.573 123.404  0.00  0.00    +0.000 OA
BRANCH  18  20
ATOM     20  O   UNL     1      -6.862   2.033 125.670  0.00  0.00    +0.000 OA
BRANCH  20  21
ATOM     21  C   UNL     1      -6.610   3.561 126.169  0.00  0.00    +0.000 C 
BRANCH  21  22
ATOM     22  C   UNL     1      -7.561   4.727 125.581  0.00  0.00    +0.000 C 
ATOM     23  O   UNL     1      -8.737   4.665 125.454  0.00  0.00    +0.000 OA
BRANCH  22  24
ATOM     24  O   UNL     1      -6.857   5.777 125.025  0.00  0.00    +0.000 OA
ATOM     25  H   UNL     1      -6.409   5.651 124.170  0.00  0.00    +0.000 HD
ENDBRANCH  22  24
ENDBRANCH  21  22
ENDBRANCH  20  21
ENDBRANCH  18  20
ENDBRANCH  17  18
ENDBRANCH   1  17
TORSDOF 8
ENDMDL
MODEL 7
REMARK VINA RESULT:      -6.6      1.473      2.390
REMARK  Name = Aceclofenac
REMARK  8 active torsions:
REMARK  status: ('A' for Active; 'I' for Inactive)
REMARK    1  A    between atoms: O_1  and  C_2
REMARK    2  A    between atoms: C_2  and  C_4
REMARK    3  A    between atoms: C_4  and  O_5
REMARK    4  A    between atoms: O_5  and  C_6
REMARK    5  A    between atoms: C_6  and  C_8
REMARK    6  A    between atoms: C_8  and  C_9
REMARK    7  A    between atoms: C_14  and  N_15
REMARK    8  A    between atoms: N_15  and  C_16
REMARK                            x       y       z     vdW  Elec       q    Type
REMARK                         _______ _______ _______ _____ _____    ______ ____
ROOT
ATOM      1  C   UNL     1      -7.055  -1.011 124.737  0.00  0.00    +0.000 A 
ATOM      2  C   UNL     1      -6.845  -1.407 123.386  0.00  0.00    +0.000 A 
ATOM      3  C   UNL     1      -7.761  -2.223 122.716  0.00  0.00    +0.000 A 
ATOM      4  C   UNL     1      -8.845  -2.750 123.404  0.00  0.00    +0.000 A 
ATOM      5  C   UNL     1      -9.018  -2.450 124.763  0.00  0.00    +0.000 A 
ATOM      6  C   UNL     1      -8.145  -1.576 125.467  0.00  0.00    +0.000 A 
ENDROOT
BRANCH   6   7
ATOM      7  N   UNL     1      -8.423  -1.386 126.869  0.00  0.00    +0.000 N 
ATOM      8  H   UNL     1      -8.756  -0.435 127.023  0.00  0.00    +0.000 HD
BRANCH   7   9
ATOM      9  C   UNL     1      -7.710  -1.872 127.992  0.00  0.00    +0.000 A 
ATOM     10  C   UNL     1      -7.891  -3.152 128.536  0.00  0.00    +0.000 A 
ATOM     11 CL   UNL     1      -9.205  -4.118 128.013  0.00  0.00    +0.000 Cl
ATOM     12  C   UNL     1      -7.009  -3.748 129.474  0.00  0.00    +0.000 A 
ATOM     13  C   UNL     1      -5.795  -3.191 129.685  0.00  0.00    +0.000 A 
ATOM     14  C   UNL     1      -5.705  -1.913 129.224  0.00  0.00    +0.000 A 
ATOM     15  C   UNL     1      -6.762  -1.142 128.643  0.00  0.00    +0.000 A 
ATOM     16 CL   UNL     1      -6.958   0.621 128.624  0.00  0.00    +0.000 Cl
ENDBRANCH   7   9
ENDBRANCH   6   7
BRANCH   1  17
ATOM     17  C   UNL     1      -6.339   0.311 125.176  0.00  0.00    +0.000 C 
BRANCH  17  18
ATOM     18  C   UNL     1      -7.205   1.561 124.615  0.00  0.00    +0.000 C 
ATOM     19  O   UNL     1      -6.715   2.274 123.738  0.00  0.00    +0.000 OA
BRANCH  18  20
ATOM     20  O   UNL     1      -8.516   1.764 125.110  0.00  0.00    +0.000 OA
BRANCH  20  21
ATOM     21  C   UNL     1      -9.992   1.422 124.518  0.00  0.00    +0.000 C 
BRANCH  21  22
ATOM     22  C   UNL     1     -10.135   1.122 122.937  0.00  0.00    +0.000 C 
ATOM     23  O   UNL     1     -10.631   0.159 122.456  0.00  0.00    +0.000 OA
BRANCH  22  24
ATOM     24  O   UNL     1      -9.431   2.008 122.147  0.00  0.00    +0.000 OA
ATOM     25  H   UNL     1      -9.704   2.942 122.118  0.00  0.00    +0.000 HD
ENDBRANCH  22  24
ENDBRANCH  21  22
ENDBRANCH  20  21
ENDBRANCH  18  20
ENDBRANCH  17  18
ENDBRANCH   1  17
TORSDOF 8
ENDMDL
MODEL 8
REMARK VINA RESULT:      -6.5      1.262      2.216
REMARK  Name = Aceclofenac
REMARK  8 active torsions:
REMARK  status: ('A' for Active; 'I' for Inactive)
REMARK    1  A    between atoms: O_1  and  C_2
REMARK    2  A    between atoms: C_2  and  C_4
REMARK    3  A    between atoms: C_4  and  O_5
REMARK    4  A    between atoms: O_5  and  C_6
REMARK    5  A    between atoms: C_6  and  C_8
REMARK    6  A    between atoms: C_8  and  C_9
REMARK    7  A    between atoms: C_14  and  N_15
REMARK    8  A    between atoms: N_15  and  C_16
REMARK                            x       y       z     vdW  Elec       q    Type
REMARK                         _______ _______ _______ _____ _____    ______ ____
ROOT
ATOM      1  C   UNL     1      -7.419  -0.995 124.186  0.00  0.00    +0.000 A 
ATOM      2  C   UNL     1      -6.982  -1.261 122.858  0.00  0.00    +0.000 A 
ATOM      3  C   UNL     1      -5.962  -2.181 122.597  0.00  0.00    +0.000 A 
ATOM      4  C   UNL     1      -5.282  -2.772 123.653  0.00  0.00    +0.000 A 
ATOM      5  C   UNL     1      -5.632  -2.450 124.973  0.00  0.00    +0.000 A 
ATOM      6  C   UNL     1      -6.703  -1.567 125.282  0.00  0.00    +0.000 A 
ENDROOT
BRANCH   6   7
ATOM      7  N   UNL     1      -6.929  -1.301 126.681  0.00  0.00    +0.000 N 
ATOM      8  H   UNL     1      -6.383  -0.488 126.965  0.00  0.00    +0.000 HD
BRANCH   7   9
ATOM      9  C   UNL     1      -7.080  -2.220 127.748  0.00  0.00    +0.000 A 
ATOM     10  C   UNL     1      -6.090  -2.467 128.711  0.00  0.00    +0.000 A 
ATOM     11 CL   UNL     1      -4.511  -1.843 128.484  0.00  0.00    +0.000 Cl
ATOM     12  C   UNL     1      -6.319  -3.168 129.923  0.00  0.00    +0.000 A 
ATOM     13  C   UNL     1      -7.590  -3.403 130.319  0.00  0.00    +0.000 A 
ATOM     14  C   UNL     1      -8.501  -3.244 129.320  0.00  0.00    +0.000 A 
ATOM     15  C   UNL     1      -8.217  -2.944 127.950  0.00  0.00    +0.000 A 
ATOM     16 CL   UNL     1      -9.173  -3.347 126.511  0.00  0.00    +0.000 Cl
ENDBRANCH   7   9
ENDBRANCH   6   7
BRANCH   1  17
ATOM     17  C   UNL     1      -8.881  -0.450 124.324  0.00  0.00    +0.000 C 
BRANCH  17  18
ATOM     18  C   UNL     1      -8.798   1.095 124.807  0.00  0.00    +0.000 C 
ATOM     19  O   UNL     1      -9.323   1.409 125.877  0.00  0.00    +0.000 OA
BRANCH  18  20
ATOM     20  O   UNL     1      -8.082   2.024 124.014  0.00  0.00    +0.000 OA
BRANCH  20  21
ATOM     21  C   UNL     1      -7.116   3.282 124.376  0.00  0.00    +0.000 C 
BRANCH  21  22
ATOM     22  C   UNL     1      -7.743   4.516 125.209  0.00  0.00    +0.000 C 
ATOM     23  O   UNL     1      -8.867   4.608 125.572  0.00  0.00    +0.000 OA
BRANCH  22  24
ATOM     24  O   UNL     1      -6.894   5.601 125.300  0.00  0.00    +0.000 OA
ATOM     25  H   UNL     1      -5.956   5.456 125.518  0.00  0.00    +0.000 HD
ENDBRANCH  22  24
ENDBRANCH  21  22
ENDBRANCH  20  21
ENDBRANCH  18  20
ENDBRANCH  17  18
ENDBRANCH   1  17
TORSDOF 8
ENDMDL
MODEL 9
REMARK VINA RESULT:      -6.5      3.591      5.777
REMARK  Name = Aceclofenac
REMARK  8 active torsions:
REMARK  status: ('A' for Active; 'I' for Inactive)
REMARK    1  A    between atoms: O_1  and  C_2
REMARK    2  A    between atoms: C_2  and  C_4
REMARK    3  A    between atoms: C_4  and  O_5
REMARK    4  A    between atoms: O_5  and  C_6
REMARK    5  A    between atoms: C_6  and  C_8
REMARK    6  A    between atoms: C_8  and  C_9
REMARK    7  A    between atoms: C_14  and  N_15
REMARK    8  A    between atoms: N_15  and  C_16
REMARK                            x       y       z     vdW  Elec       q    Type
REMARK                         _______ _______ _______ _____ _____    ______ ____
ROOT
ATOM      1  C   UNL     1      -5.845   3.976 123.679  0.00  0.00    +0.000 A 
ATOM      2  C   UNL     1      -5.029   4.673 122.745  0.00  0.00    +0.000 A 
ATOM      3  C   UNL     1      -5.002   4.317 121.393  0.00  0.00    +0.000 A 
ATOM      4  C   UNL     1      -5.699   3.197 120.964  0.00  0.00    +0.000 A 
ATOM      5  C   UNL     1      -6.433   2.438 121.886  0.00  0.00    +0.000 A 
ATOM      6  C   UNL     1      -6.537   2.799 123.258  0.00  0.00    +0.000 A 
ENDROOT
BRANCH   6   7
ATOM      7  N   UNL     1      -7.297   1.908 124.099  0.00  0.00    +0.000 N 
ATOM      8  H   UNL     1      -7.060   2.078 125.075  0.00  0.00    +0.000 HD
BRANCH   7   9
ATOM      9  C   UNL     1      -7.637   0.551 123.878  0.00  0.00    +0.000 A 
ATOM     10  C   UNL     1      -8.873   0.130 123.367  0.00  0.00    +0.000 A 
ATOM     11 CL   UNL     1     -10.159   1.253 123.226  0.00  0.00    +0.000 Cl
ATOM     12  C   UNL     1      -9.130  -1.181 122.889  0.00  0.00    +0.000 A 
ATOM     13  C   UNL     1      -8.092  -2.018 122.668  0.00  0.00    +0.000 A 
ATOM     14  C   UNL     1      -6.939  -1.613 123.268  0.00  0.00    +0.000 A 
ATOM     15  C   UNL     1      -6.781  -0.480 124.129  0.00  0.00    +0.000 A 
ATOM     16 CL   UNL     1      -5.596  -0.237 125.425  0.00  0.00    +0.000 Cl
ENDBRANCH   7   9
ENDBRANCH   6   7
BRANCH   1  17
ATOM     17  C   UNL     1      -6.251   4.781 124.960  0.00  0.00    +0.000 C 
BRANCH  17  18
ATOM     18  C   UNL     1      -5.458   4.149 126.224  0.00  0.00    +0.000 C 
ATOM     19  O   UNL     1      -4.566   4.812 126.755  0.00  0.00    +0.000 OA
BRANCH  18  20
ATOM     20  O   UNL     1      -5.849   2.878 126.712  0.00  0.00    +0.000 OA
BRANCH  20  21
ATOM     21  C   UNL     1      -6.693   2.401 128.018  0.00  0.00    +0.000 C 
BRANCH  21  22
ATOM     22  C   UNL     1      -8.306   2.437 127.944  0.00  0.00    +0.000 C 
ATOM     23  O   UNL     1      -9.036   2.715 128.836  0.00  0.00    +0.000 OA
BRANCH  22  24
ATOM     24  O   UNL     1      -8.812   1.903 126.776  0.00  0.00    +0.000 OA
ATOM     25  H   UNL     1      -8.404   2.145 125.926  0.00  0.00    +0.000 HD
ENDBRANCH  22  24
ENDBRANCH  21  22
ENDBRANCH  20  21
ENDBRANCH  18  20
ENDBRANCH  17  18
ENDBRANCH   1  17
TORSDOF 8
ENDMDL
