MODEL 1
REMARK VINA RESULT:      -5.5      0.000      0.000
REMARK  Name = Aceclidine
REMARK  3 active torsions:
REMARK  status: ('A' for Active; 'I' for Inactive)
REMARK    1  A    between atoms: C_1  and  C_2
REMARK    2  A    between atoms: C_2  and  O_4
REMARK    3  A    between atoms: O_4  and  C_5
REMARK                            x       y       z     vdW  Elec       q    Type
REMARK                         _______ _______ _______ _____ _____    ______ ____
ROOT
ATOM      1  C   UNL     1     -11.846   7.028 129.836  0.00  0.00    +0.000 C 
ATOM      2  C   UNL     1     -12.856   6.349 128.876  0.00  0.00    +0.000 C 
ATOM      3  N   UNL     1     -13.008   7.115 127.610  0.00  0.00    +0.000 NA
ATOM      4  C   UNL     1     -13.670   8.385 127.948  0.00  0.00    +0.000 C 
ATOM      5  C   UNL     1     -12.828   9.195 128.948  0.00  0.00    +0.000 C 
ATOM      6  C   UNL     1     -11.514   8.442 129.277  0.00  0.00    +0.000 C 
ATOM      7  C   UNL     1     -10.777   8.245 127.950  0.00  0.00    +0.000 C 
ATOM      8  C   UNL     1     -11.679   7.418 127.013  0.00  0.00    +0.000 C 
ENDROOT
BRANCH   1   9
ATOM      9  O   UNL     1     -10.629   6.269 130.136  0.00  0.00    +0.000 OA
BRANCH   9  11
ATOM     10  C   UNL     1      -8.454   6.896 130.868  0.00  0.00    +0.000 C 
ATOM     11  C   UNL     1      -9.850   6.528 131.220  0.00  0.00    +0.000 C 
ATOM     12  O   UNL     1     -10.172   6.465 132.401  0.00  0.00    +0.000 OA
ENDBRANCH   9  11
ENDBRANCH   1   9
TORSDOF 2
ENDMDL
MODEL 2
REMARK VINA RESULT:      -5.2      1.098      2.092
REMARK  Name = Aceclidine
REMARK  3 active torsions:
REMARK  status: ('A' for Active; 'I' for Inactive)
REMARK    1  A    between atoms: C_1  and  C_2
REMARK    2  A    between atoms: C_2  and  O_4
REMARK    3  A    between atoms: O_4  and  C_5
REMARK                            x       y       z     vdW  Elec       q    Type
REMARK                         _______ _______ _______ _____ _____    ______ ____
ROOT
ATOM      1  C   UNL     1     -10.743   7.153 129.291  0.00  0.00    +0.000 C 
ATOM      2  C   UNL     1     -10.947   8.309 128.278  0.00  0.00    +0.000 C 
ATOM      3  N   UNL     1     -12.336   8.840 128.324  0.00  0.00    +0.000 NA
ATOM      4  C   UNL     1     -13.222   7.784 127.810  0.00  0.00    +0.000 C 
ATOM      5  C   UNL     1     -13.121   6.514 128.671  0.00  0.00    +0.000 C 
ATOM      6  C   UNL     1     -12.136   6.739 129.847  0.00  0.00    +0.000 C 
ATOM      7  C   UNL     1     -12.677   7.924 130.651  0.00  0.00    +0.000 C 
ATOM      8  C   UNL     1     -12.734   9.153 129.724  0.00  0.00    +0.000 C 
ENDROOT
BRANCH   1   9
ATOM      9  O   UNL     1      -9.786   7.404 130.372  0.00  0.00    +0.000 OA
BRANCH   9  11
ATOM     10  C   UNL     1      -8.719   5.297 130.661  0.00  0.00    +0.000 C 
ATOM     11  C   UNL     1      -9.429   6.450 131.273  0.00  0.00    +0.000 C 
ATOM     12  O   UNL     1      -9.651   6.445 132.479  0.00  0.00    +0.000 OA
ENDBRANCH   9  11
ENDBRANCH   1   9
TORSDOF 2
ENDMDL
MODEL 3
REMARK VINA RESULT:      -5.0      9.944     10.985
REMARK  Name = Aceclidine
REMARK  3 active torsions:
REMARK  status: ('A' for Active; 'I' for Inactive)
REMARK    1  A    between atoms: C_1  and  C_2
REMARK    2  A    between atoms: C_2  and  O_4
REMARK    3  A    between atoms: O_4  and  C_5
REMARK                            x       y       z     vdW  Elec       q    Type
REMARK                         _______ _______ _______ _____ _____    ______ ____
ROOT
ATOM      1  C   UNL     1      -8.848  -1.719 125.529  0.00  0.00    +0.000 C 
ATOM      2  C   UNL     1      -7.449  -1.249 125.057  0.00  0.00    +0.000 C 
ATOM      3  N   UNL     1      -6.993  -2.002 123.857  0.00  0.00    +0.000 NA
ATOM      4  C   UNL     1      -6.754  -3.390 124.282  0.00  0.00    +0.000 C 
ATOM      5  C   UNL     1      -8.039  -4.025 124.837  0.00  0.00    +0.000 C 
ATOM      6  C   UNL     1      -9.215  -3.018 124.754  0.00  0.00    +0.000 C 
ATOM      7  C   UNL     1      -9.365  -2.641 123.278  0.00  0.00    +0.000 C 
ATOM      8  C   UNL     1      -8.045  -2.003 122.805  0.00  0.00    +0.000 C 
ENDROOT
BRANCH   1   9
ATOM      9  O   UNL     1      -9.923  -0.726 125.452  0.00  0.00    +0.000 OA
BRANCH   9  11
ATOM     10  C   UNL     1      -9.923   1.378 124.342  0.00  0.00    +0.000 C 
ATOM     11  C   UNL     1      -9.701   0.609 125.593  0.00  0.00    +0.000 C 
ATOM     12  O   UNL     1      -9.329   1.199 126.600  0.00  0.00    +0.000 OA
ENDBRANCH   9  11
ENDBRANCH   1   9
TORSDOF 2
ENDMDL
MODEL 4
REMARK VINA RESULT:      -4.9      2.562      4.537
REMARK  Name = Aceclidine
REMARK  3 active torsions:
REMARK  status: ('A' for Active; 'I' for Inactive)
REMARK    1  A    between atoms: C_1  and  C_2
REMARK    2  A    between atoms: C_2  and  O_4
REMARK    3  A    between atoms: O_4  and  C_5
REMARK                            x       y       z     vdW  Elec       q    Type
REMARK                         _______ _______ _______ _____ _____    ______ ____
ROOT
ATOM      1  C   UNL     1     -10.057   6.930 129.842  0.00  0.00    +0.000 C 
ATOM      2  C   UNL     1      -8.879   6.785 130.839  0.00  0.00    +0.000 C 
ATOM      3  N   UNL     1      -9.132   5.708 131.834  0.00  0.00    +0.000 NA
ATOM      4  C   UNL     1     -10.240   6.159 132.690  0.00  0.00    +0.000 C 
ATOM      5  C   UNL     1     -11.510   6.410 131.859  0.00  0.00    +0.000 C 
ATOM      6  C   UNL     1     -11.250   6.079 130.368  0.00  0.00    +0.000 C 
ATOM      7  C   UNL     1     -10.821   4.611 130.312  0.00  0.00    +0.000 C 
ATOM      8  C   UNL     1      -9.541   4.448 131.155  0.00  0.00    +0.000 C 
ENDROOT
BRANCH   1   9
ATOM      9  O   UNL     1      -9.757   6.629 128.440  0.00  0.00    +0.000 OA
BRANCH   9  11
ATOM     10  C   UNL     1     -11.060   8.487 127.725  0.00  0.00    +0.000 C 
ATOM     11  C   UNL     1     -10.460   7.166 127.407  0.00  0.00    +0.000 C 
ATOM     12  O   UNL     1     -10.654   6.671 126.302  0.00  0.00    +0.000 OA
ENDBRANCH   9  11
ENDBRANCH   1   9
TORSDOF 2
ENDMDL
MODEL 5
REMARK VINA RESULT:      -4.8      9.997     11.142
REMARK  Name = Aceclidine
REMARK  3 active torsions:
REMARK  status: ('A' for Active; 'I' for Inactive)
REMARK    1  A    between atoms: C_1  and  C_2
REMARK    2  A    between atoms: C_2  and  O_4
REMARK    3  A    between atoms: O_4  and  C_5
REMARK                            x       y       z     vdW  Elec       q    Type
REMARK                         _______ _______ _______ _____ _____    ______ ____
ROOT
ATOM      1  C   UNL     1      -8.976  -1.007 124.584  0.00  0.00    +0.000 C 
ATOM      2  C   UNL     1      -8.013  -1.668 125.603  0.00  0.00    +0.000 C 
ATOM      3  N   UNL     1      -7.257  -2.794 124.992  0.00  0.00    +0.000 NA
ATOM      4  C   UNL     1      -8.227  -3.863 124.706  0.00  0.00    +0.000 C 
ATOM      5  C   UNL     1      -9.313  -3.375 123.732  0.00  0.00    +0.000 C 
ATOM      6  C   UNL     1      -9.040  -1.907 123.317  0.00  0.00    +0.000 C 
ATOM      7  C   UNL     1      -7.653  -1.884 122.671  0.00  0.00    +0.000 C 
ATOM      8  C   UNL     1      -6.627  -2.372 123.711  0.00  0.00    +0.000 C 
ENDROOT
BRANCH   1   9
ATOM      9  O   UNL     1      -8.692   0.389 124.240  0.00  0.00    +0.000 OA
BRANCH   9  11
ATOM     10  C   UNL     1      -9.068   2.252 122.807  0.00  0.00    +0.000 C 
ATOM     11  C   UNL     1      -9.632   1.223 123.719  0.00  0.00    +0.000 C 
ATOM     12  O   UNL     1     -10.838   1.217 123.942  0.00  0.00    +0.000 OA
ENDBRANCH   9  11
ENDBRANCH   1   9
TORSDOF 2
ENDMDL
MODEL 6
REMARK VINA RESULT:      -4.7      9.938     11.141
REMARK  Name = Aceclidine
REMARK  3 active torsions:
REMARK  status: ('A' for Active; 'I' for Inactive)
REMARK    1  A    between atoms: C_1  and  C_2
REMARK    2  A    between atoms: C_2  and  O_4
REMARK    3  A    between atoms: O_4  and  C_5
REMARK                            x       y       z     vdW  Elec       q    Type
REMARK                         _______ _______ _______ _____ _____    ______ ____
ROOT
ATOM      1  C   UNL     1      -8.413  -0.646 124.687  0.00  0.00    +0.000 C 
ATOM      2  C   UNL     1      -7.842  -1.361 123.436  0.00  0.00    +0.000 C 
ATOM      3  N   UNL     1      -7.792  -2.837 123.623  0.00  0.00    +0.000 NA
ATOM      4  C   UNL     1      -6.779  -3.109 124.654  0.00  0.00    +0.000 C 
ATOM      5  C   UNL     1      -7.150  -2.428 125.983  0.00  0.00    +0.000 C 
ATOM      6  C   UNL     1      -8.502  -1.682 125.844  0.00  0.00    +0.000 C 
ATOM      7  C   UNL     1      -9.541  -2.730 125.439  0.00  0.00    +0.000 C 
ATOM      8  C   UNL     1      -9.104  -3.352 124.099  0.00  0.00    +0.000 C 
ENDROOT
BRANCH   1   9
ATOM      9  O   UNL     1      -9.681   0.065 124.502  0.00  0.00    +0.000 OA
BRANCH   9  11
ATOM     10  C   UNL     1      -9.294   2.010 123.187  0.00  0.00    +0.000 C 
ATOM     11  C   UNL     1      -9.999   0.712 123.348  0.00  0.00    +0.000 C 
ATOM     12  O   UNL     1     -10.792   0.350 122.486  0.00  0.00    +0.000 OA
ENDBRANCH   9  11
ENDBRANCH   1   9
TORSDOF 2
ENDMDL
MODEL 7
REMARK VINA RESULT:      -4.7      9.076     10.054
REMARK  Name = Aceclidine
REMARK  3 active torsions:
REMARK  status: ('A' for Active; 'I' for Inactive)
REMARK    1  A    between atoms: C_1  and  C_2
REMARK    2  A    between atoms: C_2  and  O_4
REMARK    3  A    between atoms: O_4  and  C_5
REMARK                            x       y       z     vdW  Elec       q    Type
REMARK                         _______ _______ _______ _____ _____    ______ ____
ROOT
ATOM      1  C   UNL     1      -8.705  -0.697 125.028  0.00  0.00    +0.000 C 
ATOM      2  C   UNL     1      -9.149   0.482 125.931  0.00  0.00    +0.000 C 
ATOM      3  N   UNL     1      -9.379   1.722 125.140  0.00  0.00    +0.000 NA
ATOM      4  C   UNL     1      -8.071   2.162 124.633  0.00  0.00    +0.000 C 
ATOM      5  C   UNL     1      -7.435   1.085 123.739  0.00  0.00    +0.000 C 
ATOM      6  C   UNL     1      -8.383  -0.135 123.613  0.00  0.00    +0.000 C 
ATOM      7  C   UNL     1      -9.695   0.388 123.021  0.00  0.00    +0.000 C 
ATOM      8  C   UNL     1     -10.269   1.448 123.979  0.00  0.00    +0.000 C 
ENDROOT
BRANCH   1   9
ATOM      9  O   UNL     1      -9.623  -1.837 124.958  0.00  0.00    +0.000 OA
BRANCH   9  11
ATOM     10  C   UNL     1      -8.143  -3.691 124.764  0.00  0.00    +0.000 C 
ATOM     11  C   UNL     1      -9.338  -2.967 124.257  0.00  0.00    +0.000 C 
ATOM     12  O   UNL     1      -9.934  -3.407 123.280  0.00  0.00    +0.000 OA
ENDBRANCH   9  11
ENDBRANCH   1   9
TORSDOF 2
ENDMDL
MODEL 8
REMARK VINA RESULT:      -4.7     10.405     11.151
REMARK  Name = Aceclidine
REMARK  3 active torsions:
REMARK  status: ('A' for Active; 'I' for Inactive)
REMARK    1  A    between atoms: C_1  and  C_2
REMARK    2  A    between atoms: C_2  and  O_4
REMARK    3  A    between atoms: O_4  and  C_5
REMARK                            x       y       z     vdW  Elec       q    Type
REMARK                         _______ _______ _______ _____ _____    ______ ____
ROOT
ATOM      1  C   UNL     1      -7.258  -1.787 125.730  0.00  0.00    +0.000 C 
ATOM      2  C   UNL     1      -8.694  -1.225 125.573  0.00  0.00    +0.000 C 
ATOM      3  N   UNL     1      -9.376  -1.789 124.377  0.00  0.00    +0.000 NA
ATOM      4  C   UNL     1      -8.680  -1.264 123.192  0.00  0.00    +0.000 C 
ATOM      5  C   UNL     1      -7.201  -1.682 123.193  0.00  0.00    +0.000 C 
ATOM      6  C   UNL     1      -6.892  -2.562 124.430  0.00  0.00    +0.000 C 
ATOM      7  C   UNL     1      -7.820  -3.776 124.348  0.00  0.00    +0.000 C 
ATOM      8  C   UNL     1      -9.277  -3.274 124.365  0.00  0.00    +0.000 C 
ENDROOT
BRANCH   1   9
ATOM      9  O   UNL     1      -7.008  -2.595 126.926  0.00  0.00    +0.000 OA
BRANCH   9  11
ATOM     10  C   UNL     1      -8.736  -3.755 128.079  0.00  0.00    +0.000 C 
ATOM     11  C   UNL     1      -7.832  -2.579 128.009  0.00  0.00    +0.000 C 
ATOM     12  O   UNL     1      -7.907  -1.713 128.873  0.00  0.00    +0.000 OA
ENDBRANCH   9  11
ENDBRANCH   1   9
TORSDOF 2
ENDMDL
MODEL 9
REMARK VINA RESULT:      -4.7     11.437     12.232
REMARK  Name = Aceclidine
REMARK  3 active torsions:
REMARK  status: ('A' for Active; 'I' for Inactive)
REMARK    1  A    between atoms: C_1  and  C_2
REMARK    2  A    between atoms: C_2  and  O_4
REMARK    3  A    between atoms: O_4  and  C_5
REMARK                            x       y       z     vdW  Elec       q    Type
REMARK                         _______ _______ _______ _____ _____    ______ ____
ROOT
ATOM      1  C   UNL     1      -6.845  -2.284 124.209  0.00  0.00    +0.000 C 
ATOM      2  C   UNL     1      -7.180  -1.835 125.654  0.00  0.00    +0.000 C 
ATOM      3  N   UNL     1      -8.648  -1.729 125.870  0.00  0.00    +0.000 NA
ATOM      4  C   UNL     1      -9.127  -0.605 125.050  0.00  0.00    +0.000 C 
ATOM      5  C   UNL     1      -8.835  -0.846 123.560  0.00  0.00    +0.000 C 
ATOM      6  C   UNL     1      -8.150  -2.222 123.363  0.00  0.00    +0.000 C 
ATOM      7  C   UNL     1      -9.109  -3.274 123.928  0.00  0.00    +0.000 C 
ATOM      8  C   UNL     1      -9.338  -2.969 125.420  0.00  0.00    +0.000 C 
ENDROOT
BRANCH   1   9
ATOM      9  O   UNL     1      -6.178  -3.581 124.075  0.00  0.00    +0.000 OA
BRANCH   9  11
ATOM     10  C   UNL     1      -4.428  -5.115 123.576  0.00  0.00    +0.000 C 
ATOM     11  C   UNL     1      -4.898  -3.706 123.632  0.00  0.00    +0.000 C 
ATOM     12  O   UNL     1      -4.128  -2.806 123.315  0.00  0.00    +0.000 OA
ENDBRANCH   9  11
ENDBRANCH   1   9
TORSDOF 2
ENDMDL
