MODEL 1
REMARK VINA RESULT:      -8.0      0.000      0.000
REMARK  Name = Acemetacin
REMARK  10 active torsions:
REMARK  status: ('A' for Active; 'I' for Inactive)
REMARK    1  A    between atoms: C_1  and  O_2
REMARK    2  A    between atoms: O_2  and  C_3
REMARK    3  A    between atoms: C_10  and  C_12
REMARK    4  A    between atoms: C_19  and  C_20
REMARK    5  A    between atoms: C_21  and  C_22
REMARK    6  A    between atoms: C_22  and  C_23
REMARK    7  A    between atoms: C_23  and  O_25
REMARK    8  A    between atoms: O_25  and  C_26
REMARK    9  A    between atoms: C_26  and  C_27
REMARK   10  A    between atoms: C_27  and  O_28
REMARK                            x       y       z     vdW  Elec       q    Type
REMARK                         _______ _______ _______ _____ _____    ______ ____
ROOT
ATOM      1  C   UNL     1      -8.861  -0.595 124.516  0.00  0.00    +0.000 A 
ATOM      2  C   UNL     1      -8.192   0.339 123.702  0.00  0.00    +0.000 A 
ATOM      3  C   UNL     1      -7.638   1.529 124.267  0.00  0.00    +0.000 A 
ATOM      4  C   UNL     1      -7.778   1.722 125.650  0.00  0.00    +0.000 A 
ATOM      5  C   UNL     1      -8.466   0.780 126.428  0.00  0.00    +0.000 A 
ATOM      6  C   UNL     1      -8.942  -0.391 125.877  0.00  0.00    +0.000 A 
ATOM      7  N   UNL     1      -7.157   2.920 126.013  0.00  0.00    +0.000 N 
ATOM      8  C   UNL     1      -7.041   3.474 127.327  0.00  0.00    +0.000 C 
ATOM      9  O   UNL     1      -6.559   4.591 127.504  0.00  0.00    +0.000 OA
ATOM     10  C   UNL     1      -6.685   3.501 124.845  0.00  0.00    +0.000 A 
ATOM     11  C   UNL     1      -6.004   4.822 124.901  0.00  0.00    +0.000 C 
ATOM     12  C   UNL     1      -6.946   2.683 123.735  0.00  0.00    +0.000 A 
ENDROOT
BRANCH   8  13
ATOM     13  C   UNL     1      -7.497   2.867 128.568  0.00  0.00    +0.000 A 
ATOM     14  C   UNL     1      -6.760   1.850 129.170  0.00  0.00    +0.000 A 
ATOM     15  C   UNL     1      -7.372   1.104 130.171  0.00  0.00    +0.000 A 
ATOM     16  C   UNL     1      -8.606   1.512 130.684  0.00  0.00    +0.000 A 
ATOM     17 CL   UNL     1      -9.378   0.559 131.886  0.00  0.00    +0.000 Cl
ATOM     18  C   UNL     1      -9.234   2.663 130.207  0.00  0.00    +0.000 A 
ATOM     19  C   UNL     1      -8.710   3.313 129.099  0.00  0.00    +0.000 A 
ENDBRANCH   8  13
BRANCH   1  21
ATOM     20  C   UNL     1      -8.553  -2.293 122.935  0.00  0.00    +0.000 C 
ATOM     21  O   UNL     1      -9.404  -1.710 123.931  0.00  0.00    +0.000 OA
ENDBRANCH   1  21
BRANCH  12  22
ATOM     22  C   UNL     1      -6.611   2.903 122.234  0.00  0.00    +0.000 C 
BRANCH  22  23
ATOM     23  C   UNL     1      -7.699   3.521 121.357  0.00  0.00    +0.000 C 
ATOM     24  O   UNL     1      -8.900   3.489 121.569  0.00  0.00    +0.000 OA
BRANCH  23  25
ATOM     25  O   UNL     1      -7.315   4.174 120.225  0.00  0.00    +0.000 OA
BRANCH  25  26
ATOM     26  C   UNL     1      -5.854   4.191 120.232  0.00  0.00    +0.000 C 
BRANCH  26  27
ATOM     27  C   UNL     1      -5.299   5.493 119.744  0.00  0.00    +0.000 C 
ATOM     28  O   UNL     1      -4.625   6.247 120.429  0.00  0.00    +0.000 OA
BRANCH  27  29
ATOM     29  O   UNL     1      -5.629   5.737 118.456  0.00  0.00    +0.000 OA
ATOM     30  H   UNL     1      -4.832   5.634 117.893  0.00  0.00    +0.000 HD
ENDBRANCH  27  29
ENDBRANCH  26  27
ENDBRANCH  25  26
ENDBRANCH  23  25
ENDBRANCH  22  23
ENDBRANCH  12  22
TORSDOF 8
ENDMDL
MODEL 2
REMARK VINA RESULT:      -7.7      2.534      4.507
REMARK  Name = Acemetacin
REMARK  10 active torsions:
REMARK  status: ('A' for Active; 'I' for Inactive)
REMARK    1  A    between atoms: C_1  and  O_2
REMARK    2  A    between atoms: O_2  and  C_3
REMARK    3  A    between atoms: C_10  and  C_12
REMARK    4  A    between atoms: C_19  and  C_20
REMARK    5  A    between atoms: C_21  and  C_22
REMARK    6  A    between atoms: C_22  and  C_23
REMARK    7  A    between atoms: C_23  and  O_25
REMARK    8  A    between atoms: O_25  and  C_26
REMARK    9  A    between atoms: C_26  and  C_27
REMARK   10  A    between atoms: C_27  and  O_28
REMARK                            x       y       z     vdW  Elec       q    Type
REMARK                         _______ _______ _______ _____ _____    ______ ____
ROOT
ATOM      1  C   UNL     1      -8.104   2.884 127.536  0.00  0.00    +0.000 A 
ATOM      2  C   UNL     1      -8.057   2.821 126.130  0.00  0.00    +0.000 A 
ATOM      3  C   UNL     1      -7.716   1.601 125.469  0.00  0.00    +0.000 A 
ATOM      4  C   UNL     1      -7.441   0.480 126.267  0.00  0.00    +0.000 A 
ATOM      5  C   UNL     1      -7.479   0.583 127.665  0.00  0.00    +0.000 A 
ATOM      6  C   UNL     1      -7.868   1.752 128.285  0.00  0.00    +0.000 A 
ATOM      7  N   UNL     1      -7.153  -0.612 125.444  0.00  0.00    +0.000 N 
ATOM      8  C   UNL     1      -6.849  -1.949 125.851  0.00  0.00    +0.000 C 
ATOM      9  O   UNL     1      -6.511  -2.800 125.031  0.00  0.00    +0.000 OA
ATOM     10  C   UNL     1      -7.188  -0.152 124.135  0.00  0.00    +0.000 A 
ATOM     11  C   UNL     1      -6.878  -1.083 123.018  0.00  0.00    +0.000 C 
ATOM     12  C   UNL     1      -7.539   1.206 124.088  0.00  0.00    +0.000 A 
ENDROOT
BRANCH   8  13
ATOM     13  C   UNL     1      -6.841  -2.460 127.213  0.00  0.00    +0.000 A 
ATOM     14  C   UNL     1      -7.998  -2.989 127.777  0.00  0.00    +0.000 A 
ATOM     15  C   UNL     1      -8.025  -3.185 129.153  0.00  0.00    +0.000 A 
ATOM     16  C   UNL     1      -6.849  -3.047 129.896  0.00  0.00    +0.000 A 
ATOM     17 CL   UNL     1      -6.899  -3.242 131.601  0.00  0.00    +0.000 Cl
ATOM     18  C   UNL     1      -5.644  -2.717 129.275  0.00  0.00    +0.000 A 
ATOM     19  C   UNL     1      -5.647  -2.359 127.934  0.00  0.00    +0.000 A 
ENDBRANCH   8  13
BRANCH   1  21
ATOM     20  C   UNL     1      -8.710   3.951 129.529  0.00  0.00    +0.000 C 
ATOM     21  O   UNL     1      -8.407   4.080 128.133  0.00  0.00    +0.000 OA
ENDBRANCH   1  21
BRANCH  12  22
ATOM     22  C   UNL     1      -7.707   2.150 122.866  0.00  0.00    +0.000 C 
BRANCH  22  23
ATOM     23  C   UNL     1      -6.632   3.212 122.648  0.00  0.00    +0.000 C 
ATOM     24  O   UNL     1      -5.824   3.602 123.476  0.00  0.00    +0.000 OA
BRANCH  23  25
ATOM     25  O   UNL     1      -6.546   3.796 121.420  0.00  0.00    +0.000 OA
BRANCH  25  26
ATOM     26  C   UNL     1      -5.134   4.109 121.209  0.00  0.00    +0.000 C 
BRANCH  26  27
ATOM     27  C   UNL     1      -4.944   5.342 120.381  0.00  0.00    +0.000 C 
ATOM     28  O   UNL     1      -5.446   5.510 119.280  0.00  0.00    +0.000 OA
BRANCH  27  29
ATOM     29  O   UNL     1      -4.152   6.250 120.994  0.00  0.00    +0.000 OA
ATOM     30  H   UNL     1      -4.709   6.969 121.363  0.00  0.00    +0.000 HD
ENDBRANCH  27  29
ENDBRANCH  26  27
ENDBRANCH  25  26
ENDBRANCH  23  25
ENDBRANCH  22  23
ENDBRANCH  12  22
TORSDOF 8
ENDMDL
MODEL 3
REMARK VINA RESULT:      -7.5      4.492      7.861
REMARK  Name = Acemetacin
REMARK  10 active torsions:
REMARK  status: ('A' for Active; 'I' for Inactive)
REMARK    1  A    between atoms: C_1  and  O_2
REMARK    2  A    between atoms: O_2  and  C_3
REMARK    3  A    between atoms: C_10  and  C_12
REMARK    4  A    between atoms: C_19  and  C_20
REMARK    5  A    between atoms: C_21  and  C_22
REMARK    6  A    between atoms: C_22  and  C_23
REMARK    7  A    between atoms: C_23  and  O_25
REMARK    8  A    between atoms: O_25  and  C_26
REMARK    9  A    between atoms: C_26  and  C_27
REMARK   10  A    between atoms: C_27  and  O_28
REMARK                            x       y       z     vdW  Elec       q    Type
REMARK                         _______ _______ _______ _____ _____    ______ ____
ROOT
ATOM      1  C   UNL     1      -6.357  -2.785 124.420  0.00  0.00    +0.000 A 
ATOM      2  C   UNL     1      -6.797  -2.611 125.747  0.00  0.00    +0.000 A 
ATOM      3  C   UNL     1      -7.254  -1.335 126.199  0.00  0.00    +0.000 A 
ATOM      4  C   UNL     1      -7.255  -0.277 125.277  0.00  0.00    +0.000 A 
ATOM      5  C   UNL     1      -6.794  -0.481 123.968  0.00  0.00    +0.000 A 
ATOM      6  C   UNL     1      -6.412  -1.732 123.532  0.00  0.00    +0.000 A 
ATOM      7  N   UNL     1      -7.753   0.872 125.895  0.00  0.00    +0.000 N 
ATOM      8  C   UNL     1      -7.951   2.161 125.304  0.00  0.00    +0.000 C 
ATOM      9  O   UNL     1      -8.301   3.123 125.984  0.00  0.00    +0.000 OA
ATOM     10  C   UNL     1      -8.003   0.543 127.220  0.00  0.00    +0.000 A 
ATOM     11  C   UNL     1      -8.507   1.583 128.156  0.00  0.00    +0.000 C 
ATOM     12  C   UNL     1      -7.721  -0.810 127.464  0.00  0.00    +0.000 A 
ENDROOT
BRANCH   8  13
ATOM     13  C   UNL     1      -7.729   2.518 123.912  0.00  0.00    +0.000 A 
ATOM     14  C   UNL     1      -6.461   2.883 123.468  0.00  0.00    +0.000 A 
ATOM     15  C   UNL     1      -6.354   3.495 122.224  0.00  0.00    +0.000 A 
ATOM     16  C   UNL     1      -7.465   3.543 121.378  0.00  0.00    +0.000 A 
ATOM     17 CL   UNL     1      -7.339   4.344 119.864  0.00  0.00    +0.000 Cl
ATOM     18  C   UNL     1      -8.683   2.980 121.761  0.00  0.00    +0.000 A 
ATOM     19  C   UNL     1      -8.838   2.519 123.060  0.00  0.00    +0.000 A 
ENDBRANCH   8  13
BRANCH   1  21
ATOM     20  C   UNL     1      -4.504  -4.020 123.701  0.00  0.00    +0.000 C 
ATOM     21  O   UNL     1      -5.899  -4.017 124.033  0.00  0.00    +0.000 OA
ENDBRANCH   1  21
BRANCH  12  22
ATOM     22  C   UNL     1      -7.843  -1.633 128.775  0.00  0.00    +0.000 C 
BRANCH  22  23
ATOM     23  C   UNL     1      -6.615  -2.423 129.223  0.00  0.00    +0.000 C 
ATOM     24  O   UNL     1      -6.594  -3.599 129.550  0.00  0.00    +0.000 OA
BRANCH  23  25
ATOM     25  O   UNL     1      -5.418  -1.775 129.272  0.00  0.00    +0.000 OA
BRANCH  25  26
ATOM     26  C   UNL     1      -4.407  -2.743 128.852  0.00  0.00    +0.000 C 
BRANCH  26  27
ATOM     27  C   UNL     1      -3.318  -2.905 129.867  0.00  0.00    +0.000 C 
ATOM     28  O   UNL     1      -3.416  -3.600 130.867  0.00  0.00    +0.000 OA
BRANCH  27  29
ATOM     29  O   UNL     1      -2.214  -2.194 129.548  0.00  0.00    +0.000 OA
ATOM     30  H   UNL     1      -2.062  -1.507 130.233  0.00  0.00    +0.000 HD
ENDBRANCH  27  29
ENDBRANCH  26  27
ENDBRANCH  25  26
ENDBRANCH  23  25
ENDBRANCH  22  23
ENDBRANCH  12  22
TORSDOF 8
ENDMDL
MODEL 4
REMARK VINA RESULT:      -7.5      3.173      3.793
REMARK  Name = Acemetacin
REMARK  10 active torsions:
REMARK  status: ('A' for Active; 'I' for Inactive)
REMARK    1  A    between atoms: C_1  and  O_2
REMARK    2  A    between atoms: O_2  and  C_3
REMARK    3  A    between atoms: C_10  and  C_12
REMARK    4  A    between atoms: C_19  and  C_20
REMARK    5  A    between atoms: C_21  and  C_22
REMARK    6  A    between atoms: C_22  and  C_23
REMARK    7  A    between atoms: C_23  and  O_25
REMARK    8  A    between atoms: O_25  and  C_26
REMARK    9  A    between atoms: C_26  and  C_27
REMARK   10  A    between atoms: C_27  and  O_28
REMARK                            x       y       z     vdW  Elec       q    Type
REMARK                         _______ _______ _______ _____ _____    ______ ____
ROOT
ATOM      1  C   UNL     1      -5.449  -2.618 123.918  0.00  0.00    +0.000 A 
ATOM      2  C   UNL     1      -5.943  -1.347 123.567  0.00  0.00    +0.000 A 
ATOM      3  C   UNL     1      -6.544  -0.504 124.551  0.00  0.00    +0.000 A 
ATOM      4  C   UNL     1      -6.615  -0.985 125.868  0.00  0.00    +0.000 A 
ATOM      5  C   UNL     1      -6.130  -2.263 126.179  0.00  0.00    +0.000 A 
ATOM      6  C   UNL     1      -5.498  -3.039 125.230  0.00  0.00    +0.000 A 
ATOM      7  N   UNL     1      -7.211  -0.017 126.681  0.00  0.00    +0.000 N 
ATOM      8  C   UNL     1      -7.445  -0.091 128.090  0.00  0.00    +0.000 C 
ATOM      9  O   UNL     1      -8.074   0.788 128.675  0.00  0.00    +0.000 OA
ATOM     10  C   UNL     1      -7.566   1.040 125.856  0.00  0.00    +0.000 A 
ATOM     11  C   UNL     1      -8.267   2.220 126.429  0.00  0.00    +0.000 C 
ATOM     12  C   UNL     1      -7.172   0.799 124.530  0.00  0.00    +0.000 A 
ENDROOT
BRANCH   8  13
ATOM     13  C   UNL     1      -7.050  -1.173 128.978  0.00  0.00    +0.000 A 
ATOM     14  C   UNL     1      -5.779  -1.193 129.546  0.00  0.00    +0.000 A 
ATOM     15  C   UNL     1      -5.344  -2.375 130.136  0.00  0.00    +0.000 A 
ATOM     16  C   UNL     1      -6.246  -3.426 130.328  0.00  0.00    +0.000 A 
ATOM     17 CL   UNL     1      -5.691  -4.900 131.012  0.00  0.00    +0.000 Cl
ATOM     18  C   UNL     1      -7.580  -3.306 129.937  0.00  0.00    +0.000 A 
ATOM     19  C   UNL     1      -7.974  -2.197 129.201  0.00  0.00    +0.000 A 
ENDBRANCH   8  13
BRANCH   1  21
ATOM     20  C   UNL     1      -4.353  -4.631 123.446  0.00  0.00    +0.000 C 
ATOM     21  O   UNL     1      -4.904  -3.408 122.939  0.00  0.00    +0.000 OA
ENDBRANCH   1  21
BRANCH  12  22
ATOM     22  C   UNL     1      -7.347   1.680 123.263  0.00  0.00    +0.000 C 
BRANCH  22  23
ATOM     23  C   UNL     1      -6.487   2.938 123.159  0.00  0.00    +0.000 C 
ATOM     24  O   UNL     1      -5.797   3.414 124.045  0.00  0.00    +0.000 OA
BRANCH  23  25
ATOM     25  O   UNL     1      -6.473   3.609 121.974  0.00  0.00    +0.000 OA
BRANCH  25  26
ATOM     26  C   UNL     1      -5.155   4.229 121.865  0.00  0.00    +0.000 C 
BRANCH  26  27
ATOM     27  C   UNL     1      -5.049   5.137 120.679  0.00  0.00    +0.000 C 
ATOM     28  O   UNL     1      -5.614   4.937 119.615  0.00  0.00    +0.000 OA
BRANCH  27  29
ATOM     29  O   UNL     1      -4.257   6.204 120.923  0.00  0.00    +0.000 OA
ATOM     30  H   UNL     1      -3.851   6.506 120.082  0.00  0.00    +0.000 HD
ENDBRANCH  27  29
ENDBRANCH  26  27
ENDBRANCH  25  26
ENDBRANCH  23  25
ENDBRANCH  22  23
ENDBRANCH  12  22
TORSDOF 8
ENDMDL
MODEL 5
REMARK VINA RESULT:      -7.5      2.999      6.491
REMARK  Name = Acemetacin
REMARK  10 active torsions:
REMARK  status: ('A' for Active; 'I' for Inactive)
REMARK    1  A    between atoms: C_1  and  O_2
REMARK    2  A    between atoms: O_2  and  C_3
REMARK    3  A    between atoms: C_10  and  C_12
REMARK    4  A    between atoms: C_19  and  C_20
REMARK    5  A    between atoms: C_21  and  C_22
REMARK    6  A    between atoms: C_22  and  C_23
REMARK    7  A    between atoms: C_23  and  O_25
REMARK    8  A    between atoms: O_25  and  C_26
REMARK    9  A    between atoms: C_26  and  C_27
REMARK   10  A    between atoms: C_27  and  O_28
REMARK                            x       y       z     vdW  Elec       q    Type
REMARK                         _______ _______ _______ _____ _____    ______ ____
ROOT
ATOM      1  C   UNL     1      -6.463   3.579 122.238  0.00  0.00    +0.000 A 
ATOM      2  C   UNL     1      -7.176   2.414 122.585  0.00  0.00    +0.000 A 
ATOM      3  C   UNL     1      -7.016   1.822 123.875  0.00  0.00    +0.000 A 
ATOM      4  C   UNL     1      -6.137   2.444 124.775  0.00  0.00    +0.000 A 
ATOM      5  C   UNL     1      -5.429   3.592 124.390  0.00  0.00    +0.000 A 
ATOM      6  C   UNL     1      -5.641   4.185 123.163  0.00  0.00    +0.000 A 
ATOM      7  N   UNL     1      -6.133   1.736 125.979  0.00  0.00    +0.000 N 
ATOM      8  C   UNL     1      -5.400   2.048 127.168  0.00  0.00    +0.000 C 
ATOM      9  O   UNL     1      -5.401   1.285 128.132  0.00  0.00    +0.000 OA
ATOM     10  C   UNL     1      -6.962   0.638 125.805  0.00  0.00    +0.000 A 
ATOM     11  C   UNL     1      -7.132  -0.342 126.911  0.00  0.00    +0.000 C 
ATOM     12  C   UNL     1      -7.543   0.643 124.527  0.00  0.00    +0.000 A 
ENDROOT
BRANCH   8  13
ATOM     13  C   UNL     1      -4.553   3.210 127.384  0.00  0.00    +0.000 A 
ATOM     14  C   UNL     1      -3.196   3.165 127.075  0.00  0.00    +0.000 A 
ATOM     15  C   UNL     1      -2.379   4.176 127.568  0.00  0.00    +0.000 A 
ATOM     16  C   UNL     1      -2.953   5.299 128.170  0.00  0.00    +0.000 A 
ATOM     17 CL   UNL     1      -1.936   6.521 128.820  0.00  0.00    +0.000 Cl
ATOM     18  C   UNL     1      -4.338   5.423 128.282  0.00  0.00    +0.000 A 
ATOM     19  C   UNL     1      -5.145   4.346 127.944  0.00  0.00    +0.000 A 
ENDBRANCH   8  13
BRANCH   1  21
ATOM     20  C   UNL     1      -5.410   4.639 120.437  0.00  0.00    +0.000 C 
ATOM     21  O   UNL     1      -6.623   4.100 120.980  0.00  0.00    +0.000 OA
ENDBRANCH   1  21
BRANCH  12  22
ATOM     22  C   UNL     1      -8.529  -0.365 123.876  0.00  0.00    +0.000 C 
BRANCH  22  23
ATOM     23  C   UNL     1      -7.942  -1.662 123.323  0.00  0.00    +0.000 C 
ATOM     24  O   UNL     1      -6.965  -1.760 122.599  0.00  0.00    +0.000 OA
BRANCH  23  25
ATOM     25  O   UNL     1      -8.551  -2.835 123.654  0.00  0.00    +0.000 OA
BRANCH  25  26
ATOM     26  C   UNL     1      -7.954  -3.268 124.916  0.00  0.00    +0.000 C 
BRANCH  26  27
ATOM     27  C   UNL     1      -8.969  -3.399 126.009  0.00  0.00    +0.000 C 
ATOM     28  O   UNL     1      -8.733  -3.888 127.103  0.00  0.00    +0.000 OA
BRANCH  27  29
ATOM     29  O   UNL     1     -10.176  -2.912 125.646  0.00  0.00    +0.000 OA
ATOM     30  H   UNL     1     -10.060  -2.020 125.252  0.00  0.00    +0.000 HD
ENDBRANCH  27  29
ENDBRANCH  26  27
ENDBRANCH  25  26
ENDBRANCH  23  25
ENDBRANCH  22  23
ENDBRANCH  12  22
TORSDOF 8
ENDMDL
MODEL 6
REMARK VINA RESULT:      -7.5      3.544      5.550
REMARK  Name = Acemetacin
REMARK  10 active torsions:
REMARK  status: ('A' for Active; 'I' for Inactive)
REMARK    1  A    between atoms: C_1  and  O_2
REMARK    2  A    between atoms: O_2  and  C_3
REMARK    3  A    between atoms: C_10  and  C_12
REMARK    4  A    between atoms: C_19  and  C_20
REMARK    5  A    between atoms: C_21  and  C_22
REMARK    6  A    between atoms: C_22  and  C_23
REMARK    7  A    between atoms: C_23  and  O_25
REMARK    8  A    between atoms: O_25  and  C_26
REMARK    9  A    between atoms: C_26  and  C_27
REMARK   10  A    between atoms: C_27  and  O_28
REMARK                            x       y       z     vdW  Elec       q    Type
REMARK                         _______ _______ _______ _____ _____    ______ ____
ROOT
ATOM      1  C   UNL     1      -5.122   1.255 126.634  0.00  0.00    +0.000 A 
ATOM      2  C   UNL     1      -5.985   0.859 125.594  0.00  0.00    +0.000 A 
ATOM      3  C   UNL     1      -6.848  -0.268 125.756  0.00  0.00    +0.000 A 
ATOM      4  C   UNL     1      -6.807  -0.951 126.981  0.00  0.00    +0.000 A 
ATOM      5  C   UNL     1      -5.922  -0.541 127.988  0.00  0.00    +0.000 A 
ATOM      6  C   UNL     1      -5.140   0.585 127.837  0.00  0.00    +0.000 A 
ATOM      7  N   UNL     1      -7.730  -1.999 126.955  0.00  0.00    +0.000 N 
ATOM      8  C   UNL     1      -8.028  -2.921 128.009  0.00  0.00    +0.000 C 
ATOM      9  O   UNL     1      -8.790  -3.868 127.826  0.00  0.00    +0.000 OA
ATOM     10  C   UNL     1      -8.300  -2.005 125.690  0.00  0.00    +0.000 A 
ATOM     11  C   UNL     1      -9.303  -3.045 125.337  0.00  0.00    +0.000 C 
ATOM     12  C   UNL     1      -7.800  -0.952 124.908  0.00  0.00    +0.000 A 
ENDROOT
BRANCH   8  13
ATOM     13  C   UNL     1      -7.469  -2.912 129.351  0.00  0.00    +0.000 A 
ATOM     14  C   UNL     1      -6.429  -3.773 129.691  0.00  0.00    +0.000 A 
ATOM     15  C   UNL     1      -6.133  -3.941 131.039  0.00  0.00    +0.000 A 
ATOM     16  C   UNL     1      -6.729  -3.107 131.989  0.00  0.00    +0.000 A 
ATOM     17 CL   UNL     1      -6.396  -3.353 133.656  0.00  0.00    +0.000 Cl
ATOM     18  C   UNL     1      -7.618  -2.103 131.604  0.00  0.00    +0.000 A 
ATOM     19  C   UNL     1      -8.041  -2.041 130.284  0.00  0.00    +0.000 A 
ENDBRANCH   8  13
BRANCH   1  21
ATOM     20  C   UNL     1      -4.872   3.341 125.602  0.00  0.00    +0.000 C 
ATOM     21  O   UNL     1      -4.289   2.324 126.428  0.00  0.00    +0.000 OA
ENDBRANCH   1  21
BRANCH  12  22
ATOM     22  C   UNL     1      -8.133  -0.553 123.444  0.00  0.00    +0.000 C 
BRANCH  22  23
ATOM     23  C   UNL     1      -9.513   0.043 123.177  0.00  0.00    +0.000 C 
ATOM     24  O   UNL     1     -10.328  -0.361 122.364  0.00  0.00    +0.000 OA
BRANCH  23  25
ATOM     25  O   UNL     1      -9.894   1.130 123.904  0.00  0.00    +0.000 OA
BRANCH  25  26
ATOM     26  C   UNL     1      -9.058   2.242 123.456  0.00  0.00    +0.000 C 
BRANCH  26  27
ATOM     27  C   UNL     1      -8.638   3.129 124.587  0.00  0.00    +0.000 C 
ATOM     28  O   UNL     1      -8.825   2.868 125.765  0.00  0.00    +0.000 OA
BRANCH  27  29
ATOM     29  O   UNL     1      -8.025   4.252 124.151  0.00  0.00    +0.000 OA
ATOM     30  H   UNL     1      -8.542   4.638 123.411  0.00  0.00    +0.000 HD
ENDBRANCH  27  29
ENDBRANCH  26  27
ENDBRANCH  25  26
ENDBRANCH  23  25
ENDBRANCH  22  23
ENDBRANCH  12  22
TORSDOF 8
ENDMDL
MODEL 7
REMARK VINA RESULT:      -7.4      3.761      5.113
REMARK  Name = Acemetacin
REMARK  10 active torsions:
REMARK  status: ('A' for Active; 'I' for Inactive)
REMARK    1  A    between atoms: C_1  and  O_2
REMARK    2  A    between atoms: O_2  and  C_3
REMARK    3  A    between atoms: C_10  and  C_12
REMARK    4  A    between atoms: C_19  and  C_20
REMARK    5  A    between atoms: C_21  and  C_22
REMARK    6  A    between atoms: C_22  and  C_23
REMARK    7  A    between atoms: C_23  and  O_25
REMARK    8  A    between atoms: O_25  and  C_26
REMARK    9  A    between atoms: C_26  and  C_27
REMARK   10  A    between atoms: C_27  and  O_28
REMARK                            x       y       z     vdW  Elec       q    Type
REMARK                         _______ _______ _______ _____ _____    ______ ____
ROOT
ATOM      1  C   UNL     1      -9.040  -2.510 125.730  0.00  0.00    +0.000 A 
ATOM      2  C   UNL     1      -8.559  -1.228 125.400  0.00  0.00    +0.000 A 
ATOM      3  C   UNL     1      -7.702  -0.521 126.299  0.00  0.00    +0.000 A 
ATOM      4  C   UNL     1      -7.358  -1.151 127.505  0.00  0.00    +0.000 A 
ATOM      5  C   UNL     1      -7.870  -2.420 127.809  0.00  0.00    +0.000 A 
ATOM      6  C   UNL     1      -8.646  -3.113 126.904  0.00  0.00    +0.000 A 
ATOM      7  N   UNL     1      -6.504  -0.318 128.232  0.00  0.00    +0.000 N 
ATOM      8  C   UNL     1      -5.896  -0.590 129.499  0.00  0.00    +0.000 C 
ATOM      9  O   UNL     1      -5.243   0.270 130.086  0.00  0.00    +0.000 OA
ATOM     10  C   UNL     1      -6.368   0.856 127.505  0.00  0.00    +0.000 A 
ATOM     11  C   UNL     1      -5.543   1.969 128.047  0.00  0.00    +0.000 C 
ATOM     12  C   UNL     1      -7.080   0.786 126.297  0.00  0.00    +0.000 A 
ENDROOT
BRANCH   8  13
ATOM     13  C   UNL     1      -5.996  -1.825 130.260  0.00  0.00    +0.000 A 
ATOM     14  C   UNL     1      -6.979  -1.978 131.234  0.00  0.00    +0.000 A 
ATOM     15  C   UNL     1      -6.855  -3.034 132.130  0.00  0.00    +0.000 A 
ATOM     16  C   UNL     1      -5.885  -4.017 131.911  0.00  0.00    +0.000 A 
ATOM     17 CL   UNL     1      -5.705  -5.292 133.047  0.00  0.00    +0.000 Cl
ATOM     18  C   UNL     1      -5.040  -3.956 130.803  0.00  0.00    +0.000 A 
ATOM     19  C   UNL     1      -5.050  -2.822 130.003  0.00  0.00    +0.000 A 
ENDBRANCH   8  13
BRANCH   1  21
ATOM     20  C   UNL     1      -9.387  -3.156 123.507  0.00  0.00    +0.000 C 
ATOM     21  O   UNL     1      -9.882  -3.144 124.853  0.00  0.00    +0.000 OA
ENDBRANCH   1  21
BRANCH  12  22
ATOM     22  C   UNL     1      -7.227   1.838 125.164  0.00  0.00    +0.000 C 
BRANCH  22  23
ATOM     23  C   UNL     1      -8.347   2.867 125.306  0.00  0.00    +0.000 C 
ATOM     24  O   UNL     1      -8.244   3.982 125.792  0.00  0.00    +0.000 OA
BRANCH  23  25
ATOM     25  O   UNL     1      -9.588   2.532 124.855  0.00  0.00    +0.000 OA
BRANCH  25  26
ATOM     26  C   UNL     1      -9.396   1.885 123.559  0.00  0.00    +0.000 C 
BRANCH  26  27
ATOM     27  C   UNL     1     -10.559   1.023 123.177  0.00  0.00    +0.000 C 
ATOM     28  O   UNL     1     -10.519   0.172 122.302  0.00  0.00    +0.000 OA
BRANCH  27  29
ATOM     29  O   UNL     1     -11.659   1.296 123.913  0.00  0.00    +0.000 OA
ATOM     30  H   UNL     1     -12.377   1.607 123.320  0.00  0.00    +0.000 HD
ENDBRANCH  27  29
ENDBRANCH  26  27
ENDBRANCH  25  26
ENDBRANCH  23  25
ENDBRANCH  22  23
ENDBRANCH  12  22
TORSDOF 8
ENDMDL
MODEL 8
REMARK VINA RESULT:      -7.4      3.465      7.449
REMARK  Name = Acemetacin
REMARK  10 active torsions:
REMARK  status: ('A' for Active; 'I' for Inactive)
REMARK    1  A    between atoms: C_1  and  O_2
REMARK    2  A    between atoms: O_2  and  C_3
REMARK    3  A    between atoms: C_10  and  C_12
REMARK    4  A    between atoms: C_19  and  C_20
REMARK    5  A    between atoms: C_21  and  C_22
REMARK    6  A    between atoms: C_22  and  C_23
REMARK    7  A    between atoms: C_23  and  O_25
REMARK    8  A    between atoms: O_25  and  C_26
REMARK    9  A    between atoms: C_26  and  C_27
REMARK   10  A    between atoms: C_27  and  O_28
REMARK                            x       y       z     vdW  Elec       q    Type
REMARK                         _______ _______ _______ _____ _____    ______ ____
ROOT
ATOM      1  C   UNL     1      -7.678  -1.445 124.486  0.00  0.00    +0.000 A 
ATOM      2  C   UNL     1      -7.515  -0.866 125.759  0.00  0.00    +0.000 A 
ATOM      3  C   UNL     1      -7.201   0.521 125.891  0.00  0.00    +0.000 A 
ATOM      4  C   UNL     1      -7.071   1.276 124.715  0.00  0.00    +0.000 A 
ATOM      5  C   UNL     1      -7.221   0.663 123.463  0.00  0.00    +0.000 A 
ATOM      6  C   UNL     1      -7.583  -0.663 123.356  0.00  0.00    +0.000 A 
ATOM      7  N   UNL     1      -6.787   2.603 125.048  0.00  0.00    +0.000 N 
ATOM      8  C   UNL     1      -6.609   3.705 124.152  0.00  0.00    +0.000 C 
ATOM      9  O   UNL     1      -6.260   4.808 124.566  0.00  0.00    +0.000 OA
ATOM     10  C   UNL     1      -6.680   2.658 126.430  0.00  0.00    +0.000 A 
ATOM     11  C   UNL     1      -6.338   3.946 127.093  0.00  0.00    +0.000 C 
ATOM     12  C   UNL     1      -6.934   1.404 127.006  0.00  0.00    +0.000 A 
ENDROOT
BRANCH   8  13
ATOM     13  C   UNL     1      -6.751   3.676 122.705  0.00  0.00    +0.000 A 
ATOM     14  C   UNL     1      -5.634   3.787 121.882  0.00  0.00    +0.000 A 
ATOM     15  C   UNL     1      -5.839   4.054 120.533  0.00  0.00    +0.000 A 
ATOM     16  C   UNL     1      -7.132   3.998 120.005  0.00  0.00    +0.000 A 
ATOM     17 CL   UNL     1      -7.384   4.376 118.348  0.00  0.00    +0.000 Cl
ATOM     18  C   UNL     1      -8.223   3.676 120.812  0.00  0.00    +0.000 A 
ATOM     19  C   UNL     1      -8.045   3.574 122.185  0.00  0.00    +0.000 A 
ENDBRANCH   8  13
BRANCH   1  21
ATOM     20  C   UNL     1      -9.108  -3.075 123.605  0.00  0.00    +0.000 C 
ATOM     21  O   UNL     1      -7.951  -2.786 124.401  0.00  0.00    +0.000 OA
ENDBRANCH   1  21
BRANCH  12  22
ATOM     22  C   UNL     1      -6.934   0.974 128.498  0.00  0.00    +0.000 C 
BRANCH  22  23
ATOM     23  C   UNL     1      -8.199   1.250 129.308  0.00  0.00    +0.000 C 
ATOM     24  O   UNL     1      -8.522   0.705 130.350  0.00  0.00    +0.000 OA
BRANCH  23  25
ATOM     25  O   UNL     1      -9.067   2.191 128.840  0.00  0.00    +0.000 OA
BRANCH  25  26
ATOM     26  C   UNL     1      -9.062   3.279 129.816  0.00  0.00    +0.000 C 
BRANCH  26  27
ATOM     27  C   UNL     1     -10.402   3.477 130.453  0.00  0.00    +0.000 C 
ATOM     28  O   UNL     1     -11.209   4.322 130.097  0.00  0.00    +0.000 OA
BRANCH  27  29
ATOM     29  O   UNL     1     -10.616   2.611 131.468  0.00  0.00    +0.000 OA
ATOM     30  H   UNL     1     -11.581   2.453 131.562  0.00  0.00    +0.000 HD
ENDBRANCH  27  29
ENDBRANCH  26  27
ENDBRANCH  25  26
ENDBRANCH  23  25
ENDBRANCH  22  23
ENDBRANCH  12  22
TORSDOF 8
ENDMDL
MODEL 9
REMARK VINA RESULT:      -7.4      6.911      8.001
REMARK  Name = Acemetacin
REMARK  10 active torsions:
REMARK  status: ('A' for Active; 'I' for Inactive)
REMARK    1  A    between atoms: C_1  and  O_2
REMARK    2  A    between atoms: O_2  and  C_3
REMARK    3  A    between atoms: C_10  and  C_12
REMARK    4  A    between atoms: C_19  and  C_20
REMARK    5  A    between atoms: C_21  and  C_22
REMARK    6  A    between atoms: C_22  and  C_23
REMARK    7  A    between atoms: C_23  and  O_25
REMARK    8  A    between atoms: O_25  and  C_26
REMARK    9  A    between atoms: C_26  and  C_27
REMARK   10  A    between atoms: C_27  and  O_28
REMARK                            x       y       z     vdW  Elec       q    Type
REMARK                         _______ _______ _______ _____ _____    ______ ____
ROOT
ATOM      1  C   UNL     1      -9.211   1.716 131.742  0.00  0.00    +0.000 A 
ATOM      2  C   UNL     1     -10.078   2.677 131.188  0.00  0.00    +0.000 A 
ATOM      3  C   UNL     1      -9.616   4.002 130.916  0.00  0.00    +0.000 A 
ATOM      4  C   UNL     1      -8.277   4.300 131.213  0.00  0.00    +0.000 A 
ATOM      5  C   UNL     1      -7.446   3.325 131.782  0.00  0.00    +0.000 A 
ATOM      6  C   UNL     1      -7.892   2.035 131.981  0.00  0.00    +0.000 A 
ATOM      7  N   UNL     1      -8.012   5.626 130.859  0.00  0.00    +0.000 N 
ATOM      8  C   UNL     1      -6.765   6.320 130.967  0.00  0.00    +0.000 C 
ATOM      9  O   UNL     1      -6.685   7.521 130.718  0.00  0.00    +0.000 OA
ATOM     10  C   UNL     1      -9.203   6.168 130.401  0.00  0.00    +0.000 A 
ATOM     11  C   UNL     1      -9.252   7.595 129.984  0.00  0.00    +0.000 C 
ATOM     12  C   UNL     1     -10.228   5.209 130.405  0.00  0.00    +0.000 A 
ENDROOT
BRANCH   8  13
ATOM     13  C   UNL     1      -5.498   5.762 131.411  0.00  0.00    +0.000 A 
ATOM     14  C   UNL     1      -5.103   5.874 132.742  0.00  0.00    +0.000 A 
ATOM     15  C   UNL     1      -3.777   5.599 133.056  0.00  0.00    +0.000 A 
ATOM     16  C   UNL     1      -2.941   5.028 132.092  0.00  0.00    +0.000 A 
ATOM     17 CL   UNL     1      -1.291   4.736 132.472  0.00  0.00    +0.000 Cl
ATOM     18  C   UNL     1      -3.419   4.727 130.817  0.00  0.00    +0.000 A 
ATOM     19  C   UNL     1      -4.688   5.152 130.449  0.00  0.00    +0.000 A 
ENDBRANCH   8  13
BRANCH   1  21
ATOM     20  C   UNL     1      -8.698  -0.559 131.940  0.00  0.00    +0.000 C 
ATOM     21  O   UNL     1      -9.700   0.465 132.014  0.00  0.00    +0.000 OA
ENDBRANCH   1  21
BRANCH  12  22
ATOM     22  C   UNL     1     -11.717   5.340 129.984  0.00  0.00    +0.000 C 
BRANCH  22  23
ATOM     23  C   UNL     1     -12.492   6.546 130.512  0.00  0.00    +0.000 C 
ATOM     24  O   UNL     1     -12.678   6.825 131.685  0.00  0.00    +0.000 OA
BRANCH  23  25
ATOM     25  O   UNL     1     -13.036   7.406 129.607  0.00  0.00    +0.000 OA
BRANCH  25  26
ATOM     26  C   UNL     1     -13.015   6.717 128.318  0.00  0.00    +0.000 C 
BRANCH  26  27
ATOM     27  C   UNL     1     -12.109   7.386 127.331  0.00  0.00    +0.000 C 
ATOM     28  O   UNL     1     -11.593   8.478 127.509  0.00  0.00    +0.000 OA
BRANCH  27  29
ATOM     29  O   UNL     1     -11.926   6.638 126.220  0.00  0.00    +0.000 OA
ATOM     30  H   UNL     1     -12.638   6.838 125.574  0.00  0.00    +0.000 HD
ENDBRANCH  27  29
ENDBRANCH  26  27
ENDBRANCH  25  26
ENDBRANCH  23  25
ENDBRANCH  22  23
ENDBRANCH  12  22
TORSDOF 8
ENDMDL
