MODEL 1
REMARK VINA RESULT:      -8.6      0.000      0.000
REMARK  Name = Acenocoumarol
REMARK  7 active torsions:
REMARK  status: ('A' for Active; 'I' for Inactive)
REMARK    1  A    between atoms: C_1  and  C_2
REMARK    2  A    between atoms: C_2  and  C_4
REMARK    3  A    between atoms: C_4  and  C_5
REMARK    4  A    between atoms: C_5  and  C_6
REMARK    5  A    between atoms: C_5  and  C_15
REMARK    6  A    between atoms: C_9  and  N_12
REMARK    7  A    between atoms: C_16  and  O_17
REMARK                            x       y       z     vdW  Elec       q    Type
REMARK                         _______ _______ _______ _____ _____    ______ ____
ROOT
ATOM      1  C   UNL     1      -8.417   2.603 123.959  0.00  0.00    +0.000 C 
ENDROOT
BRANCH   1   2
ATOM      2  C   UNL     1      -8.650   1.077 123.898  0.00  0.00    +0.000 A 
ATOM      3  C   UNL     1      -7.725   0.160 124.247  0.00  0.00    +0.000 A 
ATOM      4  C   UNL     1      -8.084  -1.249 124.333  0.00  0.00    +0.000 A 
ATOM      5  C   UNL     1      -7.464  -2.165 125.183  0.00  0.00    +0.000 A 
ATOM      6  C   UNL     1      -7.737  -3.527 125.054  0.00  0.00    +0.000 A 
ATOM      7  C   UNL     1      -8.654  -3.968 124.096  0.00  0.00    +0.000 A 
ATOM      8  C   UNL     1      -9.336  -3.045 123.300  0.00  0.00    +0.000 A 
ATOM      9  C   UNL     1      -9.086  -1.686 123.481  0.00  0.00    +0.000 A 
ATOM     10  O   UNL     1      -9.927  -0.741 122.876  0.00  0.00    +0.000 OA
ATOM     11  C   UNL     1      -9.978   0.510 123.505  0.00  0.00    +0.000 A 
ATOM     12  O   UNL     1     -11.021   1.127 123.619  0.00  0.00    +0.000 OA
BRANCH   3  13
ATOM     13  O   UNL     1      -6.399   0.421 124.516  0.00  0.00    +0.000 OA
ATOM     14  H   UNL     1      -6.216   0.278 125.459  0.00  0.00    +0.000 HD
ENDBRANCH   3  13
ENDBRANCH   1   2
BRANCH   1  15
ATOM     15  C   UNL     1      -7.919   3.153 122.603  0.00  0.00    +0.000 A 
ATOM     16  C   UNL     1      -8.826   3.421 121.561  0.00  0.00    +0.000 A 
ATOM     17  C   UNL     1      -8.396   3.905 120.329  0.00  0.00    +0.000 A 
ATOM     18  C   UNL     1      -7.034   4.106 120.117  0.00  0.00    +0.000 A 
ATOM     19  C   UNL     1      -6.103   3.788 121.111  0.00  0.00    +0.000 A 
ATOM     20  C   UNL     1      -6.550   3.350 122.357  0.00  0.00    +0.000 A 
BRANCH  18  21
ATOM     21  N   UNL     1      -6.585   4.705 118.859  0.00  0.00    +0.000 N 
ATOM     22  O   UNL     1      -7.212   4.419 117.829  0.00  0.00    +0.000 OA
ATOM     23  O   UNL     1      -5.619   5.480 118.904  0.00  0.00    +0.000 OA
ENDBRANCH  18  21
ENDBRANCH   1  15
BRANCH   1  24
ATOM     24  C   UNL     1      -7.509   3.134 125.096  0.00  0.00    +0.000 C 
BRANCH  24  26
ATOM     25  C   UNL     1      -6.422   5.474 125.311  0.00  0.00    +0.000 C 
ATOM     26  C   UNL     1      -7.655   4.625 125.379  0.00  0.00    +0.000 C 
ATOM     27  O   UNL     1      -8.702   5.143 125.767  0.00  0.00    +0.000 OA
ENDBRANCH  24  26
ENDBRANCH   1  24
TORSDOF 6
ENDMDL
MODEL 2
REMARK VINA RESULT:      -8.3      2.302      5.351
REMARK  Name = Acenocoumarol
REMARK  7 active torsions:
REMARK  status: ('A' for Active; 'I' for Inactive)
REMARK    1  A    between atoms: C_1  and  C_2
REMARK    2  A    between atoms: C_2  and  C_4
REMARK    3  A    between atoms: C_4  and  C_5
REMARK    4  A    between atoms: C_5  and  C_6
REMARK    5  A    between atoms: C_5  and  C_15
REMARK    6  A    between atoms: C_9  and  N_12
REMARK    7  A    between atoms: C_16  and  O_17
REMARK                            x       y       z     vdW  Elec       q    Type
REMARK                         _______ _______ _______ _____ _____    ______ ____
ROOT
ATOM      1  C   UNL     1      -7.438   2.678 124.275  0.00  0.00    +0.000 C 
ENDROOT
BRANCH   1   2
ATOM      2  C   UNL     1      -6.391   3.298 125.226  0.00  0.00    +0.000 A 
ATOM      3  C   UNL     1      -5.328   2.627 125.716  0.00  0.00    +0.000 A 
ATOM      4  C   UNL     1      -4.294   3.333 126.459  0.00  0.00    +0.000 A 
ATOM      5  C   UNL     1      -2.957   2.936 126.509  0.00  0.00    +0.000 A 
ATOM      6  C   UNL     1      -2.082   3.555 127.402  0.00  0.00    +0.000 A 
ATOM      7  C   UNL     1      -2.537   4.592 128.222  0.00  0.00    +0.000 A 
ATOM      8  C   UNL     1      -3.855   5.045 128.114  0.00  0.00    +0.000 A 
ATOM      9  C   UNL     1      -4.698   4.447 127.179  0.00  0.00    +0.000 A 
ATOM     10  O   UNL     1      -5.933   5.039 126.881  0.00  0.00    +0.000 OA
ATOM     11  C   UNL     1      -6.455   4.742 125.615  0.00  0.00    +0.000 A 
ATOM     12  O   UNL     1      -7.013   5.586 124.938  0.00  0.00    +0.000 OA
BRANCH   3  13
ATOM     13  O   UNL     1      -5.121   1.269 125.611  0.00  0.00    +0.000 OA
ATOM     14  H   UNL     1      -4.401   1.090 124.983  0.00  0.00    +0.000 HD
ENDBRANCH   3  13
ENDBRANCH   1   2
BRANCH   1  15
ATOM     15  C   UNL     1      -7.271   3.204 122.831  0.00  0.00    +0.000 A 
ATOM     16  C   UNL     1      -8.384   3.332 121.981  0.00  0.00    +0.000 A 
ATOM     17  C   UNL     1      -8.252   3.792 120.674  0.00  0.00    +0.000 A 
ATOM     18  C   UNL     1      -6.985   4.111 120.191  0.00  0.00    +0.000 A 
ATOM     19  C   UNL     1      -5.851   3.933 120.992  0.00  0.00    +0.000 A 
ATOM     20  C   UNL     1      -6.002   3.518 122.315  0.00  0.00    +0.000 A 
BRANCH  18  21
ATOM     21  N   UNL     1      -6.851   4.685 118.852  0.00  0.00    +0.000 N 
ATOM     22  O   UNL     1      -5.981   5.551 118.681  0.00  0.00    +0.000 OA
ATOM     23  O   UNL     1      -7.600   4.254 117.963  0.00  0.00    +0.000 OA
ENDBRANCH  18  21
ENDBRANCH   1  15
BRANCH   1  24
ATOM     24  C   UNL     1      -8.925   2.784 124.695  0.00  0.00    +0.000 C 
BRANCH  24  26
ATOM     25  C   UNL     1      -9.194   0.501 125.887  0.00  0.00    +0.000 C 
ATOM     26  C   UNL     1      -9.647   1.447 124.815  0.00  0.00    +0.000 C 
ATOM     27  O   UNL     1     -10.498   1.061 124.015  0.00  0.00    +0.000 OA
ENDBRANCH  24  26
ENDBRANCH   1  24
TORSDOF 6
ENDMDL
MODEL 3
REMARK VINA RESULT:      -8.1      8.454     10.706
REMARK  Name = Acenocoumarol
REMARK  7 active torsions:
REMARK  status: ('A' for Active; 'I' for Inactive)
REMARK    1  A    between atoms: C_1  and  C_2
REMARK    2  A    between atoms: C_2  and  C_4
REMARK    3  A    between atoms: C_4  and  C_5
REMARK    4  A    between atoms: C_5  and  C_6
REMARK    5  A    between atoms: C_5  and  C_15
REMARK    6  A    between atoms: C_9  and  N_12
REMARK    7  A    between atoms: C_16  and  O_17
REMARK                            x       y       z     vdW  Elec       q    Type
REMARK                         _______ _______ _______ _____ _____    ______ ____
ROOT
ATOM      1  C   UNL     1      -9.710   5.180 130.183  0.00  0.00    +0.000 C 
ENDROOT
BRANCH   1   2
ATOM      2  C   UNL     1      -8.459   5.543 131.012  0.00  0.00    +0.000 A 
ATOM      3  C   UNL     1      -7.219   5.657 130.493  0.00  0.00    +0.000 A 
ATOM      4  C   UNL     1      -6.128   6.177 131.305  0.00  0.00    +0.000 A 
ATOM      5  C   UNL     1      -5.025   6.860 130.791  0.00  0.00    +0.000 A 
ATOM      6  C   UNL     1      -3.938   7.145 131.617  0.00  0.00    +0.000 A 
ATOM      7  C   UNL     1      -3.968   6.774 132.964  0.00  0.00    +0.000 A 
ATOM      8  C   UNL     1      -5.104   6.163 133.499  0.00  0.00    +0.000 A 
ATOM      9  C   UNL     1      -6.199   5.934 132.668  0.00  0.00    +0.000 A 
ATOM     10  O   UNL     1      -7.428   5.554 133.229  0.00  0.00    +0.000 OA
ATOM     11  C   UNL     1      -8.560   5.870 132.469  0.00  0.00    +0.000 A 
ATOM     12  O   UNL     1      -9.584   6.279 132.986  0.00  0.00    +0.000 OA
BRANCH   3  13
ATOM     13  O   UNL     1      -6.847   5.284 129.220  0.00  0.00    +0.000 OA
ATOM     14  H   UNL     1      -6.033   4.754 129.253  0.00  0.00    +0.000 HD
ENDBRANCH   3  13
ENDBRANCH   1   2
BRANCH   1  15
ATOM     15  C   UNL     1     -10.630   6.406 129.982  0.00  0.00    +0.000 A 
ATOM     16  C   UNL     1     -11.895   6.462 130.596  0.00  0.00    +0.000 A 
ATOM     17  C   UNL     1     -12.741   7.553 130.418  0.00  0.00    +0.000 A 
ATOM     18  C   UNL     1     -12.335   8.600 129.594  0.00  0.00    +0.000 A 
ATOM     19  C   UNL     1     -11.111   8.543 128.919  0.00  0.00    +0.000 A 
ATOM     20  C   UNL     1     -10.251   7.469 129.145  0.00  0.00    +0.000 A 
BRANCH  18  21
ATOM     21  N   UNL     1     -13.179   9.791 129.479  0.00  0.00    +0.000 N 
ATOM     22  O   UNL     1     -13.817   9.945 128.428  0.00  0.00    +0.000 OA
ATOM     23  O   UNL     1     -13.223  10.560 130.450  0.00  0.00    +0.000 OA
ENDBRANCH  18  21
ENDBRANCH   1  15
BRANCH   1  24
ATOM     24  C   UNL     1     -10.553   3.975 130.668  0.00  0.00    +0.000 C 
BRANCH  24  26
ATOM     25  C   UNL     1      -9.675   2.243 132.380  0.00  0.00    +0.000 C 
ATOM     26  C   UNL     1      -9.747   2.714 130.959  0.00  0.00    +0.000 C 
ATOM     27  O   UNL     1      -9.068   2.132 130.114  0.00  0.00    +0.000 OA
ENDBRANCH  24  26
ENDBRANCH   1  24
TORSDOF 6
ENDMDL
MODEL 4
REMARK VINA RESULT:      -8.0      1.735      2.153
REMARK  Name = Acenocoumarol
REMARK  7 active torsions:
REMARK  status: ('A' for Active; 'I' for Inactive)
REMARK    1  A    between atoms: C_1  and  C_2
REMARK    2  A    between atoms: C_2  and  C_4
REMARK    3  A    between atoms: C_4  and  C_5
REMARK    4  A    between atoms: C_5  and  C_6
REMARK    5  A    between atoms: C_5  and  C_15
REMARK    6  A    between atoms: C_9  and  N_12
REMARK    7  A    between atoms: C_16  and  O_17
REMARK                            x       y       z     vdW  Elec       q    Type
REMARK                         _______ _______ _______ _____ _____    ______ ____
ROOT
ATOM      1  C   UNL     1      -7.362   2.568 124.466  0.00  0.00    +0.000 C 
ENDROOT
BRANCH   1   2
ATOM      2  C   UNL     1      -7.791   1.096 124.649  0.00  0.00    +0.000 A 
ATOM      3  C   UNL     1      -7.237   0.062 123.984  0.00  0.00    +0.000 A 
ATOM      4  C   UNL     1      -7.574  -1.308 124.345  0.00  0.00    +0.000 A 
ATOM      5  C   UNL     1      -6.715  -2.395 124.179  0.00  0.00    +0.000 A 
ATOM      6  C   UNL     1      -7.194  -3.692 124.365  0.00  0.00    +0.000 A 
ATOM      7  C   UNL     1      -8.522  -3.899 124.748  0.00  0.00    +0.000 A 
ATOM      8  C   UNL     1      -9.360  -2.808 124.995  0.00  0.00    +0.000 A 
ATOM      9  C   UNL     1      -8.847  -1.520 124.852  0.00  0.00    +0.000 A 
ATOM     10  O   UNL     1      -9.583  -0.425 125.326  0.00  0.00    +0.000 OA
ATOM     11  C   UNL     1      -8.830   0.710 125.655  0.00  0.00    +0.000 A 
ATOM     12  O   UNL     1      -9.085   1.385 126.636  0.00  0.00    +0.000 OA
BRANCH   3  13
ATOM     13  O   UNL     1      -6.364   0.168 122.924  0.00  0.00    +0.000 OA
ATOM     14  H   UNL     1      -6.450   1.042 122.508  0.00  0.00    +0.000 HD
ENDBRANCH   3  13
ENDBRANCH   1   2
BRANCH   1  15
ATOM     15  C   UNL     1      -7.554   3.036 123.006  0.00  0.00    +0.000 A 
ATOM     16  C   UNL     1      -6.490   3.619 122.293  0.00  0.00    +0.000 A 
ATOM     17  C   UNL     1      -6.647   4.057 120.982  0.00  0.00    +0.000 A 
ATOM     18  C   UNL     1      -7.893   3.937 120.370  0.00  0.00    +0.000 A 
ATOM     19  C   UNL     1      -8.986   3.421 121.074  0.00  0.00    +0.000 A 
ATOM     20  C   UNL     1      -8.804   2.940 122.371  0.00  0.00    +0.000 A 
BRANCH  18  21
ATOM     21  N   UNL     1      -8.039   4.307 118.961  0.00  0.00    +0.000 N 
ATOM     22  O   UNL     1      -9.187   4.360 118.497  0.00  0.00    +0.000 OA
ATOM     23  O   UNL     1      -7.008   4.567 118.325  0.00  0.00    +0.000 OA
ENDBRANCH  18  21
ENDBRANCH   1  15
BRANCH   1  24
ATOM     24  C   UNL     1      -5.942   2.955 124.951  0.00  0.00    +0.000 C 
BRANCH  24  26
ATOM     25  C   UNL     1      -4.600   1.384 126.512  0.00  0.00    +0.000 C 
ATOM     26  C   UNL     1      -5.605   2.486 126.362  0.00  0.00    +0.000 C 
ATOM     27  O   UNL     1      -6.191   2.884 127.368  0.00  0.00    +0.000 OA
ENDBRANCH  24  26
ENDBRANCH   1  24
TORSDOF 6
ENDMDL
MODEL 5
REMARK VINA RESULT:      -7.9      7.627      9.252
REMARK  Name = Acenocoumarol
REMARK  7 active torsions:
REMARK  status: ('A' for Active; 'I' for Inactive)
REMARK    1  A    between atoms: C_1  and  C_2
REMARK    2  A    between atoms: C_2  and  C_4
REMARK    3  A    between atoms: C_4  and  C_5
REMARK    4  A    between atoms: C_5  and  C_6
REMARK    5  A    between atoms: C_5  and  C_15
REMARK    6  A    between atoms: C_9  and  N_12
REMARK    7  A    between atoms: C_16  and  O_17
REMARK                            x       y       z     vdW  Elec       q    Type
REMARK                         _______ _______ _______ _____ _____    ______ ____
ROOT
ATOM      1  C   UNL     1      -8.808   6.201 131.570  0.00  0.00    +0.000 C 
ENDROOT
BRANCH   1   2
ATOM      2  C   UNL     1      -8.809   4.657 131.612  0.00  0.00    +0.000 A 
ATOM      3  C   UNL     1      -8.662   3.874 130.523  0.00  0.00    +0.000 A 
ATOM      4  C   UNL     1      -8.493   2.436 130.672  0.00  0.00    +0.000 A 
ATOM      5  C   UNL     1      -7.792   1.632 129.771  0.00  0.00    +0.000 A 
ATOM      6  C   UNL     1      -7.852   0.243 129.887  0.00  0.00    +0.000 A 
ATOM      7  C   UNL     1      -8.587  -0.340 130.922  0.00  0.00    +0.000 A 
ATOM      8  C   UNL     1      -9.222   0.463 131.872  0.00  0.00    +0.000 A 
ATOM      9  C   UNL     1      -9.107   1.848 131.767  0.00  0.00    +0.000 A 
ATOM     10  O   UNL     1      -9.521   2.661 132.833  0.00  0.00    +0.000 OA
ATOM     11  C   UNL     1      -8.903   3.915 132.909  0.00  0.00    +0.000 A 
ATOM     12  O   UNL     1      -8.570   4.401 133.974  0.00  0.00    +0.000 OA
BRANCH   3  13
ATOM     13  O   UNL     1      -8.688   4.308 129.216  0.00  0.00    +0.000 OA
ATOM     14  H   UNL     1      -9.597   4.534 128.959  0.00  0.00    +0.000 HD
ENDBRANCH   3  13
ENDBRANCH   1   2
BRANCH   1  15
ATOM     15  C   UNL     1     -10.006   6.744 130.759  0.00  0.00    +0.000 A 
ATOM     16  C   UNL     1      -9.799   7.551 129.626  0.00  0.00    +0.000 A 
ATOM     17  C   UNL     1     -10.865   8.060 128.890  0.00  0.00    +0.000 A 
ATOM     18  C   UNL     1     -12.167   7.781 129.300  0.00  0.00    +0.000 A 
ATOM     19  C   UNL     1     -12.405   7.035 130.459  0.00  0.00    +0.000 A 
ATOM     20  C   UNL     1     -11.330   6.490 131.160  0.00  0.00    +0.000 A 
BRANCH  18  21
ATOM     21  N   UNL     1     -13.290   8.232 128.476  0.00  0.00    +0.000 N 
ATOM     22  O   UNL     1     -13.561   9.441 128.485  0.00  0.00    +0.000 OA
ATOM     23  O   UNL     1     -13.887   7.380 127.803  0.00  0.00    +0.000 OA
ENDBRANCH  18  21
ENDBRANCH   1  15
BRANCH   1  24
ATOM     24  C   UNL     1      -7.507   6.894 131.097  0.00  0.00    +0.000 C 
BRANCH  24  26
ATOM     25  C   UNL     1      -5.338   5.574 130.587  0.00  0.00    +0.000 C 
ATOM     26  C   UNL     1      -6.223   6.241 131.597  0.00  0.00    +0.000 C 
ATOM     27  O   UNL     1      -5.934   6.135 132.789  0.00  0.00    +0.000 OA
ENDBRANCH  24  26
ENDBRANCH   1  24
TORSDOF 6
ENDMDL
MODEL 6
REMARK VINA RESULT:      -7.8      7.329      8.954
REMARK  Name = Acenocoumarol
REMARK  7 active torsions:
REMARK  status: ('A' for Active; 'I' for Inactive)
REMARK    1  A    between atoms: C_1  and  C_2
REMARK    2  A    between atoms: C_2  and  C_4
REMARK    3  A    between atoms: C_4  and  C_5
REMARK    4  A    between atoms: C_5  and  C_6
REMARK    5  A    between atoms: C_5  and  C_15
REMARK    6  A    between atoms: C_9  and  N_12
REMARK    7  A    between atoms: C_16  and  O_17
REMARK                            x       y       z     vdW  Elec       q    Type
REMARK                         _______ _______ _______ _____ _____    ______ ____
ROOT
ATOM      1  C   UNL     1      -8.579   6.391 131.044  0.00  0.00    +0.000 C 
ENDROOT
BRANCH   1   2
ATOM      2  C   UNL     1      -8.470   4.875 130.770  0.00  0.00    +0.000 A 
ATOM      3  C   UNL     1      -8.594   3.927 131.721  0.00  0.00    +0.000 A 
ATOM      4  C   UNL     1      -8.658   2.520 131.351  0.00  0.00    +0.000 A 
ATOM      5  C   UNL     1      -9.329   1.545 132.091  0.00  0.00    +0.000 A 
ATOM      6  C   UNL     1      -9.169   0.197 131.769  0.00  0.00    +0.000 A 
ATOM      7  C   UNL     1      -8.364  -0.173 130.688  0.00  0.00    +0.000 A 
ATOM      8  C   UNL     1      -7.758   0.806 129.897  0.00  0.00    +0.000 A 
ATOM      9  C   UNL     1      -7.972   2.148 130.205  0.00  0.00    +0.000 A 
ATOM     10  O   UNL     1      -7.584   3.140 129.292  0.00  0.00    +0.000 OA
ATOM     11  C   UNL     1      -8.285   4.349 129.381  0.00  0.00    +0.000 A 
ATOM     12  O   UNL     1      -8.619   4.969 128.388  0.00  0.00    +0.000 OA
BRANCH   3  13
ATOM     13  O   UNL     1      -8.639   4.156 133.079  0.00  0.00    +0.000 OA
ATOM     14  H   UNL     1      -7.876   3.738 133.512  0.00  0.00    +0.000 HD
ENDBRANCH   3  13
ENDBRANCH   1   2
BRANCH   1  15
ATOM     15  C   UNL     1      -9.828   6.999 130.367  0.00  0.00    +0.000 A 
ATOM     16  C   UNL     1      -9.696   7.899 129.294  0.00  0.00    +0.000 A 
ATOM     17  C   UNL     1     -10.809   8.466 128.679  0.00  0.00    +0.000 A 
ATOM     18  C   UNL     1     -12.080   8.152 129.154  0.00  0.00    +0.000 A 
ATOM     19  C   UNL     1     -12.241   7.310 130.260  0.00  0.00    +0.000 A 
ATOM     20  C   UNL     1     -11.122   6.710 130.836  0.00  0.00    +0.000 A 
BRANCH  18  21
ATOM     21  N   UNL     1     -13.256   8.668 128.451  0.00  0.00    +0.000 N 
ATOM     22  O   UNL     1     -13.887   7.883 127.730  0.00  0.00    +0.000 OA
ATOM     23  O   UNL     1     -13.563   9.854 128.639  0.00  0.00    +0.000 OA
ENDBRANCH  18  21
ENDBRANCH   1  15
BRANCH   1  24
ATOM     24  C   UNL     1      -7.339   7.259 130.717  0.00  0.00    +0.000 C 
BRANCH  24  26
ATOM     25  C   UNL     1      -5.540   6.299 132.312  0.00  0.00    +0.000 C 
ATOM     26  C   UNL     1      -6.002   6.552 130.909  0.00  0.00    +0.000 C 
ATOM     27  O   UNL     1      -5.237   6.283 129.983  0.00  0.00    +0.000 OA
ENDBRANCH  24  26
ENDBRANCH   1  24
TORSDOF 6
ENDMDL
MODEL 7
REMARK VINA RESULT:      -7.7      4.173      8.216
REMARK  Name = Acenocoumarol
REMARK  7 active torsions:
REMARK  status: ('A' for Active; 'I' for Inactive)
REMARK    1  A    between atoms: C_1  and  C_2
REMARK    2  A    between atoms: C_2  and  C_4
REMARK    3  A    between atoms: C_4  and  C_5
REMARK    4  A    between atoms: C_5  and  C_6
REMARK    5  A    between atoms: C_5  and  C_15
REMARK    6  A    between atoms: C_9  and  N_12
REMARK    7  A    between atoms: C_16  and  O_17
REMARK                            x       y       z     vdW  Elec       q    Type
REMARK                         _______ _______ _______ _____ _____    ______ ____
ROOT
ATOM      1  C   UNL     1      -6.771  -2.678 125.325  0.00  0.00    +0.000 C 
ENDROOT
BRANCH   1   2
ATOM      2  C   UNL     1      -7.443  -1.498 124.589  0.00  0.00    +0.000 A 
ATOM      3  C   UNL     1      -6.955  -0.241 124.578  0.00  0.00    +0.000 A 
ATOM      4  C   UNL     1      -7.550   0.769 123.715  0.00  0.00    +0.000 A 
ATOM      5  C   UNL     1      -6.851   1.855 123.183  0.00  0.00    +0.000 A 
ATOM      6  C   UNL     1      -7.546   2.876 122.534  0.00  0.00    +0.000 A 
ATOM      7  C   UNL     1      -8.933   2.795 122.388  0.00  0.00    +0.000 A 
ATOM      8  C   UNL     1      -9.622   1.670 122.846  0.00  0.00    +0.000 A 
ATOM      9  C   UNL     1      -8.903   0.638 123.447  0.00  0.00    +0.000 A 
ATOM     10  O   UNL     1      -9.529  -0.593 123.689  0.00  0.00    +0.000 OA
ATOM     11  C   UNL     1      -8.674  -1.700 123.761  0.00  0.00    +0.000 A 
ATOM     12  O   UNL     1      -8.974  -2.774 123.272  0.00  0.00    +0.000 OA
BRANCH   3  13
ATOM     13  O   UNL     1      -5.920   0.223 125.360  0.00  0.00    +0.000 OA
ATOM     14  H   UNL     1      -5.858   1.190 125.290  0.00  0.00    +0.000 HD
ENDBRANCH   3  13
ENDBRANCH   1   2
BRANCH   1  15
ATOM     15  C   UNL     1      -6.987  -2.587 126.853  0.00  0.00    +0.000 A 
ATOM     16  C   UNL     1      -5.942  -2.178 127.702  0.00  0.00    +0.000 A 
ATOM     17  C   UNL     1      -6.115  -2.101 129.081  0.00  0.00    +0.000 A 
ATOM     18  C   UNL     1      -7.341  -2.462 129.633  0.00  0.00    +0.000 A 
ATOM     19  C   UNL     1      -8.377  -2.935 128.821  0.00  0.00    +0.000 A 
ATOM     20  C   UNL     1      -8.210  -2.960 127.437  0.00  0.00    +0.000 A 
BRANCH  18  21
ATOM     21  N   UNL     1      -7.558  -2.293 131.071  0.00  0.00    +0.000 N 
ATOM     22  O   UNL     1      -7.256  -3.237 131.814  0.00  0.00    +0.000 OA
ATOM     23  O   UNL     1      -8.009  -1.206 131.460  0.00  0.00    +0.000 OA
ENDBRANCH  18  21
ENDBRANCH   1  15
BRANCH   1  24
ATOM     24  C   UNL     1      -5.272  -2.933 125.029  0.00  0.00    +0.000 C 
BRANCH  24  26
ATOM     25  C   UNL     1      -4.282  -4.765 123.490  0.00  0.00    +0.000 C 
ATOM     26  C   UNL     1      -4.983  -3.447 123.622  0.00  0.00    +0.000 C 
ATOM     27  O   UNL     1      -5.192  -2.789 122.603  0.00  0.00    +0.000 OA
ENDBRANCH  24  26
ENDBRANCH   1  24
TORSDOF 6
ENDMDL
MODEL 8
REMARK VINA RESULT:      -7.7      8.193     10.542
REMARK  Name = Acenocoumarol
REMARK  7 active torsions:
REMARK  status: ('A' for Active; 'I' for Inactive)
REMARK    1  A    between atoms: C_1  and  C_2
REMARK    2  A    between atoms: C_2  and  C_4
REMARK    3  A    between atoms: C_4  and  C_5
REMARK    4  A    between atoms: C_5  and  C_6
REMARK    5  A    between atoms: C_5  and  C_15
REMARK    6  A    between atoms: C_9  and  N_12
REMARK    7  A    between atoms: C_16  and  O_17
REMARK                            x       y       z     vdW  Elec       q    Type
REMARK                         _______ _______ _______ _____ _____    ______ ____
ROOT
ATOM      1  C   UNL     1      -9.634   4.711 131.116  0.00  0.00    +0.000 C 
ENDROOT
BRANCH   1   2
ATOM      2  C   UNL     1     -10.476   5.729 130.316  0.00  0.00    +0.000 A 
ATOM      3  C   UNL     1     -11.438   6.503 130.858  0.00  0.00    +0.000 A 
ATOM      4  C   UNL     1     -12.058   7.561 130.074  0.00  0.00    +0.000 A 
ATOM      5  C   UNL     1     -12.589   8.731 130.619  0.00  0.00    +0.000 A 
ATOM      6  C   UNL     1     -13.338   9.592 129.817  0.00  0.00    +0.000 A 
ATOM      7  C   UNL     1     -13.530   9.299 128.464  0.00  0.00    +0.000 A 
ATOM      8  C   UNL     1     -12.930   8.170 127.899  0.00  0.00    +0.000 A 
ATOM      9  C   UNL     1     -12.144   7.351 128.706  0.00  0.00    +0.000 A 
ATOM     10  O   UNL     1     -11.340   6.363 128.118  0.00  0.00    +0.000 OA
ATOM     11  C   UNL     1     -10.219   5.976 128.862  0.00  0.00    +0.000 A 
ATOM     12  O   UNL     1      -9.144   5.756 128.333  0.00  0.00    +0.000 OA
BRANCH   3  13
ATOM     13  O   UNL     1     -11.946   6.372 132.132  0.00  0.00    +0.000 OA
ATOM     14  H   UNL     1     -11.362   6.814 132.770  0.00  0.00    +0.000 HD
ENDBRANCH   3  13
ENDBRANCH   1   2
BRANCH   1  15
ATOM     15  C   UNL     1      -8.132   5.073 131.086  0.00  0.00    +0.000 A 
ATOM     16  C   UNL     1      -7.687   6.329 131.539  0.00  0.00    +0.000 A 
ATOM     17  C   UNL     1      -6.339   6.677 131.509  0.00  0.00    +0.000 A 
ATOM     18  C   UNL     1      -5.415   5.769 130.997  0.00  0.00    +0.000 A 
ATOM     19  C   UNL     1      -5.835   4.539 130.480  0.00  0.00    +0.000 A 
ATOM     20  C   UNL     1      -7.180   4.182 130.561  0.00  0.00    +0.000 A 
BRANCH  18  21
ATOM     21  N   UNL     1      -3.988   6.091 131.051  0.00  0.00    +0.000 N 
ATOM     22  O   UNL     1      -3.318   5.587 131.964  0.00  0.00    +0.000 OA
ATOM     23  O   UNL     1      -3.531   6.830 130.167  0.00  0.00    +0.000 OA
ENDBRANCH  18  21
ENDBRANCH   1  15
BRANCH   1  24
ATOM     24  C   UNL     1      -9.812   3.214 130.763  0.00  0.00    +0.000 C 
BRANCH  24  26
ATOM     25  C   UNL     1      -9.296   2.809 133.268  0.00  0.00    +0.000 C 
ATOM     26  C   UNL     1      -9.804   2.274 131.963  0.00  0.00    +0.000 C 
ATOM     27  O   UNL     1     -10.085   1.078 131.891  0.00  0.00    +0.000 OA
ENDBRANCH  24  26
ENDBRANCH   1  24
TORSDOF 6
ENDMDL
MODEL 9
REMARK VINA RESULT:      -7.6      2.798      4.529
REMARK  Name = Acenocoumarol
REMARK  7 active torsions:
REMARK  status: ('A' for Active; 'I' for Inactive)
REMARK    1  A    between atoms: C_1  and  C_2
REMARK    2  A    between atoms: C_2  and  C_4
REMARK    3  A    between atoms: C_4  and  C_5
REMARK    4  A    between atoms: C_5  and  C_6
REMARK    5  A    between atoms: C_5  and  C_15
REMARK    6  A    between atoms: C_9  and  N_12
REMARK    7  A    between atoms: C_16  and  O_17
REMARK                            x       y       z     vdW  Elec       q    Type
REMARK                         _______ _______ _______ _____ _____    ______ ____
ROOT
ATOM      1  C   UNL     1      -7.248   2.246 123.397  0.00  0.00    +0.000 C 
ENDROOT
BRANCH   1   2
ATOM      2  C   UNL     1      -7.734   0.898 123.974  0.00  0.00    +0.000 A 
ATOM      3  C   UNL     1      -7.243  -0.302 123.602  0.00  0.00    +0.000 A 
ATOM      4  C   UNL     1      -7.626  -1.507 124.322  0.00  0.00    +0.000 A 
ATOM      5  C   UNL     1      -6.819  -2.640 124.439  0.00  0.00    +0.000 A 
ATOM      6  C   UNL     1      -7.347  -3.816 124.974  0.00  0.00    +0.000 A 
ATOM      7  C   UNL     1      -8.670  -3.848 125.421  0.00  0.00    +0.000 A 
ATOM      8  C   UNL     1      -9.453  -2.692 125.380  0.00  0.00    +0.000 A 
ATOM      9  C   UNL     1      -8.891  -1.516 124.889  0.00  0.00    +0.000 A 
ATOM     10  O   UNL     1      -9.567  -0.299 125.065  0.00  0.00    +0.000 OA
ATOM     11  C   UNL     1      -8.758   0.844 125.065  0.00  0.00    +0.000 A 
ATOM     12  O   UNL     1      -8.955   1.768 125.833  0.00  0.00    +0.000 OA
BRANCH   3  13
ATOM     13  O   UNL     1      -6.397  -0.525 122.537  0.00  0.00    +0.000 OA
ATOM     14  H   UNL     1      -5.739  -1.200 122.771  0.00  0.00    +0.000 HD
ENDBRANCH   3  13
ENDBRANCH   1   2
BRANCH   1  15
ATOM     15  C   UNL     1      -6.396   3.026 124.424  0.00  0.00    +0.000 A 
ATOM     16  C   UNL     1      -5.526   2.348 125.298  0.00  0.00    +0.000 A 
ATOM     17  C   UNL     1      -4.760   3.033 126.237  0.00  0.00    +0.000 A 
ATOM     18  C   UNL     1      -4.877   4.418 126.328  0.00  0.00    +0.000 A 
ATOM     19  C   UNL     1      -5.781   5.113 125.518  0.00  0.00    +0.000 A 
ATOM     20  C   UNL     1      -6.506   4.422 124.548  0.00  0.00    +0.000 A 
BRANCH  18  21
ATOM     21  N   UNL     1      -4.005   5.152 127.247  0.00  0.00    +0.000 N 
ATOM     22  O   UNL     1      -2.843   4.744 127.388  0.00  0.00    +0.000 OA
ATOM     23  O   UNL     1      -4.474   6.152 127.810  0.00  0.00    +0.000 OA
ENDBRANCH  18  21
ENDBRANCH   1  15
BRANCH   1  24
ATOM     24  C   UNL     1      -8.323   3.185 122.796  0.00  0.00    +0.000 C 
BRANCH  24  26
ATOM     25  C   UNL     1      -6.715   3.741 120.844  0.00  0.00    +0.000 C 
ATOM     26  C   UNL     1      -8.118   3.522 121.323  0.00  0.00    +0.000 C 
ATOM     27  O   UNL     1      -9.044   3.731 120.540  0.00  0.00    +0.000 OA
ENDBRANCH  24  26
ENDBRANCH   1  24
TORSDOF 6
ENDMDL
