MODEL 1
REMARK VINA RESULT:      -7.5      0.000      0.000
REMARK  Name = Acetophenazine
REMARK  9 active torsions:
REMARK  status: ('A' for Active; 'I' for Inactive)
REMARK    1  A    between atoms: C_1  and  C_2
REMARK    2  A    between atoms: C_2  and  C_4
REMARK    3  A    between atoms: N_15  and  C_16
REMARK    4  A    between atoms: C_16  and  C_17
REMARK    5  A    between atoms: C_17  and  C_18
REMARK    6  A    between atoms: C_18  and  N_19
REMARK    7  A    between atoms: N_22  and  C_23
REMARK    8  A    between atoms: C_23  and  C_24
REMARK    9  A    between atoms: C_24  and  O_25
REMARK                            x       y       z     vdW  Elec       q    Type
REMARK                         _______ _______ _______ _____ _____    ______ ____
ROOT
ATOM      1  C   UNL     1      -7.795  -2.386 124.548  0.00  0.00    +0.000 A 
ATOM      2  C   UNL     1      -8.922  -3.046 125.025  0.00  0.00    +0.000 A 
ATOM      3  C   UNL     1      -9.039  -3.296 126.395  0.00  0.00    +0.000 A 
ATOM      4  C   UNL     1      -8.060  -2.846 127.295  0.00  0.00    +0.000 A 
ATOM      5  S   UNL     1      -8.256  -3.214 129.032  0.00  0.00    +0.000 S 
ATOM      6  C   UNL     1      -6.527  -3.333 129.480  0.00  0.00    +0.000 A 
ATOM      7  C   UNL     1      -5.551  -2.555 128.821  0.00  0.00    +0.000 A 
ATOM      8  C   UNL     1      -4.207  -2.712 129.188  0.00  0.00    +0.000 A 
ATOM      9  C   UNL     1      -3.841  -3.616 130.184  0.00  0.00    +0.000 A 
ATOM     10  C   UNL     1      -4.815  -4.374 130.832  0.00  0.00    +0.000 A 
ATOM     11  C   UNL     1      -6.156  -4.232 130.483  0.00  0.00    +0.000 A 
ATOM     12  N   UNL     1      -5.889  -1.759 127.700  0.00  0.00    +0.000 N 
ATOM     13  C   UNL     1      -6.925  -2.156 126.828  0.00  0.00    +0.000 A 
ATOM     14  C   UNL     1      -6.788  -2.014 125.438  0.00  0.00    +0.000 A 
ENDROOT
BRANCH   1  16
ATOM     15  C   UNL     1      -6.196  -2.033 122.576  0.00  0.00    +0.000 C 
ATOM     16  C   UNL     1      -7.598  -2.064 123.113  0.00  0.00    +0.000 C 
ATOM     17  O   UNL     1      -8.579  -1.928 122.379  0.00  0.00    +0.000 OA
ENDBRANCH   1  16
BRANCH  12  18
ATOM     18  C   UNL     1      -5.415  -0.340 127.783  0.00  0.00    +0.000 C 
BRANCH  18  19
ATOM     19  C   UNL     1      -6.461   0.601 128.341  0.00  0.00    +0.000 C 
BRANCH  19  20
ATOM     20  C   UNL     1      -6.818   1.857 127.568  0.00  0.00    +0.000 C 
BRANCH  20  21
ATOM     21  N   UNL     1      -6.634   1.572 126.126  0.00  0.00    +0.000 NA
ATOM     22  C   UNL     1      -7.927   1.416 125.425  0.00  0.00    +0.000 C 
ATOM     23  C   UNL     1      -8.639   2.747 125.059  0.00  0.00    +0.000 C 
ATOM     24  N   UNL     1      -7.772   3.717 124.345  0.00  0.00    +0.000 NA
ATOM     25  C   UNL     1      -6.563   3.916 125.172  0.00  0.00    +0.000 C 
ATOM     26  C   UNL     1      -5.817   2.587 125.410  0.00  0.00    +0.000 C 
BRANCH  24  27
ATOM     27  C   UNL     1      -7.422   3.202 123.002  0.00  0.00    +0.000 C 
BRANCH  27  28
ATOM     28  C   UNL     1      -8.642   2.943 122.107  0.00  0.00    +0.000 C 
BRANCH  28  29
ATOM     29  O   UNL     1      -8.822   4.024 121.198  0.00  0.00    +0.000 OA
ATOM     30  H   UNL     1      -7.988   4.526 121.188  0.00  0.00    +0.000 HD
ENDBRANCH  28  29
ENDBRANCH  27  28
ENDBRANCH  24  27
ENDBRANCH  20  21
ENDBRANCH  19  20
ENDBRANCH  18  19
ENDBRANCH  12  18
TORSDOF 8
ENDMDL
MODEL 2
REMARK VINA RESULT:      -7.0      6.484      8.957
REMARK  Name = Acetophenazine
REMARK  9 active torsions:
REMARK  status: ('A' for Active; 'I' for Inactive)
REMARK    1  A    between atoms: C_1  and  C_2
REMARK    2  A    between atoms: C_2  and  C_4
REMARK    3  A    between atoms: N_15  and  C_16
REMARK    4  A    between atoms: C_16  and  C_17
REMARK    5  A    between atoms: C_17  and  C_18
REMARK    6  A    between atoms: C_18  and  N_19
REMARK    7  A    between atoms: N_22  and  C_23
REMARK    8  A    between atoms: C_23  and  C_24
REMARK    9  A    between atoms: C_24  and  O_25
REMARK                            x       y       z     vdW  Elec       q    Type
REMARK                         _______ _______ _______ _____ _____    ______ ____
ROOT
ATOM      1  C   UNL     1     -10.995   6.797 130.850  0.00  0.00    +0.000 A 
ATOM      2  C   UNL     1     -10.042   7.422 130.056  0.00  0.00    +0.000 A 
ATOM      3  C   UNL     1      -8.686   7.180 130.297  0.00  0.00    +0.000 A 
ATOM      4  C   UNL     1      -8.283   6.280 131.296  0.00  0.00    +0.000 A 
ATOM      5  S   UNL     1      -6.536   6.029 131.570  0.00  0.00    +0.000 S 
ATOM      6  C   UNL     1      -6.584   5.686 133.326  0.00  0.00    +0.000 A 
ATOM      7  C   UNL     1      -7.696   5.043 133.911  0.00  0.00    +0.000 A 
ATOM      8  C   UNL     1      -7.697   4.829 135.296  0.00  0.00    +0.000 A 
ATOM      9  C   UNL     1      -6.622   5.241 136.082  0.00  0.00    +0.000 A 
ATOM     10  C   UNL     1      -5.526   5.869 135.493  0.00  0.00    +0.000 A 
ATOM     11  C   UNL     1      -5.505   6.091 134.117  0.00  0.00    +0.000 A 
ATOM     12  N   UNL     1      -8.861   4.770 133.152  0.00  0.00    +0.000 N 
ATOM     13  C   UNL     1      -9.239   5.622 132.093  0.00  0.00    +0.000 A 
ATOM     14  C   UNL     1     -10.585   5.966 131.893  0.00  0.00    +0.000 A 
ENDROOT
BRANCH   1  16
ATOM     15  C   UNL     1     -13.004   6.868 129.258  0.00  0.00    +0.000 C 
ATOM     16  C   UNL     1     -12.455   6.981 130.652  0.00  0.00    +0.000 C 
ATOM     17  O   UNL     1     -13.189   7.123 131.631  0.00  0.00    +0.000 OA
ENDBRANCH   1  16
BRANCH  12  18
ATOM     18  C   UNL     1      -9.349   3.358 133.255  0.00  0.00    +0.000 C 
BRANCH  18  19
ATOM     19  C   UNL     1      -8.294   2.339 132.881  0.00  0.00    +0.000 C 
BRANCH  19  20
ATOM     20  C   UNL     1      -7.585   2.461 131.545  0.00  0.00    +0.000 C 
BRANCH  20  21
ATOM     21  N   UNL     1      -8.492   1.936 130.498  0.00  0.00    +0.000 NA
ATOM     22  C   UNL     1      -9.034   3.017 129.646  0.00  0.00    +0.000 C 
ATOM     23  C   UNL     1      -8.070   3.525 128.539  0.00  0.00    +0.000 C 
ATOM     24  N   UNL     1      -7.488   2.444 127.705  0.00  0.00    +0.000 NA
ATOM     25  C   UNL     1      -6.855   1.473 128.623  0.00  0.00    +0.000 C 
ATOM     26  C   UNL     1      -7.875   0.900 129.629  0.00  0.00    +0.000 C 
BRANCH  24  27
ATOM     27  C   UNL     1      -8.543   1.800 126.890  0.00  0.00    +0.000 C 
BRANCH  27  28
ATOM     28  C   UNL     1      -8.480   2.169 125.403  0.00  0.00    +0.000 C 
BRANCH  28  29
ATOM     29  O   UNL     1      -9.140   3.411 125.177  0.00  0.00    +0.000 OA
ATOM     30  H   UNL     1      -9.940   3.410 125.732  0.00  0.00    +0.000 HD
ENDBRANCH  28  29
ENDBRANCH  27  28
ENDBRANCH  24  27
ENDBRANCH  20  21
ENDBRANCH  19  20
ENDBRANCH  18  19
ENDBRANCH  12  18
TORSDOF 8
ENDMDL
MODEL 3
REMARK VINA RESULT:      -6.9      3.436      4.474
REMARK  Name = Acetophenazine
REMARK  9 active torsions:
REMARK  status: ('A' for Active; 'I' for Inactive)
REMARK    1  A    between atoms: C_1  and  C_2
REMARK    2  A    between atoms: C_2  and  C_4
REMARK    3  A    between atoms: N_15  and  C_16
REMARK    4  A    between atoms: C_16  and  C_17
REMARK    5  A    between atoms: C_17  and  C_18
REMARK    6  A    between atoms: C_18  and  N_19
REMARK    7  A    between atoms: N_22  and  C_23
REMARK    8  A    between atoms: C_23  and  C_24
REMARK    9  A    between atoms: C_24  and  O_25
REMARK                            x       y       z     vdW  Elec       q    Type
REMARK                         _______ _______ _______ _____ _____    ______ ____
ROOT
ATOM      1  C   UNL     1      -7.960  -2.212 124.616  0.00  0.00    +0.000 A 
ATOM      2  C   UNL     1      -9.026  -2.995 125.042  0.00  0.00    +0.000 A 
ATOM      3  C   UNL     1      -9.128  -3.334 126.395  0.00  0.00    +0.000 A 
ATOM      4  C   UNL     1      -8.196  -2.853 127.328  0.00  0.00    +0.000 A 
ATOM      5  S   UNL     1      -8.367  -3.339 129.039  0.00  0.00    +0.000 S 
ATOM      6  C   UNL     1      -6.637  -3.332 129.497  0.00  0.00    +0.000 A 
ATOM      7  C   UNL     1      -5.730  -2.434 128.894  0.00  0.00    +0.000 A 
ATOM      8  C   UNL     1      -4.380  -2.493 129.265  0.00  0.00    +0.000 A 
ATOM      9  C   UNL     1      -3.940  -3.418 130.211  0.00  0.00    +0.000 A 
ATOM     10  C   UNL     1      -4.846  -4.295 130.803  0.00  0.00    +0.000 A 
ATOM     11  C   UNL     1      -6.193  -4.252 130.450  0.00  0.00    +0.000 A 
ATOM     12  N   UNL     1      -6.132  -1.605 127.818  0.00  0.00    +0.000 N 
ATOM     13  C   UNL     1      -7.124  -2.040 126.914  0.00  0.00    +0.000 A 
ATOM     14  C   UNL     1      -6.994  -1.805 125.536  0.00  0.00    +0.000 A 
ENDROOT
BRANCH   1  16
ATOM     15  C   UNL     1      -6.408  -1.854 122.606  0.00  0.00    +0.000 C 
ATOM     16  C   UNL     1      -7.785  -1.789 123.204  0.00  0.00    +0.000 C 
ATOM     17  O   UNL     1      -8.774  -1.493 122.530  0.00  0.00    +0.000 OA
ENDBRANCH   1  16
BRANCH  12  18
ATOM     18  C   UNL     1      -5.785  -0.158 127.988  0.00  0.00    +0.000 C 
BRANCH  18  19
ATOM     19  C   UNL     1      -6.996   0.713 128.250  0.00  0.00    +0.000 C 
BRANCH  19  20
ATOM     20  C   UNL     1      -7.771   0.538 129.543  0.00  0.00    +0.000 C 
BRANCH  20  21
ATOM     21  N   UNL     1      -7.319   1.583 130.490  0.00  0.00    +0.000 NA
ATOM     22  C   UNL     1      -7.537   2.945 129.954  0.00  0.00    +0.000 C 
ATOM     23  C   UNL     1      -8.991   3.474 130.082  0.00  0.00    +0.000 C 
ATOM     24  N   UNL     1      -9.558   3.353 131.449  0.00  0.00    +0.000 NA
ATOM     25  C   UNL     1      -9.418   1.940 131.859  0.00  0.00    +0.000 C 
ATOM     26  C   UNL     1      -7.944   1.488 131.835  0.00  0.00    +0.000 C 
BRANCH  24  27
ATOM     27  C   UNL     1      -8.844   4.253 132.382  0.00  0.00    +0.000 C 
BRANCH  27  28
ATOM     28  C   UNL     1      -9.399   5.683 132.401  0.00  0.00    +0.000 C 
BRANCH  28  29
ATOM     29  O   UNL     1     -10.766   5.674 132.801  0.00  0.00    +0.000 OA
ATOM     30  H   UNL     1     -11.258   6.189 132.138  0.00  0.00    +0.000 HD
ENDBRANCH  28  29
ENDBRANCH  27  28
ENDBRANCH  24  27
ENDBRANCH  20  21
ENDBRANCH  19  20
ENDBRANCH  18  19
ENDBRANCH  12  18
TORSDOF 8
ENDMDL
MODEL 4
REMARK VINA RESULT:      -6.9      3.647      6.220
REMARK  Name = Acetophenazine
REMARK  9 active torsions:
REMARK  status: ('A' for Active; 'I' for Inactive)
REMARK    1  A    between atoms: C_1  and  C_2
REMARK    2  A    between atoms: C_2  and  C_4
REMARK    3  A    between atoms: N_15  and  C_16
REMARK    4  A    between atoms: C_16  and  C_17
REMARK    5  A    between atoms: C_17  and  C_18
REMARK    6  A    between atoms: C_18  and  N_19
REMARK    7  A    between atoms: N_22  and  C_23
REMARK    8  A    between atoms: C_23  and  C_24
REMARK    9  A    between atoms: C_24  and  O_25
REMARK                            x       y       z     vdW  Elec       q    Type
REMARK                         _______ _______ _______ _____ _____    ______ ____
ROOT
ATOM      1  C   UNL     1      -4.013   3.287 126.327  0.00  0.00    +0.000 A 
ATOM      2  C   UNL     1      -4.943   4.082 125.668  0.00  0.00    +0.000 A 
ATOM      3  C   UNL     1      -6.101   3.494 125.151  0.00  0.00    +0.000 A 
ATOM      4  C   UNL     1      -6.355   2.125 125.334  0.00  0.00    +0.000 A 
ATOM      5  S   UNL     1      -7.842   1.427 124.632  0.00  0.00    +0.000 S 
ATOM      6  C   UNL     1      -7.235  -0.223 124.297  0.00  0.00    +0.000 A 
ATOM      7  C   UNL     1      -6.254  -0.817 125.120  0.00  0.00    +0.000 A 
ATOM      8  C   UNL     1      -5.789  -2.098 124.793  0.00  0.00    +0.000 A 
ATOM      9  C   UNL     1      -6.285  -2.774 123.679  0.00  0.00    +0.000 A 
ATOM     10  C   UNL     1      -7.258  -2.180 122.878  0.00  0.00    +0.000 A 
ATOM     11  C   UNL     1      -7.735  -0.907 123.186  0.00  0.00    +0.000 A 
ATOM     12  N   UNL     1      -5.625  -0.079 126.153  0.00  0.00    +0.000 N 
ATOM     13  C   UNL     1      -5.432   1.313 126.020  0.00  0.00    +0.000 A 
ATOM     14  C   UNL     1      -4.233   1.914 126.434  0.00  0.00    +0.000 A 
ENDROOT
BRANCH   1  16
ATOM     15  C   UNL     1      -1.486   3.076 126.709  0.00  0.00    +0.000 C 
ATOM     16  C   UNL     1      -2.767   3.832 126.922  0.00  0.00    +0.000 C 
ATOM     17  O   UNL     1      -2.790   4.928 127.486  0.00  0.00    +0.000 OA
ENDBRANCH   1  16
BRANCH  12  18
ATOM     18  C   UNL     1      -5.616  -0.763 127.485  0.00  0.00    +0.000 C 
BRANCH  18  19
ATOM     19  C   UNL     1      -6.924  -0.617 128.233  0.00  0.00    +0.000 C 
BRANCH  19  20
ATOM     20  C   UNL     1      -6.980   0.263 129.468  0.00  0.00    +0.000 C 
BRANCH  20  21
ATOM     21  N   UNL     1      -8.257   1.013 129.437  0.00  0.00    +0.000 NA
ATOM     22  C   UNL     1      -8.596   1.580 130.760  0.00  0.00    +0.000 C 
ATOM     23  C   UNL     1      -7.849   2.893 131.121  0.00  0.00    +0.000 C 
ATOM     24  N   UNL     1      -7.925   3.937 130.069  0.00  0.00    +0.000 NA
ATOM     25  C   UNL     1      -7.449   3.328 128.809  0.00  0.00    +0.000 C 
ATOM     26  C   UNL     1      -8.295   2.098 128.422  0.00  0.00    +0.000 C 
BRANCH  24  27
ATOM     27  C   UNL     1      -9.315   4.429 129.933  0.00  0.00    +0.000 C 
BRANCH  27  28
ATOM     28  C   UNL     1      -9.407   5.914 129.561  0.00  0.00    +0.000 C 
BRANCH  28  29
ATOM     29  O   UNL     1      -9.628   6.057 128.162  0.00  0.00    +0.000 OA
ATOM     30  H   UNL     1      -8.766   5.932 127.726  0.00  0.00    +0.000 HD
ENDBRANCH  28  29
ENDBRANCH  27  28
ENDBRANCH  24  27
ENDBRANCH  20  21
ENDBRANCH  19  20
ENDBRANCH  18  19
ENDBRANCH  12  18
TORSDOF 8
ENDMDL
MODEL 5
REMARK VINA RESULT:      -6.9      6.928     10.045
REMARK  Name = Acetophenazine
REMARK  9 active torsions:
REMARK  status: ('A' for Active; 'I' for Inactive)
REMARK    1  A    between atoms: C_1  and  C_2
REMARK    2  A    between atoms: C_2  and  C_4
REMARK    3  A    between atoms: N_15  and  C_16
REMARK    4  A    between atoms: C_16  and  C_17
REMARK    5  A    between atoms: C_17  and  C_18
REMARK    6  A    between atoms: C_18  and  N_19
REMARK    7  A    between atoms: N_22  and  C_23
REMARK    8  A    between atoms: C_23  and  C_24
REMARK    9  A    between atoms: C_24  and  O_25
REMARK                            x       y       z     vdW  Elec       q    Type
REMARK                         _______ _______ _______ _____ _____    ______ ____
ROOT
ATOM      1  C   UNL     1     -10.892   6.776 131.018  0.00  0.00    +0.000 A 
ATOM      2  C   UNL     1      -9.927   7.250 130.137  0.00  0.00    +0.000 A 
ATOM      3  C   UNL     1      -8.580   6.965 130.381  0.00  0.00    +0.000 A 
ATOM      4  C   UNL     1      -8.200   6.169 131.473  0.00  0.00    +0.000 A 
ATOM      5  S   UNL     1      -6.462   5.858 131.744  0.00  0.00    +0.000 S 
ATOM      6  C   UNL     1      -6.485   5.730 133.528  0.00  0.00    +0.000 A 
ATOM      7  C   UNL     1      -7.614   5.222 134.206  0.00  0.00    +0.000 A 
ATOM      8  C   UNL     1      -7.593   5.174 135.606  0.00  0.00    +0.000 A 
ATOM      9  C   UNL     1      -6.478   5.618 136.318  0.00  0.00    +0.000 A 
ATOM     10  C   UNL     1      -5.367   6.110 135.638  0.00  0.00    +0.000 A 
ATOM     11  C   UNL     1      -5.367   6.166 134.245  0.00  0.00    +0.000 A 
ATOM     12  N   UNL     1      -8.810   4.924 133.507  0.00  0.00    +0.000 N 
ATOM     13  C   UNL     1      -9.169   5.664 132.360  0.00  0.00    +0.000 A 
ATOM     14  C   UNL     1     -10.500   6.054 132.145  0.00  0.00    +0.000 A 
ENDROOT
BRANCH   1  16
ATOM     15  C   UNL     1     -12.902   6.928 129.433  0.00  0.00    +0.000 C 
ATOM     16  C   UNL     1     -12.344   7.015 130.825  0.00  0.00    +0.000 C 
ATOM     17  O   UNL     1     -13.070   7.180 131.808  0.00  0.00    +0.000 OA
ENDBRANCH   1  16
BRANCH  12  18
ATOM     18  C   UNL     1      -9.368   3.563 133.787  0.00  0.00    +0.000 C 
BRANCH  18  19
ATOM     19  C   UNL     1      -9.057   2.561 132.696  0.00  0.00    +0.000 C 
BRANCH  19  20
ATOM     20  C   UNL     1      -7.723   1.839 132.710  0.00  0.00    +0.000 C 
BRANCH  20  21
ATOM     21  N   UNL     1      -7.991   0.386 132.816  0.00  0.00    +0.000 NA
ATOM     22  C   UNL     1      -8.797  -0.110 131.678  0.00  0.00    +0.000 C 
ATOM     23  C   UNL     1      -7.997  -0.366 130.372  0.00  0.00    +0.000 C 
ATOM     24  N   UNL     1      -6.787  -1.204 130.561  0.00  0.00    +0.000 NA
ATOM     25  C   UNL     1      -5.975  -0.571 131.622  0.00  0.00    +0.000 C 
ATOM     26  C   UNL     1      -6.767  -0.446 132.940  0.00  0.00    +0.000 C 
BRANCH  24  27
ATOM     27  C   UNL     1      -7.171  -2.584 130.934  0.00  0.00    +0.000 C 
BRANCH  27  28
ATOM     28  C   UNL     1      -6.833  -3.627 129.860  0.00  0.00    +0.000 C 
BRANCH  28  29
ATOM     29  O   UNL     1      -5.928  -4.594 130.382  0.00  0.00    +0.000 OA
ATOM     30  H   UNL     1      -6.334  -4.951 131.192  0.00  0.00    +0.000 HD
ENDBRANCH  28  29
ENDBRANCH  27  28
ENDBRANCH  24  27
ENDBRANCH  20  21
ENDBRANCH  19  20
ENDBRANCH  18  19
ENDBRANCH  12  18
TORSDOF 8
ENDMDL
MODEL 6
REMARK VINA RESULT:      -6.8      3.250      5.941
REMARK  Name = Acetophenazine
REMARK  9 active torsions:
REMARK  status: ('A' for Active; 'I' for Inactive)
REMARK    1  A    between atoms: C_1  and  C_2
REMARK    2  A    between atoms: C_2  and  C_4
REMARK    3  A    between atoms: N_15  and  C_16
REMARK    4  A    between atoms: C_16  and  C_17
REMARK    5  A    between atoms: C_17  and  C_18
REMARK    6  A    between atoms: C_18  and  N_19
REMARK    7  A    between atoms: N_22  and  C_23
REMARK    8  A    between atoms: C_23  and  C_24
REMARK    9  A    between atoms: C_24  and  O_25
REMARK                            x       y       z     vdW  Elec       q    Type
REMARK                         _______ _______ _______ _____ _____    ______ ____
ROOT
ATOM      1  C   UNL     1      -7.965  -2.661 128.457  0.00  0.00    +0.000 A 
ATOM      2  C   UNL     1      -8.695  -3.674 127.847  0.00  0.00    +0.000 A 
ATOM      3  C   UNL     1      -8.969  -3.591 126.479  0.00  0.00    +0.000 A 
ATOM      4  C   UNL     1      -8.475  -2.524 125.711  0.00  0.00    +0.000 A 
ATOM      5  S   UNL     1      -8.877  -2.462 123.971  0.00  0.00    +0.000 S 
ATOM      6  C   UNL     1      -8.904  -0.685 123.762  0.00  0.00    +0.000 A 
ATOM      7  C   UNL     1      -8.063   0.149 124.530  0.00  0.00    +0.000 A 
ATOM      8  C   UNL     1      -8.147   1.536 124.351  0.00  0.00    +0.000 A 
ATOM      9  C   UNL     1      -9.042   2.083 123.433  0.00  0.00    +0.000 A 
ATOM     10  C   UNL     1      -9.863   1.250 122.676  0.00  0.00    +0.000 A 
ATOM     11  C   UNL     1      -9.794  -0.133 122.838  0.00  0.00    +0.000 A 
ATOM     12  N   UNL     1      -7.272  -0.382 125.579  0.00  0.00    +0.000 N 
ATOM     13  C   UNL     1      -7.716  -1.503 126.311  0.00  0.00    +0.000 A 
ATOM     14  C   UNL     1      -7.547  -1.564 127.704  0.00  0.00    +0.000 A 
ENDROOT
BRANCH   1  16
ATOM     15  C   UNL     1      -6.670  -3.741 130.389  0.00  0.00    +0.000 C 
ATOM     16  C   UNL     1      -7.613  -2.679 129.899  0.00  0.00    +0.000 C 
ATOM     17  O   UNL     1      -8.016  -1.776 130.635  0.00  0.00    +0.000 OA
ENDBRANCH   1  16
BRANCH  12  18
ATOM     18  C   UNL     1      -5.829   0.021 125.531  0.00  0.00    +0.000 C 
BRANCH  18  19
ATOM     19  C   UNL     1      -5.398   0.817 126.743  0.00  0.00    +0.000 C 
BRANCH  19  20
ATOM     20  C   UNL     1      -5.768   2.285 126.839  0.00  0.00    +0.000 C 
BRANCH  20  21
ATOM     21  N   UNL     1      -5.987   2.608 128.267  0.00  0.00    +0.000 NA
ATOM     22  C   UNL     1      -6.425   4.009 128.455  0.00  0.00    +0.000 C 
ATOM     23  C   UNL     1      -7.932   4.266 128.179  0.00  0.00    +0.000 C 
ATOM     24  N   UNL     1      -8.842   3.334 128.889  0.00  0.00    +0.000 NA
ATOM     25  C   UNL     1      -8.418   1.960 128.547  0.00  0.00    +0.000 C 
ATOM     26  C   UNL     1      -6.951   1.706 128.949  0.00  0.00    +0.000 C 
BRANCH  24  27
ATOM     27  C   UNL     1      -8.777   3.566 130.350  0.00  0.00    +0.000 C 
BRANCH  27  28
ATOM     28  C   UNL     1     -10.136   3.900 130.979  0.00  0.00    +0.000 C 
BRANCH  28  29
ATOM     29  O   UNL     1     -11.174   3.745 130.017  0.00  0.00    +0.000 OA
ATOM     30  H   UNL     1     -11.828   3.136 130.404  0.00  0.00    +0.000 HD
ENDBRANCH  28  29
ENDBRANCH  27  28
ENDBRANCH  24  27
ENDBRANCH  20  21
ENDBRANCH  19  20
ENDBRANCH  18  19
ENDBRANCH  12  18
TORSDOF 8
ENDMDL
MODEL 7
REMARK VINA RESULT:      -6.8      3.893      6.340
REMARK  Name = Acetophenazine
REMARK  9 active torsions:
REMARK  status: ('A' for Active; 'I' for Inactive)
REMARK    1  A    between atoms: C_1  and  C_2
REMARK    2  A    between atoms: C_2  and  C_4
REMARK    3  A    between atoms: N_15  and  C_16
REMARK    4  A    between atoms: C_16  and  C_17
REMARK    5  A    between atoms: C_17  and  C_18
REMARK    6  A    between atoms: C_18  and  N_19
REMARK    7  A    between atoms: N_22  and  C_23
REMARK    8  A    between atoms: C_23  and  C_24
REMARK    9  A    between atoms: C_24  and  O_25
REMARK                            x       y       z     vdW  Elec       q    Type
REMARK                         _______ _______ _______ _____ _____    ______ ____
ROOT
ATOM      1  C   UNL     1      -7.257   3.368 121.704  0.00  0.00    +0.000 A 
ATOM      2  C   UNL     1      -8.611   3.058 121.647  0.00  0.00    +0.000 A 
ATOM      3  C   UNL     1      -9.194   2.343 122.697  0.00  0.00    +0.000 A 
ATOM      4  C   UNL     1      -8.441   1.981 123.825  0.00  0.00    +0.000 A 
ATOM      5  S   UNL     1      -9.238   1.050 125.126  0.00  0.00    +0.000 S 
ATOM      6  C   UNL     1      -7.824   0.109 125.690  0.00  0.00    +0.000 A 
ATOM      7  C   UNL     1      -6.521   0.648 125.627  0.00  0.00    +0.000 A 
ATOM      8  C   UNL     1      -5.445  -0.144 126.051  0.00  0.00    +0.000 A 
ATOM      9  C   UNL     1      -5.656  -1.437 126.527  0.00  0.00    +0.000 A 
ATOM     10  C   UNL     1      -6.948  -1.955 126.592  0.00  0.00    +0.000 A 
ATOM     11  C   UNL     1      -8.032  -1.184 126.176  0.00  0.00    +0.000 A 
ATOM     12  N   UNL     1      -6.277   1.891 124.993  0.00  0.00    +0.000 N 
ATOM     13  C   UNL     1      -7.075   2.308 123.907  0.00  0.00    +0.000 A 
ATOM     14  C   UNL     1      -6.498   2.934 122.790  0.00  0.00    +0.000 A 
ENDROOT
BRANCH   1  16
ATOM     15  C   UNL     1      -5.144   4.568 120.888  0.00  0.00    +0.000 C 
ATOM     16  C   UNL     1      -6.562   4.138 120.643  0.00  0.00    +0.000 C 
ATOM     17  O   UNL     1      -7.120   4.322 119.559  0.00  0.00    +0.000 OA
ENDBRANCH   1  16
BRANCH  12  18
ATOM     18  C   UNL     1      -5.475   2.856 125.813  0.00  0.00    +0.000 C 
BRANCH  18  19
ATOM     19  C   UNL     1      -6.329   3.908 126.489  0.00  0.00    +0.000 C 
BRANCH  19  20
ATOM     20  C   UNL     1      -7.117   3.538 127.731  0.00  0.00    +0.000 C 
BRANCH  20  21
ATOM     21  N   UNL     1      -7.226   4.747 128.580  0.00  0.00    +0.000 NA
ATOM     22  C   UNL     1      -8.592   4.922 129.119  0.00  0.00    +0.000 C 
ATOM     23  C   UNL     1      -8.926   4.041 130.354  0.00  0.00    +0.000 C 
ATOM     24  N   UNL     1      -7.921   4.123 131.442  0.00  0.00    +0.000 NA
ATOM     25  C   UNL     1      -6.604   3.809 130.847  0.00  0.00    +0.000 C 
ATOM     26  C   UNL     1      -6.255   4.784 129.704  0.00  0.00    +0.000 C 
BRANCH  24  27
ATOM     27  C   UNL     1      -7.926   5.474 132.046  0.00  0.00    +0.000 C 
BRANCH  27  28
ATOM     28  C   UNL     1      -8.560   5.519 133.443  0.00  0.00    +0.000 C 
BRANCH  28  29
ATOM     29  O   UNL     1      -9.716   6.349 133.431  0.00  0.00    +0.000 OA
ATOM     30  H   UNL     1     -10.452   5.813 133.776  0.00  0.00    +0.000 HD
ENDBRANCH  28  29
ENDBRANCH  27  28
ENDBRANCH  24  27
ENDBRANCH  20  21
ENDBRANCH  19  20
ENDBRANCH  18  19
ENDBRANCH  12  18
TORSDOF 8
ENDMDL
MODEL 8
REMARK VINA RESULT:      -6.8      4.100      6.304
REMARK  Name = Acetophenazine
REMARK  9 active torsions:
REMARK  status: ('A' for Active; 'I' for Inactive)
REMARK    1  A    between atoms: C_1  and  C_2
REMARK    2  A    between atoms: C_2  and  C_4
REMARK    3  A    between atoms: N_15  and  C_16
REMARK    4  A    between atoms: C_16  and  C_17
REMARK    5  A    between atoms: C_17  and  C_18
REMARK    6  A    between atoms: C_18  and  N_19
REMARK    7  A    between atoms: N_22  and  C_23
REMARK    8  A    between atoms: C_23  and  C_24
REMARK    9  A    between atoms: C_24  and  O_25
REMARK                            x       y       z     vdW  Elec       q    Type
REMARK                         _______ _______ _______ _____ _____    ______ ____
ROOT
ATOM      1  C   UNL     1      -7.263   3.214 121.986  0.00  0.00    +0.000 A 
ATOM      2  C   UNL     1      -8.641   3.049 122.058  0.00  0.00    +0.000 A 
ATOM      3  C   UNL     1      -9.192   2.367 123.147  0.00  0.00    +0.000 A 
ATOM      4  C   UNL     1      -8.376   1.894 124.187  0.00  0.00    +0.000 A 
ATOM      5  S   UNL     1      -9.136   1.012 125.542  0.00  0.00    +0.000 S 
ATOM      6  C   UNL     1      -7.783  -0.088 125.943  0.00  0.00    +0.000 A 
ATOM      7  C   UNL     1      -6.442   0.314 125.760  0.00  0.00    +0.000 A 
ATOM      8  C   UNL     1      -5.420  -0.597 126.059  0.00  0.00    +0.000 A 
ATOM      9  C   UNL     1      -5.721  -1.876 126.528  0.00  0.00    +0.000 A 
ATOM     10  C   UNL     1      -7.047  -2.259 126.711  0.00  0.00    +0.000 A 
ATOM     11  C   UNL     1      -8.078  -1.367 126.421  0.00  0.00    +0.000 A 
ATOM     12  N   UNL     1      -6.130   1.545 125.131  0.00  0.00    +0.000 N 
ATOM     13  C   UNL     1      -6.981   2.075 124.138  0.00  0.00    +0.000 A 
ATOM     14  C   UNL     1      -6.452   2.671 122.982  0.00  0.00    +0.000 A 
ENDROOT
BRANCH   1  16
ATOM     15  C   UNL     1      -5.202   4.455 121.098  0.00  0.00    +0.000 C 
ATOM     16  C   UNL     1      -6.597   3.941 120.877  0.00  0.00    +0.000 C 
ATOM     17  O   UNL     1      -7.153   4.020 119.780  0.00  0.00    +0.000 OA
ENDBRANCH   1  16
BRANCH  12  18
ATOM     18  C   UNL     1      -5.154   2.396 125.885  0.00  0.00    +0.000 C 
BRANCH  18  19
ATOM     19  C   UNL     1      -5.782   3.650 126.453  0.00  0.00    +0.000 C 
BRANCH  19  20
ATOM     20  C   UNL     1      -5.858   3.826 127.958  0.00  0.00    +0.000 C 
BRANCH  20  21
ATOM     21  N   UNL     1      -5.312   5.163 128.290  0.00  0.00    +0.000 NA
ATOM     22  C   UNL     1      -5.218   5.374 129.751  0.00  0.00    +0.000 C 
ATOM     23  C   UNL     1      -3.986   4.716 130.430  0.00  0.00    +0.000 C 
ATOM     24  N   UNL     1      -2.694   5.034 129.772  0.00  0.00    +0.000 NA
ATOM     25  C   UNL     1      -2.828   4.675 128.344  0.00  0.00    +0.000 C 
ATOM     26  C   UNL     1      -3.988   5.443 127.676  0.00  0.00    +0.000 C 
BRANCH  24  27
ATOM     27  C   UNL     1      -2.375   6.471 129.934  0.00  0.00    +0.000 C 
BRANCH  27  28
ATOM     28  C   UNL     1      -2.271   6.915 131.399  0.00  0.00    +0.000 C 
BRANCH  28  29
ATOM     29  O   UNL     1      -3.179   7.981 131.655  0.00  0.00    +0.000 OA
ATOM     30  H   UNL     1      -2.746   8.799 131.355  0.00  0.00    +0.000 HD
ENDBRANCH  28  29
ENDBRANCH  27  28
ENDBRANCH  24  27
ENDBRANCH  20  21
ENDBRANCH  19  20
ENDBRANCH  18  19
ENDBRANCH  12  18
TORSDOF 8
ENDMDL
MODEL 9
REMARK VINA RESULT:      -6.5      3.906      4.700
REMARK  Name = Acetophenazine
REMARK  9 active torsions:
REMARK  status: ('A' for Active; 'I' for Inactive)
REMARK    1  A    between atoms: C_1  and  C_2
REMARK    2  A    between atoms: C_2  and  C_4
REMARK    3  A    between atoms: N_15  and  C_16
REMARK    4  A    between atoms: C_16  and  C_17
REMARK    5  A    between atoms: C_17  and  C_18
REMARK    6  A    between atoms: C_18  and  N_19
REMARK    7  A    between atoms: N_22  and  C_23
REMARK    8  A    between atoms: C_23  and  C_24
REMARK    9  A    between atoms: C_24  and  O_25
REMARK                            x       y       z     vdW  Elec       q    Type
REMARK                         _______ _______ _______ _____ _____    ______ ____
ROOT
ATOM      1  C   UNL     1      -8.328  -2.895 126.510  0.00  0.00    +0.000 A 
ATOM      2  C   UNL     1      -9.012  -3.776 127.338  0.00  0.00    +0.000 A 
ATOM      3  C   UNL     1      -8.753  -3.765 128.712  0.00  0.00    +0.000 A 
ATOM      4  C   UNL     1      -7.849  -2.845 129.265  0.00  0.00    +0.000 A 
ATOM      5  S   UNL     1      -7.543  -2.894 131.024  0.00  0.00    +0.000 S 
ATOM      6  C   UNL     1      -5.839  -2.345 131.019  0.00  0.00    +0.000 A 
ATOM      7  C   UNL     1      -5.371  -1.441 130.041  0.00  0.00    +0.000 A 
ATOM      8  C   UNL     1      -4.020  -1.069 130.062  0.00  0.00    +0.000 A 
ATOM      9  C   UNL     1      -3.155  -1.579 131.029  0.00  0.00    +0.000 A 
ATOM     10  C   UNL     1      -3.631  -2.465 131.993  0.00  0.00    +0.000 A 
ATOM     11  C   UNL     1      -4.971  -2.847 131.991  0.00  0.00    +0.000 A 
ATOM     12  N   UNL     1      -6.196  -1.046 128.959  0.00  0.00    +0.000 N 
ATOM     13  C   UNL     1      -7.165  -1.931 128.440  0.00  0.00    +0.000 A 
ATOM     14  C   UNL     1      -7.372  -2.039 127.056  0.00  0.00    +0.000 A 
ENDROOT
BRANCH   1  16
ATOM     15  C   UNL     1      -7.416  -3.172 124.130  0.00  0.00    +0.000 C 
ATOM     16  C   UNL     1      -8.556  -2.826 125.045  0.00  0.00    +0.000 C 
ATOM     17  O   UNL     1      -9.686  -2.586 124.614  0.00  0.00    +0.000 OA
ENDBRANCH   1  16
BRANCH  12  18
ATOM     18  C   UNL     1      -6.271   0.435 128.745  0.00  0.00    +0.000 C 
BRANCH  18  19
ATOM     19  C   UNL     1      -6.982   1.158 129.869  0.00  0.00    +0.000 C 
BRANCH  19  20
ATOM     20  C   UNL     1      -6.829   2.662 129.997  0.00  0.00    +0.000 C 
BRANCH  20  21
ATOM     21  N   UNL     1      -7.812   3.137 130.999  0.00  0.00    +0.000 NA
ATOM     22  C   UNL     1      -7.287   4.268 131.794  0.00  0.00    +0.000 C 
ATOM     23  C   UNL     1      -7.356   5.651 131.090  0.00  0.00    +0.000 C 
ATOM     24  N   UNL     1      -8.693   5.977 130.535  0.00  0.00    +0.000 NA
ATOM     25  C   UNL     1      -9.088   4.859 129.653  0.00  0.00    +0.000 C 
ATOM     26  C   UNL     1      -9.125   3.521 130.421  0.00  0.00    +0.000 C 
BRANCH  24  27
ATOM     27  C   UNL     1      -9.672   6.166 131.630  0.00  0.00    +0.000 C 
BRANCH  27  28
ATOM     28  C   UNL     1     -11.054   6.624 131.146  0.00  0.00    +0.000 C 
BRANCH  28  29
ATOM     29  O   UNL     1     -12.071   6.085 131.983  0.00  0.00    +0.000 OA
ATOM     30  H   UNL     1     -12.736   5.683 131.396  0.00  0.00    +0.000 HD
ENDBRANCH  28  29
ENDBRANCH  27  28
ENDBRANCH  24  27
ENDBRANCH  20  21
ENDBRANCH  19  20
ENDBRANCH  18  19
ENDBRANCH  12  18
TORSDOF 8
ENDMDL
