MODEL 1
REMARK VINA RESULT:      -3.2      0.000      0.000
REMARK  Name = Acetic acid
REMARK  2 active torsions:
REMARK  status: ('A' for Active; 'I' for Inactive)
REMARK    1  A    between atoms: C_1  and  C_2
REMARK    2  A    between atoms: C_2  and  O_3
REMARK                            x       y       z     vdW  Elec       q    Type
REMARK                         _______ _______ _______ _____ _____    ______ ____
ROOT
ATOM      1  C   UNL     1      -5.952   4.194 120.282  0.00  0.00    +0.000 C 
ATOM      2  C   UNL     1      -5.335   5.452 119.748  0.00  0.00    +0.000 C 
ATOM      3  O   UNL     1      -4.637   6.192 120.427  0.00  0.00    +0.000 OA
ENDROOT
BRANCH   2   4
ATOM      4  O   UNL     1      -5.605   5.712 118.453  0.00  0.00    +0.000 OA
ATOM      5  H   UNL     1      -6.355   5.219 118.071  0.00  0.00    +0.000 HD
ENDBRANCH   2   4
TORSDOF 1
ENDMDL
MODEL 2
REMARK VINA RESULT:      -3.2      0.675      1.720
REMARK  Name = Acetic acid
REMARK  2 active torsions:
REMARK  status: ('A' for Active; 'I' for Inactive)
REMARK    1  A    between atoms: C_1  and  C_2
REMARK    2  A    between atoms: C_2  and  O_3
REMARK                            x       y       z     vdW  Elec       q    Type
REMARK                         _______ _______ _______ _____ _____    ______ ____
ROOT
ATOM      1  C   UNL     1      -5.293   4.068 120.881  0.00  0.00    +0.000 C 
ATOM      2  C   UNL     1      -5.056   5.376 120.187  0.00  0.00    +0.000 C 
ATOM      3  O   UNL     1      -5.525   5.642 119.089  0.00  0.00    +0.000 OA
ENDROOT
BRANCH   2   4
ATOM      4  O   UNL     1      -4.283   6.248 120.867  0.00  0.00    +0.000 OA
ATOM      5  H   UNL     1      -3.493   5.868 121.293  0.00  0.00    +0.000 HD
ENDBRANCH   2   4
TORSDOF 1
ENDMDL
MODEL 3
REMARK VINA RESULT:      -2.9      8.947      9.253
REMARK  Name = Acetic acid
REMARK  2 active torsions:
REMARK  status: ('A' for Active; 'I' for Inactive)
REMARK    1  A    between atoms: C_1  and  C_2
REMARK    2  A    between atoms: C_2  and  O_3
REMARK                            x       y       z     vdW  Elec       q    Type
REMARK                         _______ _______ _______ _____ _____    ______ ____
ROOT
ATOM      1  C   UNL     1     -10.801   8.326 127.680  0.00  0.00    +0.000 C 
ATOM      2  C   UNL     1     -10.693   7.076 126.859  0.00  0.00    +0.000 C 
ATOM      3  O   UNL     1      -9.684   6.386 126.827  0.00  0.00    +0.000 OA
ENDROOT
BRANCH   2   4
ATOM      4  O   UNL     1     -11.799   6.763 126.154  0.00  0.00    +0.000 OA
ATOM      5  H   UNL     1     -12.647   6.986 126.578  0.00  0.00    +0.000 HD
ENDBRANCH   2   4
TORSDOF 1
ENDMDL
MODEL 4
REMARK VINA RESULT:      -2.7     10.658     10.682
REMARK  Name = Acetic acid
REMARK  2 active torsions:
REMARK  status: ('A' for Active; 'I' for Inactive)
REMARK    1  A    between atoms: C_1  and  C_2
REMARK    2  A    between atoms: C_2  and  O_3
REMARK                            x       y       z     vdW  Elec       q    Type
REMARK                         _______ _______ _______ _____ _____    ______ ____
ROOT
ATOM      1  C   UNL     1      -7.949  -3.685 124.391  0.00  0.00    +0.000 C 
ATOM      2  C   UNL     1      -9.370  -3.216 124.488  0.00  0.00    +0.000 C 
ATOM      3  O   UNL     1      -9.818  -2.646 125.473  0.00  0.00    +0.000 OA
ENDROOT
BRANCH   2   4
ATOM      4  O   UNL     1     -10.126  -3.468 123.400  0.00  0.00    +0.000 OA
ATOM      5  H   UNL     1     -10.827  -2.817 123.214  0.00  0.00    +0.000 HD
ENDBRANCH   2   4
TORSDOF 1
ENDMDL
MODEL 5
REMARK VINA RESULT:      -2.6     10.120     10.402
REMARK  Name = Acetic acid
REMARK  2 active torsions:
REMARK  status: ('A' for Active; 'I' for Inactive)
REMARK    1  A    between atoms: C_1  and  C_2
REMARK    2  A    between atoms: C_2  and  O_3
REMARK                            x       y       z     vdW  Elec       q    Type
REMARK                         _______ _______ _______ _____ _____    ______ ____
ROOT
ATOM      1  C   UNL     1     -13.529   7.213 127.880  0.00  0.00    +0.000 C 
ATOM      2  C   UNL     1     -12.217   7.445 127.192  0.00  0.00    +0.000 C 
ATOM      3  O   UNL     1     -11.436   8.325 127.525  0.00  0.00    +0.000 OA
ENDROOT
BRANCH   2   4
ATOM      4  O   UNL     1     -11.956   6.604 126.170  0.00  0.00    +0.000 OA
ATOM      5  H   UNL     1     -12.224   5.677 126.306  0.00  0.00    +0.000 HD
ENDBRANCH   2   4
TORSDOF 1
ENDMDL
MODEL 6
REMARK VINA RESULT:      -2.6      9.962     10.262
REMARK  Name = Acetic acid
REMARK  2 active torsions:
REMARK  status: ('A' for Active; 'I' for Inactive)
REMARK    1  A    between atoms: C_1  and  C_2
REMARK    2  A    between atoms: C_2  and  O_3
REMARK                            x       y       z     vdW  Elec       q    Type
REMARK                         _______ _______ _______ _____ _____    ______ ____
ROOT
ATOM      1  C   UNL     1     -11.034   8.398 127.779  0.00  0.00    +0.000 C 
ATOM      2  C   UNL     1     -11.729   7.107 127.464  0.00  0.00    +0.000 C 
ATOM      3  O   UNL     1     -12.296   6.431 128.312  0.00  0.00    +0.000 OA
ENDROOT
BRANCH   2   4
ATOM      4  O   UNL     1     -11.686   6.740 126.167  0.00  0.00    +0.000 OA
ATOM      5  H   UNL     1     -10.824   6.412 125.850  0.00  0.00    +0.000 HD
ENDBRANCH   2   4
TORSDOF 1
ENDMDL
MODEL 7
REMARK VINA RESULT:      -2.6     18.492     18.990
REMARK  Name = Acetic acid
REMARK  2 active torsions:
REMARK  status: ('A' for Active; 'I' for Inactive)
REMARK    1  A    between atoms: C_1  and  C_2
REMARK    2  A    between atoms: C_2  and  O_3
REMARK                            x       y       z     vdW  Elec       q    Type
REMARK                         _______ _______ _______ _____ _____    ______ ____
ROOT
ATOM      1  C   UNL     1      -9.647   9.473 138.636  0.00  0.00    +0.000 C 
ATOM      2  C   UNL     1     -10.560   8.941 137.572  0.00  0.00    +0.000 C 
ATOM      3  O   UNL     1     -11.759   8.772 137.745  0.00  0.00    +0.000 OA
ENDROOT
BRANCH   2   4
ATOM      4  O   UNL     1      -9.959   8.661 136.397  0.00  0.00    +0.000 OA
ATOM      5  H   UNL     1      -9.966   7.723 136.132  0.00  0.00    +0.000 HD
ENDBRANCH   2   4
TORSDOF 1
ENDMDL
MODEL 8
REMARK VINA RESULT:      -2.5     10.169     10.544
REMARK  Name = Acetic acid
REMARK  2 active torsions:
REMARK  status: ('A' for Active; 'I' for Inactive)
REMARK    1  A    between atoms: C_1  and  C_2
REMARK    2  A    between atoms: C_2  and  O_3
REMARK                            x       y       z     vdW  Elec       q    Type
REMARK                         _______ _______ _______ _____ _____    ______ ____
ROOT
ATOM      1  C   UNL     1     -11.574   7.383 126.906  0.00  0.00    +0.000 C 
ATOM      2  C   UNL     1     -11.145   8.387 127.934  0.00  0.00    +0.000 C 
ATOM      3  O   UNL     1      -9.999   8.463 128.354  0.00  0.00    +0.000 OA
ENDROOT
BRANCH   2   4
ATOM      4  O   UNL     1     -12.122   9.211 128.366  0.00  0.00    +0.000 OA
ATOM      5  H   UNL     1     -12.083   9.454 129.309  0.00  0.00    +0.000 HD
ENDBRANCH   2   4
TORSDOF 1
ENDMDL
MODEL 9
REMARK VINA RESULT:      -2.4     10.243     10.606
REMARK  Name = Acetic acid
REMARK  2 active torsions:
REMARK  status: ('A' for Active; 'I' for Inactive)
REMARK    1  A    between atoms: C_1  and  C_2
REMARK    2  A    between atoms: C_2  and  O_3
REMARK                            x       y       z     vdW  Elec       q    Type
REMARK                         _______ _______ _______ _____ _____    ______ ____
ROOT
ATOM      1  C   UNL     1      -5.726  -4.124 124.154  0.00  0.00    +0.000 C 
ATOM      2  C   UNL     1      -4.411  -4.361 123.472  0.00  0.00    +0.000 C 
ATOM      3  O   UNL     1      -3.584  -3.477 123.293  0.00  0.00    +0.000 OA
ENDROOT
BRANCH   2   4
ATOM      4  O   UNL     1      -4.203  -5.630 123.067  0.00  0.00    +0.000 OA
ATOM      5  H   UNL     1      -3.549  -6.136 123.583  0.00  0.00    +0.000 HD
ENDBRANCH   2   4
TORSDOF 1
ENDMDL
