MODEL 1
REMARK VINA RESULT:      -8.3      0.000      0.000
REMARK  Name = Acetohexamide
REMARK  5 active torsions:
REMARK  status: ('A' for Active; 'I' for Inactive)
REMARK    1  A    between atoms: C_1  and  C_2
REMARK    2  A    between atoms: C_2  and  C_4
REMARK    3  A    between atoms: C_7  and  S_10
REMARK    4  A    between atoms: S_10  and  N_13
REMARK    5  A    between atoms: N_16  and  C_17
REMARK                            x       y       z     vdW  Elec       q    Type
REMARK                         _______ _______ _______ _____ _____    ______ ____
ROOT
ATOM      1  S   UNL     1      -9.199   1.677 123.281  0.00  0.00    +0.000 S 
ATOM      2  O   UNL     1      -9.815   2.509 124.293  0.00  0.00    +0.000 OA
ATOM      3  O   UNL     1      -9.967   0.997 122.258  0.00  0.00    +0.000 OA
ENDROOT
BRANCH   1   7
ATOM      4  C   UNL     1      -6.483   4.332 120.664  0.00  0.00    +0.000 A 
ATOM      5  C   UNL     1      -7.814   4.092 120.312  0.00  0.00    +0.000 A 
ATOM      6  C   UNL     1      -8.644   3.352 121.170  0.00  0.00    +0.000 A 
ATOM      7  C   UNL     1      -8.127   2.788 122.354  0.00  0.00    +0.000 A 
ATOM      8  C   UNL     1      -6.803   3.042 122.710  0.00  0.00    +0.000 A 
ATOM      9  C   UNL     1      -5.984   3.815 121.866  0.00  0.00    +0.000 A 
BRANCH   4  11
ATOM     10  C   UNL     1      -6.020   5.314 118.326  0.00  0.00    +0.000 C 
ATOM     11  C   UNL     1      -5.658   5.205 119.784  0.00  0.00    +0.000 C 
ATOM     12  O   UNL     1      -4.723   5.837 120.270  0.00  0.00    +0.000 OA
ENDBRANCH   4  11
ENDBRANCH   1   7
BRANCH   1  13
ATOM     13  N   UNL     1      -8.245   0.515 124.070  0.00  0.00    +0.000 N 
ATOM     14  C   UNL     1      -8.758  -0.117 125.212  0.00  0.00    +0.000 C 
ATOM     15  O   UNL     1      -9.902   0.106 125.589  0.00  0.00    +0.000 OA
ATOM     16  N   UNL     1      -7.925  -0.991 125.885  0.00  0.00    +0.000 N 
ATOM     17  H   UNL     1      -7.333   0.293 123.713  0.00  0.00    +0.000 HD
ATOM     18  H   UNL     1      -7.036  -1.247 125.482  0.00  0.00    +0.000 HD
BRANCH  16  19
ATOM     19  C   UNL     1      -8.368  -1.755 127.078  0.00  0.00    +0.000 C 
ATOM     20  C   UNL     1      -8.474  -3.273 126.822  0.00  0.00    +0.000 C 
ATOM     21  C   UNL     1      -8.804  -4.089 128.068  0.00  0.00    +0.000 C 
ATOM     22  C   UNL     1      -7.838  -3.780 129.207  0.00  0.00    +0.000 C 
ATOM     23  C   UNL     1      -7.847  -2.290 129.525  0.00  0.00    +0.000 C 
ATOM     24  C   UNL     1      -7.483  -1.451 128.299  0.00  0.00    +0.000 C 
ENDBRANCH  16  19
ENDBRANCH   1  13
TORSDOF 4
ENDMDL
MODEL 2
REMARK VINA RESULT:      -7.8      9.819     10.963
REMARK  Name = Acetohexamide
REMARK  5 active torsions:
REMARK  status: ('A' for Active; 'I' for Inactive)
REMARK    1  A    between atoms: C_1  and  C_2
REMARK    2  A    between atoms: C_2  and  C_4
REMARK    3  A    between atoms: C_7  and  S_10
REMARK    4  A    between atoms: S_10  and  N_13
REMARK    5  A    between atoms: N_16  and  C_17
REMARK                            x       y       z     vdW  Elec       q    Type
REMARK                         _______ _______ _______ _____ _____    ______ ____
ROOT
ATOM      1  S   UNL     1      -8.792   5.871 132.006  0.00  0.00    +0.000 S 
ATOM      2  O   UNL     1      -9.011   6.334 133.359  0.00  0.00    +0.000 OA
ATOM      3  O   UNL     1      -8.810   4.467 131.650  0.00  0.00    +0.000 OA
ENDROOT
BRANCH   1   7
ATOM      4  C   UNL     1     -12.103   7.965 129.572  0.00  0.00    +0.000 A 
ATOM      5  C   UNL     1     -10.780   7.945 129.123  0.00  0.00    +0.000 A 
ATOM      6  C   UNL     1      -9.808   7.227 129.838  0.00  0.00    +0.000 A 
ATOM      7  C   UNL     1     -10.140   6.581 131.047  0.00  0.00    +0.000 A 
ATOM      8  C   UNL     1     -11.463   6.590 131.483  0.00  0.00    +0.000 A 
ATOM      9  C   UNL     1     -12.443   7.280 130.745  0.00  0.00    +0.000 A 
BRANCH   4  11
ATOM     10  C   UNL     1     -13.887   7.842 127.715  0.00  0.00    +0.000 C 
ATOM     11  C   UNL     1     -13.130   8.648 128.738  0.00  0.00    +0.000 C 
ATOM     12  O   UNL     1     -13.356   9.842 128.921  0.00  0.00    +0.000 OA
ENDBRANCH   4  11
ENDBRANCH   1   7
BRANCH   1  13
ATOM     13  N   UNL     1      -7.321   6.521 131.462  0.00  0.00    +0.000 N 
ATOM     14  C   UNL     1      -6.145   6.210 132.161  0.00  0.00    +0.000 C 
ATOM     15  O   UNL     1      -6.166   5.421 133.098  0.00  0.00    +0.000 OA
ATOM     16  N   UNL     1      -4.978   6.826 131.751  0.00  0.00    +0.000 N 
ATOM     17  H   UNL     1      -7.307   7.115 130.652  0.00  0.00    +0.000 HD
ATOM     18  H   UNL     1      -4.970   7.372 130.902  0.00  0.00    +0.000 HD
BRANCH  16  19
ATOM     19  C   UNL     1      -3.664   6.542 132.381  0.00  0.00    +0.000 C 
ATOM     20  C   UNL     1      -2.965   5.297 131.794  0.00  0.00    +0.000 C 
ATOM     21  C   UNL     1      -1.560   5.063 132.338  0.00  0.00    +0.000 C 
ATOM     22  C   UNL     1      -0.693   6.309 132.194  0.00  0.00    +0.000 C 
ATOM     23  C   UNL     1      -1.345   7.497 132.891  0.00  0.00    +0.000 C 
ATOM     24  C   UNL     1      -2.744   7.774 132.338  0.00  0.00    +0.000 C 
ENDBRANCH  16  19
ENDBRANCH   1  13
TORSDOF 4
ENDMDL
MODEL 3
REMARK VINA RESULT:      -7.5      9.380     10.746
REMARK  Name = Acetohexamide
REMARK  5 active torsions:
REMARK  status: ('A' for Active; 'I' for Inactive)
REMARK    1  A    between atoms: C_1  and  C_2
REMARK    2  A    between atoms: C_2  and  C_4
REMARK    3  A    between atoms: C_7  and  S_10
REMARK    4  A    between atoms: S_10  and  N_13
REMARK    5  A    between atoms: N_16  and  C_17
REMARK                            x       y       z     vdW  Elec       q    Type
REMARK                         _______ _______ _______ _____ _____    ______ ____
ROOT
ATOM      1  S   UNL     1     -10.023   4.791 130.752  0.00  0.00    +0.000 S 
ATOM      2  O   UNL     1     -10.105   4.668 132.192  0.00  0.00    +0.000 OA
ATOM      3  O   UNL     1     -10.631   3.833 129.852  0.00  0.00    +0.000 OA
ENDROOT
BRANCH   1   7
ATOM      4  C   UNL     1     -12.424   8.594 129.730  0.00  0.00    +0.000 A 
ATOM      5  C   UNL     1     -12.762   7.801 130.829  0.00  0.00    +0.000 A 
ATOM      6  C   UNL     1     -11.963   6.697 131.170  0.00  0.00    +0.000 A 
ATOM      7  C   UNL     1     -10.859   6.339 130.369  0.00  0.00    +0.000 A 
ATOM      8  C   UNL     1     -10.515   7.142 129.283  0.00  0.00    +0.000 A 
ATOM      9  C   UNL     1     -11.297   8.269 128.965  0.00  0.00    +0.000 A 
BRANCH   4  11
ATOM     10  C   UNL     1     -13.317  10.880 130.518  0.00  0.00    +0.000 C 
ATOM     11  C   UNL     1     -13.231   9.815 129.456  0.00  0.00    +0.000 C 
ATOM     12  O   UNL     1     -13.780   9.940 128.364  0.00  0.00    +0.000 OA
ENDBRANCH   4  11
ENDBRANCH   1   7
BRANCH   1  13
ATOM     13  N   UNL     1      -8.384   4.927 130.331  0.00  0.00    +0.000 N 
ATOM     14  C   UNL     1      -7.586   5.855 131.016  0.00  0.00    +0.000 C 
ATOM     15  O   UNL     1      -8.041   6.498 131.954  0.00  0.00    +0.000 OA
ATOM     16  N   UNL     1      -6.280   6.008 130.592  0.00  0.00    +0.000 N 
ATOM     17  H   UNL     1      -8.006   4.347 129.604  0.00  0.00    +0.000 HD
ATOM     18  H   UNL     1      -5.900   5.378 129.901  0.00  0.00    +0.000 HD
BRANCH  16  19
ATOM     19  C   UNL     1      -5.325   6.924 131.266  0.00  0.00    +0.000 C 
ATOM     20  C   UNL     1      -4.520   6.239 132.391  0.00  0.00    +0.000 C 
ATOM     21  C   UNL     1      -3.445   7.128 133.010  0.00  0.00    +0.000 C 
ATOM     22  C   UNL     1      -2.527   7.714 131.943  0.00  0.00    +0.000 C 
ATOM     23  C   UNL     1      -3.335   8.492 130.912  0.00  0.00    +0.000 C 
ATOM     24  C   UNL     1      -4.397   7.613 130.251  0.00  0.00    +0.000 C 
ENDBRANCH  16  19
ENDBRANCH   1  13
TORSDOF 4
ENDMDL
MODEL 4
REMARK VINA RESULT:      -7.4      9.859     11.124
REMARK  Name = Acetohexamide
REMARK  5 active torsions:
REMARK  status: ('A' for Active; 'I' for Inactive)
REMARK    1  A    between atoms: C_1  and  C_2
REMARK    2  A    between atoms: C_2  and  C_4
REMARK    3  A    between atoms: C_7  and  S_10
REMARK    4  A    between atoms: S_10  and  N_13
REMARK    5  A    between atoms: N_16  and  C_17
REMARK                            x       y       z     vdW  Elec       q    Type
REMARK                         _______ _______ _______ _____ _____    ______ ____
ROOT
ATOM      1  S   UNL     1     -10.149   4.982 130.711  0.00  0.00    +0.000 S 
ATOM      2  O   UNL     1     -10.885   3.845 130.200  0.00  0.00    +0.000 OA
ATOM      3  O   UNL     1      -8.854   5.371 130.191  0.00  0.00    +0.000 OA
ENDROOT
BRANCH   1   7
ATOM      4  C   UNL     1     -12.585   8.805 129.859  0.00  0.00    +0.000 A 
ATOM      5  C   UNL     1     -11.575   8.383 128.990  0.00  0.00    +0.000 A 
ATOM      6  C   UNL     1     -10.908   7.171 129.226  0.00  0.00    +0.000 A 
ATOM      7  C   UNL     1     -11.199   6.406 130.374  0.00  0.00    +0.000 A 
ATOM      8  C   UNL     1     -12.218   6.820 131.230  0.00  0.00    +0.000 A 
ATOM      9  C   UNL     1     -12.910   8.019 130.971  0.00  0.00    +0.000 A 
BRANCH   4  11
ATOM     10  C   UNL     1     -13.427  11.141 130.553  0.00  0.00    +0.000 C 
ATOM     11  C   UNL     1     -13.343  10.042 129.525  0.00  0.00    +0.000 C 
ATOM     12  O   UNL     1     -13.857  10.152 128.415  0.00  0.00    +0.000 OA
ENDBRANCH   4  11
ENDBRANCH   1   7
BRANCH   1  13
ATOM     13  N   UNL     1      -9.994   4.793 132.391  0.00  0.00    +0.000 N 
ATOM     14  C   UNL     1      -8.904   5.391 133.040  0.00  0.00    +0.000 C 
ATOM     15  O   UNL     1      -8.123   6.103 132.421  0.00  0.00    +0.000 OA
ATOM     16  N   UNL     1      -8.754   5.145 134.392  0.00  0.00    +0.000 N 
ATOM     17  H   UNL     1     -10.679   4.261 132.899  0.00  0.00    +0.000 HD
ATOM     18  H   UNL     1      -9.480   4.659 134.897  0.00  0.00    +0.000 HD
BRANCH  16  19
ATOM     19  C   UNL     1      -7.668   5.759 135.197  0.00  0.00    +0.000 C 
ATOM     20  C   UNL     1      -8.155   6.304 136.556  0.00  0.00    +0.000 C 
ATOM     21  C   UNL     1      -7.034   6.823 137.452  0.00  0.00    +0.000 C 
ATOM     22  C   UNL     1      -5.936   5.780 137.630  0.00  0.00    +0.000 C 
ATOM     23  C   UNL     1      -5.384   5.350 136.276  0.00  0.00    +0.000 C 
ATOM     24  C   UNL     1      -6.484   4.792 135.372  0.00  0.00    +0.000 C 
ENDBRANCH  16  19
ENDBRANCH   1  13
TORSDOF 4
ENDMDL
MODEL 5
REMARK VINA RESULT:      -7.4      1.763      2.269
REMARK  Name = Acetohexamide
REMARK  5 active torsions:
REMARK  status: ('A' for Active; 'I' for Inactive)
REMARK    1  A    between atoms: C_1  and  C_2
REMARK    2  A    between atoms: C_2  and  C_4
REMARK    3  A    between atoms: C_7  and  S_10
REMARK    4  A    between atoms: S_10  and  N_13
REMARK    5  A    between atoms: N_16  and  C_17
REMARK                            x       y       z     vdW  Elec       q    Type
REMARK                         _______ _______ _______ _____ _____    ______ ____
ROOT
ATOM      1  S   UNL     1      -8.072   2.318 125.133  0.00  0.00    +0.000 S 
ATOM      2  O   UNL     1      -7.418   3.297 125.973  0.00  0.00    +0.000 OA
ATOM      3  O   UNL     1      -9.507   2.114 125.145  0.00  0.00    +0.000 OA
ENDROOT
BRANCH   1   7
ATOM      4  C   UNL     1      -7.086   3.933 120.927  0.00  0.00    +0.000 A 
ATOM      5  C   UNL     1      -6.102   3.840 121.914  0.00  0.00    +0.000 A 
ATOM      6  C   UNL     1      -6.407   3.264 123.158  0.00  0.00    +0.000 A 
ATOM      7  C   UNL     1      -7.721   2.841 123.446  0.00  0.00    +0.000 A 
ATOM      8  C   UNL     1      -8.697   2.921 122.454  0.00  0.00    +0.000 A 
ATOM      9  C   UNL     1      -8.378   3.465 121.196  0.00  0.00    +0.000 A 
BRANCH   4  11
ATOM     10  C   UNL     1      -5.437   5.256 119.452  0.00  0.00    +0.000 C 
ATOM     11  C   UNL     1      -6.705   4.454 119.585  0.00  0.00    +0.000 C 
ATOM     12  O   UNL     1      -7.414   4.194 118.616  0.00  0.00    +0.000 OA
ENDBRANCH   4  11
ENDBRANCH   1   7
BRANCH   1  13
ATOM     13  N   UNL     1      -7.336   0.813 125.412  0.00  0.00    +0.000 N 
ATOM     14  C   UNL     1      -7.339   0.291 126.713  0.00  0.00    +0.000 C 
ATOM     15  O   UNL     1      -7.931   0.869 127.617  0.00  0.00    +0.000 OA
ATOM     16  N   UNL     1      -6.654  -0.890 126.927  0.00  0.00    +0.000 N 
ATOM     17  H   UNL     1      -6.910   0.317 124.649  0.00  0.00    +0.000 HD
ATOM     18  H   UNL     1      -6.283  -1.405 126.142  0.00  0.00    +0.000 HD
BRANCH  16  19
ATOM     19  C   UNL     1      -6.624  -1.565 128.249  0.00  0.00    +0.000 C 
ATOM     20  C   UNL     1      -7.845  -2.479 128.492  0.00  0.00    +0.000 C 
ATOM     21  C   UNL     1      -7.770  -3.279 129.789  0.00  0.00    +0.000 C 
ATOM     22  C   UNL     1      -6.462  -4.056 129.888  0.00  0.00    +0.000 C 
ATOM     23  C   UNL     1      -5.271  -3.114 129.771  0.00  0.00    +0.000 C 
ATOM     24  C   UNL     1      -5.304  -2.325 128.462  0.00  0.00    +0.000 C 
ENDBRANCH  16  19
ENDBRANCH   1  13
TORSDOF 4
ENDMDL
MODEL 6
REMARK VINA RESULT:      -7.1      8.851     10.093
REMARK  Name = Acetohexamide
REMARK  5 active torsions:
REMARK  status: ('A' for Active; 'I' for Inactive)
REMARK    1  A    between atoms: C_1  and  C_2
REMARK    2  A    between atoms: C_2  and  C_4
REMARK    3  A    between atoms: C_7  and  S_10
REMARK    4  A    between atoms: S_10  and  N_13
REMARK    5  A    between atoms: N_16  and  C_17
REMARK                            x       y       z     vdW  Elec       q    Type
REMARK                         _______ _______ _______ _____ _____    ______ ____
ROOT
ATOM      1  S   UNL     1      -9.606   5.168 130.158  0.00  0.00    +0.000 S 
ATOM      2  O   UNL     1     -10.275   4.215 131.017  0.00  0.00    +0.000 OA
ATOM      3  O   UNL     1      -9.181   4.841 128.812  0.00  0.00    +0.000 OA
ENDROOT
BRANCH   1   7
ATOM      4  C   UNL     1     -12.418   8.782 129.598  0.00  0.00    +0.000 A 
ATOM      5  C   UNL     1     -11.365   8.542 128.712  0.00  0.00    +0.000 A 
ATOM      6  C   UNL     1     -10.577   7.388 128.853  0.00  0.00    +0.000 A 
ATOM      7  C   UNL     1     -10.795   6.501 129.928  0.00  0.00    +0.000 A 
ATOM      8  C   UNL     1     -11.856   6.735 130.801  0.00  0.00    +0.000 A 
ATOM      9  C   UNL     1     -12.666   7.874 130.634  0.00  0.00    +0.000 A 
BRANCH   4  11
ATOM     10  C   UNL     1     -13.408  11.011 130.433  0.00  0.00    +0.000 C 
ATOM     11  C   UNL     1     -13.297   9.959 129.360  0.00  0.00    +0.000 C 
ATOM     12  O   UNL     1     -13.887  10.062 128.287  0.00  0.00    +0.000 OA
ENDBRANCH   4  11
ENDBRANCH   1   7
BRANCH   1  13
ATOM     13  N   UNL     1      -8.256   5.768 130.994  0.00  0.00    +0.000 N 
ATOM     14  C   UNL     1      -7.052   5.049 130.937  0.00  0.00    +0.000 C 
ATOM     15  O   UNL     1      -6.954   4.052 130.233  0.00  0.00    +0.000 OA
ATOM     16  N   UNL     1      -5.997   5.513 131.699  0.00  0.00    +0.000 N 
ATOM     17  H   UNL     1      -8.331   6.623 131.516  0.00  0.00    +0.000 HD
ATOM     18  H   UNL     1      -6.070   6.403 132.170  0.00  0.00    +0.000 HD
BRANCH  16  19
ATOM     19  C   UNL     1      -4.660   4.866 131.686  0.00  0.00    +0.000 C 
ATOM     20  C   UNL     1      -3.521   5.836 131.308  0.00  0.00    +0.000 C 
ATOM     21  C   UNL     1      -2.128   5.223 131.413  0.00  0.00    +0.000 C 
ATOM     22  C   UNL     1      -1.897   4.597 132.783  0.00  0.00    +0.000 C 
ATOM     23  C   UNL     1      -2.965   3.551 133.079  0.00  0.00    +0.000 C 
ATOM     24  C   UNL     1      -4.370   4.150 133.016  0.00  0.00    +0.000 C 
ENDBRANCH  16  19
ENDBRANCH   1  13
TORSDOF 4
ENDMDL
MODEL 7
REMARK VINA RESULT:      -7.1      5.030      7.685
REMARK  Name = Acetohexamide
REMARK  5 active torsions:
REMARK  status: ('A' for Active; 'I' for Inactive)
REMARK    1  A    between atoms: C_1  and  C_2
REMARK    2  A    between atoms: C_2  and  C_4
REMARK    3  A    between atoms: C_7  and  S_10
REMARK    4  A    between atoms: S_10  and  N_13
REMARK    5  A    between atoms: N_16  and  C_17
REMARK                            x       y       z     vdW  Elec       q    Type
REMARK                         _______ _______ _______ _____ _____    ______ ____
ROOT
ATOM      1  S   UNL     1      -7.488   3.048 124.963  0.00  0.00    +0.000 S 
ATOM      2  O   UNL     1      -6.565   3.425 123.914  0.00  0.00    +0.000 OA
ATOM      3  O   UNL     1      -8.751   3.726 125.172  0.00  0.00    +0.000 OA
ENDROOT
BRANCH   1   7
ATOM      4  C   UNL     1      -8.573  -1.378 124.249  0.00  0.00    +0.000 A 
ATOM      5  C   UNL     1      -9.076  -0.679 125.350  0.00  0.00    +0.000 A 
ATOM      6  C   UNL     1      -8.801   0.690 125.497  0.00  0.00    +0.000 A 
ATOM      7  C   UNL     1      -7.961   1.354 124.580  0.00  0.00    +0.000 A 
ATOM      8  C   UNL     1      -7.474   0.658 123.474  0.00  0.00    +0.000 A 
ATOM      9  C   UNL     1      -7.782  -0.706 123.310  0.00  0.00    +0.000 A 
BRANCH   4  11
ATOM     10  C   UNL     1      -8.193  -3.867 124.798  0.00  0.00    +0.000 C 
ATOM     11  C   UNL     1      -8.967  -2.802 124.067  0.00  0.00    +0.000 C 
ATOM     12  O   UNL     1      -9.928  -3.073 123.351  0.00  0.00    +0.000 OA
ENDBRANCH   4  11
ENDBRANCH   1   7
BRANCH   1  13
ATOM     13  N   UNL     1      -6.642   3.068 126.435  0.00  0.00    +0.000 N 
ATOM     14  C   UNL     1      -5.937   4.227 126.793  0.00  0.00    +0.000 C 
ATOM     15  O   UNL     1      -5.996   5.233 126.098  0.00  0.00    +0.000 OA
ATOM     16  N   UNL     1      -5.185   4.183 127.952  0.00  0.00    +0.000 N 
ATOM     17  H   UNL     1      -6.655   2.258 127.030  0.00  0.00    +0.000 HD
ATOM     18  H   UNL     1      -5.256   3.385 128.566  0.00  0.00    +0.000 HD
BRANCH  16  19
ATOM     19  C   UNL     1      -4.435   5.359 128.460  0.00  0.00    +0.000 C 
ATOM     20  C   UNL     1      -4.588   5.565 129.982  0.00  0.00    +0.000 C 
ATOM     21  C   UNL     1      -3.723   6.690 130.543  0.00  0.00    +0.000 C 
ATOM     22  C   UNL     1      -2.261   6.519 130.147  0.00  0.00    +0.000 C 
ATOM     23  C   UNL     1      -2.124   6.444 128.631  0.00  0.00    +0.000 C 
ATOM     24  C   UNL     1      -2.954   5.299 128.048  0.00  0.00    +0.000 C 
ENDBRANCH  16  19
ENDBRANCH   1  13
TORSDOF 4
ENDMDL
MODEL 8
REMARK VINA RESULT:      -7.0      8.110      9.700
REMARK  Name = Acetohexamide
REMARK  5 active torsions:
REMARK  status: ('A' for Active; 'I' for Inactive)
REMARK    1  A    between atoms: C_1  and  C_2
REMARK    2  A    between atoms: C_2  and  C_4
REMARK    3  A    between atoms: C_7  and  S_10
REMARK    4  A    between atoms: S_10  and  N_13
REMARK    5  A    between atoms: N_16  and  C_17
REMARK                            x       y       z     vdW  Elec       q    Type
REMARK                         _______ _______ _______ _____ _____    ______ ____
ROOT
ATOM      1  S   UNL     1      -8.916   5.471 131.706  0.00  0.00    +0.000 S 
ATOM      2  O   UNL     1      -7.912   6.445 132.075  0.00  0.00    +0.000 OA
ATOM      3  O   UNL     1      -9.612   4.659 132.684  0.00  0.00    +0.000 OA
ENDROOT
BRANCH   1   7
ATOM      4  C   UNL     1     -12.097   8.169 129.738  0.00  0.00    +0.000 A 
ATOM      5  C   UNL     1     -10.811   8.061 129.203  0.00  0.00    +0.000 A 
ATOM      6  C   UNL     1      -9.888   7.167 129.770  0.00  0.00    +0.000 A 
ATOM      7  C   UNL     1     -10.225   6.425 130.920  0.00  0.00    +0.000 A 
ATOM      8  C   UNL     1     -11.514   6.523 131.442  0.00  0.00    +0.000 A 
ATOM      9  C   UNL     1     -12.448   7.393 130.849  0.00  0.00    +0.000 A 
BRANCH   4  11
ATOM     10  C   UNL     1     -13.333  10.427 129.606  0.00  0.00    +0.000 C 
ATOM     11  C   UNL     1     -13.084   9.048 129.052  0.00  0.00    +0.000 C 
ATOM     12  O   UNL     1     -13.647   8.644 128.038  0.00  0.00    +0.000 OA
ENDBRANCH   4  11
ENDBRANCH   1   7
BRANCH   1  13
ATOM     13  N   UNL     1      -8.230   4.422 130.560  0.00  0.00    +0.000 N 
ATOM     14  C   UNL     1      -7.075   4.831 129.877  0.00  0.00    +0.000 C 
ATOM     15  O   UNL     1      -6.524   5.888 130.158  0.00  0.00    +0.000 OA
ATOM     16  N   UNL     1      -6.592   3.997 128.887  0.00  0.00    +0.000 N 
ATOM     17  H   UNL     1      -8.653   3.528 130.384  0.00  0.00    +0.000 HD
ATOM     18  H   UNL     1      -6.993   3.079 128.763  0.00  0.00    +0.000 HD
BRANCH  16  19
ATOM     19  C   UNL     1      -5.352   4.297 128.127  0.00  0.00    +0.000 C 
ATOM     20  C   UNL     1      -4.066   3.890 128.878  0.00  0.00    +0.000 C 
ATOM     21  C   UNL     1      -2.790   4.073 128.063  0.00  0.00    +0.000 C 
ATOM     22  C   UNL     1      -2.890   3.378 126.710  0.00  0.00    +0.000 C 
ATOM     23  C   UNL     1      -4.097   3.889 125.935  0.00  0.00    +0.000 C 
ATOM     24  C   UNL     1      -5.395   3.684 126.717  0.00  0.00    +0.000 C 
ENDBRANCH  16  19
ENDBRANCH   1  13
TORSDOF 4
ENDMDL
MODEL 9
REMARK VINA RESULT:      -7.0      4.574      5.693
REMARK  Name = Acetohexamide
REMARK  5 active torsions:
REMARK  status: ('A' for Active; 'I' for Inactive)
REMARK    1  A    between atoms: C_1  and  C_2
REMARK    2  A    between atoms: C_2  and  C_4
REMARK    3  A    between atoms: C_7  and  S_10
REMARK    4  A    between atoms: S_10  and  N_13
REMARK    5  A    between atoms: N_16  and  C_17
REMARK                            x       y       z     vdW  Elec       q    Type
REMARK                         _______ _______ _______ _____ _____    ______ ____
ROOT
ATOM      1  S   UNL     1      -7.799   2.325 125.080  0.00  0.00    +0.000 S 
ATOM      2  O   UNL     1      -9.234   2.147 125.101  0.00  0.00    +0.000 OA
ATOM      3  O   UNL     1      -6.873   1.213 125.159  0.00  0.00    +0.000 OA
ENDROOT
BRANCH   1   7
ATOM      4  C   UNL     1      -6.958   3.968 120.853  0.00  0.00    +0.000 A 
ATOM      5  C   UNL     1      -8.220   3.479 121.200  0.00  0.00    +0.000 A 
ATOM      6  C   UNL     1      -8.475   3.065 122.518  0.00  0.00    +0.000 A 
ATOM      7  C   UNL     1      -7.445   3.073 123.481  0.00  0.00    +0.000 A 
ATOM      8  C   UNL     1      -6.191   3.576 123.136  0.00  0.00    +0.000 A 
ATOM      9  C   UNL     1      -5.951   4.024 121.823  0.00  0.00    +0.000 A 
BRANCH   4  11
ATOM     10  C   UNL     1      -5.533   5.335 119.197  0.00  0.00    +0.000 C 
ATOM     11  C   UNL     1      -6.751   4.494 119.475  0.00  0.00    +0.000 C 
ATOM     12  O   UNL     1      -7.557   4.207 118.594  0.00  0.00    +0.000 OA
ENDBRANCH   4  11
ENDBRANCH   1   7
BRANCH   1  13
ATOM     13  N   UNL     1      -7.390   3.424 126.308  0.00  0.00    +0.000 N 
ATOM     14  C   UNL     1      -6.050   3.516 126.713  0.00  0.00    +0.000 C 
ATOM     15  O   UNL     1      -5.179   2.875 126.139  0.00  0.00    +0.000 OA
ATOM     16  N   UNL     1      -5.762   4.352 127.776  0.00  0.00    +0.000 N 
ATOM     17  H   UNL     1      -8.104   3.993 126.728  0.00  0.00    +0.000 HD
ATOM     18  H   UNL     1      -6.478   4.958 128.146  0.00  0.00    +0.000 HD
BRANCH  16  19
ATOM     19  C   UNL     1      -4.377   4.569 128.265  0.00  0.00    +0.000 C 
ATOM     20  C   UNL     1      -3.759   5.894 127.772  0.00  0.00    +0.000 C 
ATOM     21  C   UNL     1      -2.387   6.196 128.366  0.00  0.00    +0.000 C 
ATOM     22  C   UNL     1      -2.413   6.125 129.889  0.00  0.00    +0.000 C 
ATOM     23  C   UNL     1      -2.907   4.760 130.351  0.00  0.00    +0.000 C 
ATOM     24  C   UNL     1      -4.298   4.449 129.797  0.00  0.00    +0.000 C 
ENDBRANCH  16  19
ENDBRANCH   1  13
TORSDOF 4
ENDMDL
