MODEL 1
REMARK VINA RESULT:      -4.3      0.000      0.000
REMARK  Name = Acetylcholine
REMARK  8 active torsions:
REMARK  status: ('A' for Active; 'I' for Inactive)
REMARK    1  A    between atoms: C_1  and  C_2
REMARK    2  A    between atoms: C_2  and  O_4
REMARK    3  A    between atoms: O_4  and  C_5
REMARK    4  A    between atoms: C_5  and  C_6
REMARK    5  A    between atoms: C_6  and  N_7
REMARK    6  A    between atoms: N_7  and  C_8
REMARK    7  A    between atoms: N_7  and  C_9
REMARK    8  A    between atoms: N_7  and  C_10
REMARK                            x       y       z     vdW  Elec       q    Type
REMARK                         _______ _______ _______ _____ _____    ______ ____
ROOT
ATOM      1  C   UNL     1     -10.480   7.976 128.841  0.00  0.00    +0.000 C 
ENDROOT
BRANCH   1   2
ATOM      2  O   UNL     1     -10.143   7.300 127.627  0.00  0.00    +0.000 OA
BRANCH   2   4
ATOM      3  C   UNL     1     -12.436   7.203 127.068  0.00  0.00    +0.000 C 
ATOM      4  C   UNL     1     -11.050   7.554 126.634  0.00  0.00    +0.000 C 
ATOM      5  O   UNL     1     -10.757   8.010 125.535  0.00  0.00    +0.000 OA
ENDBRANCH   2   4
ENDBRANCH   1   2
BRANCH   1   6
ATOM      6  C   UNL     1      -9.946   7.214 130.062  0.00  0.00    +0.000 C 
BRANCH   6   7
ATOM      7  N   UNL     1     -11.052   6.445 130.827  0.00  0.00    +0.000 N 
ATOM      8  C   UNL     1     -12.344   7.253 130.865  0.00  0.00    +0.000 C 
ATOM      9  C   UNL     1     -11.307   5.085 130.183  0.00  0.00    +0.000 C 
ATOM     10  C   UNL     1     -10.595   6.209 132.268  0.00  0.00    +0.000 C 
ENDBRANCH   6   7
ENDBRANCH   1   6
TORSDOF 4
ENDMDL
MODEL 2
REMARK VINA RESULT:      -4.3      0.142      1.358
REMARK  Name = Acetylcholine
REMARK  8 active torsions:
REMARK  status: ('A' for Active; 'I' for Inactive)
REMARK    1  A    between atoms: C_1  and  C_2
REMARK    2  A    between atoms: C_2  and  O_4
REMARK    3  A    between atoms: O_4  and  C_5
REMARK    4  A    between atoms: C_5  and  C_6
REMARK    5  A    between atoms: C_6  and  N_7
REMARK    6  A    between atoms: N_7  and  C_8
REMARK    7  A    between atoms: N_7  and  C_9
REMARK    8  A    between atoms: N_7  and  C_10
REMARK                            x       y       z     vdW  Elec       q    Type
REMARK                         _______ _______ _______ _____ _____    ______ ____
ROOT
ATOM      1  C   UNL     1     -10.682   7.959 128.928  0.00  0.00    +0.000 C 
ENDROOT
BRANCH   1   2
ATOM      2  O   UNL     1     -10.150   7.521 127.675  0.00  0.00    +0.000 OA
BRANCH   2   4
ATOM      3  C   UNL     1     -12.433   7.232 127.141  0.00  0.00    +0.000 C 
ATOM      4  C   UNL     1     -11.070   7.623 126.667  0.00  0.00    +0.000 C 
ATOM      5  O   UNL     1     -10.805   7.988 125.528  0.00  0.00    +0.000 OA
ENDBRANCH   2   4
ENDBRANCH   1   2
BRANCH   1   6
ATOM      6  C   UNL     1     -10.021   7.214 130.097  0.00  0.00    +0.000 C 
BRANCH   6   7
ATOM      7  N   UNL     1     -11.025   6.374 130.925  0.00  0.00    +0.000 N 
ATOM      8  C   UNL     1     -11.296   5.034 130.249  0.00  0.00    +0.000 C 
ATOM      9  C   UNL     1     -10.500   6.147 132.340  0.00  0.00    +0.000 C 
ATOM     10  C   UNL     1     -12.351   7.132 131.026  0.00  0.00    +0.000 C 
ENDBRANCH   6   7
ENDBRANCH   1   6
TORSDOF 4
ENDMDL
MODEL 3
REMARK VINA RESULT:      -3.9      2.364      4.265
REMARK  Name = Acetylcholine
REMARK  8 active torsions:
REMARK  status: ('A' for Active; 'I' for Inactive)
REMARK    1  A    between atoms: C_1  and  C_2
REMARK    2  A    between atoms: C_2  and  O_4
REMARK    3  A    between atoms: O_4  and  C_5
REMARK    4  A    between atoms: C_5  and  C_6
REMARK    5  A    between atoms: C_6  and  N_7
REMARK    6  A    between atoms: N_7  and  C_8
REMARK    7  A    between atoms: N_7  and  C_9
REMARK    8  A    between atoms: N_7  and  C_10
REMARK                            x       y       z     vdW  Elec       q    Type
REMARK                         _______ _______ _______ _____ _____    ______ ____
ROOT
ATOM      1  C   UNL     1     -10.156   7.043 129.165  0.00  0.00    +0.000 C 
ENDROOT
BRANCH   1   2
ATOM      2  O   UNL     1      -9.051   7.636 129.853  0.00  0.00    +0.000 OA
BRANCH   2   4
ATOM      3  C   UNL     1      -7.264   6.669 131.059  0.00  0.00    +0.000 C 
ATOM      4  C   UNL     1      -8.731   6.947 130.991  0.00  0.00    +0.000 C 
ATOM      5  O   UNL     1      -9.546   6.605 131.840  0.00  0.00    +0.000 OA
ENDBRANCH   2   4
ENDBRANCH   1   2
BRANCH   1   6
ATOM      6  C   UNL     1     -11.017   8.115 128.481  0.00  0.00    +0.000 C 
BRANCH   6   7
ATOM      7  N   UNL     1     -12.504   8.062 128.911  0.00  0.00    +0.000 N 
ATOM      8  C   UNL     1     -12.633   7.569 130.348  0.00  0.00    +0.000 C 
ATOM      9  C   UNL     1     -13.155   9.435 128.771  0.00  0.00    +0.000 C 
ATOM     10  C   UNL     1     -13.255   7.086 128.004  0.00  0.00    +0.000 C 
ENDBRANCH   6   7
ENDBRANCH   1   6
TORSDOF 4
ENDMDL
MODEL 4
REMARK VINA RESULT:      -3.9      1.730      2.282
REMARK  Name = Acetylcholine
REMARK  8 active torsions:
REMARK  status: ('A' for Active; 'I' for Inactive)
REMARK    1  A    between atoms: C_1  and  C_2
REMARK    2  A    between atoms: C_2  and  O_4
REMARK    3  A    between atoms: O_4  and  C_5
REMARK    4  A    between atoms: C_5  and  C_6
REMARK    5  A    between atoms: C_6  and  N_7
REMARK    6  A    between atoms: N_7  and  C_8
REMARK    7  A    between atoms: N_7  and  C_9
REMARK    8  A    between atoms: N_7  and  C_10
REMARK                            x       y       z     vdW  Elec       q    Type
REMARK                         _______ _______ _______ _____ _____    ______ ____
ROOT
ATOM      1  C   UNL     1     -11.024   7.273 128.632  0.00  0.00    +0.000 C 
ENDROOT
BRANCH   1   2
ATOM      2  O   UNL     1     -11.470   8.592 128.305  0.00  0.00    +0.000 OA
BRANCH   2   4
ATOM      3  C   UNL     1     -13.502   7.430 127.981  0.00  0.00    +0.000 C 
ATOM      4  C   UNL     1     -12.831   8.704 128.385  0.00  0.00    +0.000 C 
ATOM      5  O   UNL     1     -13.418   9.718 128.742  0.00  0.00    +0.000 OA
ENDBRANCH   2   4
ENDBRANCH   1   2
BRANCH   1   6
ATOM      6  C   UNL     1     -10.288   7.259 129.979  0.00  0.00    +0.000 C 
BRANCH   6   7
ATOM      7  N   UNL     1     -10.923   6.287 131.005  0.00  0.00    +0.000 N 
ATOM      8  C   UNL     1     -11.239   4.945 130.354  0.00  0.00    +0.000 C 
ATOM      9  C   UNL     1      -9.994   6.082 132.199  0.00  0.00    +0.000 C 
ATOM     10  C   UNL     1     -12.233   6.886 131.521  0.00  0.00    +0.000 C 
ENDBRANCH   6   7
ENDBRANCH   1   6
TORSDOF 4
ENDMDL
MODEL 5
REMARK VINA RESULT:      -3.8      2.521      4.464
REMARK  Name = Acetylcholine
REMARK  8 active torsions:
REMARK  status: ('A' for Active; 'I' for Inactive)
REMARK    1  A    between atoms: C_1  and  C_2
REMARK    2  A    between atoms: C_2  and  O_4
REMARK    3  A    between atoms: O_4  and  C_5
REMARK    4  A    between atoms: C_5  and  C_6
REMARK    5  A    between atoms: C_6  and  N_7
REMARK    6  A    between atoms: N_7  and  C_8
REMARK    7  A    between atoms: N_7  and  C_9
REMARK    8  A    between atoms: N_7  and  C_10
REMARK                            x       y       z     vdW  Elec       q    Type
REMARK                         _______ _______ _______ _____ _____    ______ ____
ROOT
ATOM      1  C   UNL     1     -11.800   6.483 130.506  0.00  0.00    +0.000 C 
ENDROOT
BRANCH   1   2
ATOM      2  O   UNL     1     -10.442   6.077 130.310  0.00  0.00    +0.000 OA
BRANCH   2   4
ATOM      3  C   UNL     1      -8.289   6.841 130.914  0.00  0.00    +0.000 C 
ATOM      4  C   UNL     1      -9.650   6.422 131.371  0.00  0.00    +0.000 C 
ATOM      5  O   UNL     1     -10.014   6.390 132.540  0.00  0.00    +0.000 OA
ENDBRANCH   2   4
ENDBRANCH   1   2
BRANCH   1   6
ATOM      6  C   UNL     1     -11.998   7.953 130.109  0.00  0.00    +0.000 C 
BRANCH   6   7
ATOM      7  N   UNL     1     -12.584   8.122 128.685  0.00  0.00    +0.000 N 
ATOM      8  C   UNL     1     -13.481   6.941 128.327  0.00  0.00    +0.000 C 
ATOM      9  C   UNL     1     -13.371   9.425 128.577  0.00  0.00    +0.000 C 
ATOM     10  C   UNL     1     -11.439   8.173 127.672  0.00  0.00    +0.000 C 
ENDBRANCH   6   7
ENDBRANCH   1   6
TORSDOF 4
ENDMDL
MODEL 6
REMARK VINA RESULT:      -3.8      1.455      2.162
REMARK  Name = Acetylcholine
REMARK  8 active torsions:
REMARK  status: ('A' for Active; 'I' for Inactive)
REMARK    1  A    between atoms: C_1  and  C_2
REMARK    2  A    between atoms: C_2  and  O_4
REMARK    3  A    between atoms: O_4  and  C_5
REMARK    4  A    between atoms: C_5  and  C_6
REMARK    5  A    between atoms: C_6  and  N_7
REMARK    6  A    between atoms: N_7  and  C_8
REMARK    7  A    between atoms: N_7  and  C_9
REMARK    8  A    between atoms: N_7  and  C_10
REMARK                            x       y       z     vdW  Elec       q    Type
REMARK                         _______ _______ _______ _____ _____    ______ ____
ROOT
ATOM      1  C   UNL     1     -11.723   7.236 129.721  0.00  0.00    +0.000 C 
ENDROOT
BRANCH   1   2
ATOM      2  O   UNL     1     -12.023   6.436 128.573  0.00  0.00    +0.000 OA
BRANCH   2   4
ATOM      3  C   UNL     1     -10.936   8.303 127.616  0.00  0.00    +0.000 C 
ATOM      4  C   UNL     1     -11.837   7.129 127.408  0.00  0.00    +0.000 C 
ATOM      5  O   UNL     1     -12.346   6.821 126.337  0.00  0.00    +0.000 OA
ENDBRANCH   2   4
ENDBRANCH   1   2
BRANCH   1   6
ATOM      6  C   UNL     1     -11.518   6.359 130.964  0.00  0.00    +0.000 C 
BRANCH   6   7
ATOM      7  N   UNL     1     -10.041   5.943 131.175  0.00  0.00    +0.000 N 
ATOM      8  C   UNL     1      -9.771   4.576 130.557  0.00  0.00    +0.000 C 
ATOM      9  C   UNL     1      -9.098   6.982 130.575  0.00  0.00    +0.000 C 
ATOM     10  C   UNL     1      -9.754   5.852 132.676  0.00  0.00    +0.000 C 
ENDBRANCH   6   7
ENDBRANCH   1   6
TORSDOF 4
ENDMDL
MODEL 7
REMARK VINA RESULT:      -3.7      2.525      3.128
REMARK  Name = Acetylcholine
REMARK  8 active torsions:
REMARK  status: ('A' for Active; 'I' for Inactive)
REMARK    1  A    between atoms: C_1  and  C_2
REMARK    2  A    between atoms: C_2  and  O_4
REMARK    3  A    between atoms: O_4  and  C_5
REMARK    4  A    between atoms: C_5  and  C_6
REMARK    5  A    between atoms: C_6  and  N_7
REMARK    6  A    between atoms: N_7  and  C_8
REMARK    7  A    between atoms: N_7  and  C_9
REMARK    8  A    between atoms: N_7  and  C_10
REMARK                            x       y       z     vdW  Elec       q    Type
REMARK                         _______ _______ _______ _____ _____    ______ ____
ROOT
ATOM      1  C   UNL     1     -12.256   7.115 130.355  0.00  0.00    +0.000 C 
ENDROOT
BRANCH   1   2
ATOM      2  O   UNL     1     -12.888   8.366 130.638  0.00  0.00    +0.000 OA
BRANCH   2   4
ATOM      3  C   UNL     1     -12.127   8.589 128.412  0.00  0.00    +0.000 C 
ATOM      4  C   UNL     1     -12.797   9.233 129.583  0.00  0.00    +0.000 C 
ATOM      5  O   UNL     1     -13.213  10.385 129.602  0.00  0.00    +0.000 OA
ENDBRANCH   2   4
ENDBRANCH   1   2
BRANCH   1   6
ATOM      6  C   UNL     1     -11.646   6.506 131.625  0.00  0.00    +0.000 C 
BRANCH   6   7
ATOM      7  N   UNL     1     -10.214   5.956 131.407  0.00  0.00    +0.000 N 
ATOM      8  C   UNL     1      -9.490   5.790 132.738  0.00  0.00    +0.000 C 
ATOM      9  C   UNL     1     -10.256   4.622 130.667  0.00  0.00    +0.000 C 
ATOM     10  C   UNL     1      -9.420   6.948 130.554  0.00  0.00    +0.000 C 
ENDBRANCH   6   7
ENDBRANCH   1   6
TORSDOF 4
ENDMDL
MODEL 8
REMARK VINA RESULT:      -3.7      9.140     10.192
REMARK  Name = Acetylcholine
REMARK  8 active torsions:
REMARK  status: ('A' for Active; 'I' for Inactive)
REMARK    1  A    between atoms: C_1  and  C_2
REMARK    2  A    between atoms: C_2  and  O_4
REMARK    3  A    between atoms: O_4  and  C_5
REMARK    4  A    between atoms: C_5  and  C_6
REMARK    5  A    between atoms: C_6  and  N_7
REMARK    6  A    between atoms: N_7  and  C_8
REMARK    7  A    between atoms: N_7  and  C_9
REMARK    8  A    between atoms: N_7  and  C_10
REMARK                            x       y       z     vdW  Elec       q    Type
REMARK                         _______ _______ _______ _____ _____    ______ ____
ROOT
ATOM      1  C   UNL     1      -8.773  -1.218 125.557  0.00  0.00    +0.000 C 
ENDROOT
BRANCH   1   2
ATOM      2  O   UNL     1      -9.720  -2.263 125.317  0.00  0.00    +0.000 OA
BRANCH   2   4
ATOM      3  C   UNL     1      -7.975  -3.680 124.590  0.00  0.00    +0.000 C 
ATOM      4  C   UNL     1      -9.319  -3.091 124.304  0.00  0.00    +0.000 C 
ATOM      5  O   UNL     1      -9.980  -3.315 123.297  0.00  0.00    +0.000 OA
ENDBRANCH   2   4
ENDBRANCH   1   2
BRANCH   1   6
ATOM      6  C   UNL     1      -9.401   0.161 125.310  0.00  0.00    +0.000 C 
BRANCH   6   7
ATOM      7  N   UNL     1      -8.967   0.791 123.963  0.00  0.00    +0.000 N 
ATOM      8  C   UNL     1      -9.923   0.389 122.845  0.00  0.00    +0.000 C 
ATOM      9  C   UNL     1      -8.906   2.312 124.074  0.00  0.00    +0.000 C 
ATOM     10  C   UNL     1      -7.569   0.285 123.599  0.00  0.00    +0.000 C 
ENDBRANCH   6   7
ENDBRANCH   1   6
TORSDOF 4
ENDMDL
MODEL 9
REMARK VINA RESULT:      -3.5      9.060      9.871
REMARK  Name = Acetylcholine
REMARK  8 active torsions:
REMARK  status: ('A' for Active; 'I' for Inactive)
REMARK    1  A    between atoms: C_1  and  C_2
REMARK    2  A    between atoms: C_2  and  O_4
REMARK    3  A    between atoms: O_4  and  C_5
REMARK    4  A    between atoms: C_5  and  C_6
REMARK    5  A    between atoms: C_6  and  N_7
REMARK    6  A    between atoms: N_7  and  C_8
REMARK    7  A    between atoms: N_7  and  C_9
REMARK    8  A    between atoms: N_7  and  C_10
REMARK                            x       y       z     vdW  Elec       q    Type
REMARK                         _______ _______ _______ _____ _____    ______ ____
ROOT
ATOM      1  C   UNL     1      -8.789   0.067 124.953  0.00  0.00    +0.000 C 
ENDROOT
BRANCH   1   2
ATOM      2  O   UNL     1     -10.050   0.641 124.597  0.00  0.00    +0.000 OA
BRANCH   2   4
ATOM      3  C   UNL     1      -9.199   2.093 122.938  0.00  0.00    +0.000 C 
ATOM      4  C   UNL     1     -10.110   0.953 123.266  0.00  0.00    +0.000 C 
ATOM      5  O   UNL     1     -10.819   0.371 122.455  0.00  0.00    +0.000 OA
ENDBRANCH   2   4
ENDBRANCH   1   2
BRANCH   1   6
ATOM      6  C   UNL     1      -8.903  -1.455 125.118  0.00  0.00    +0.000 C 
BRANCH   6   7
ATOM      7  N   UNL     1      -7.816  -2.233 124.335  0.00  0.00    +0.000 N 
ATOM      8  C   UNL     1      -7.952  -1.991 122.836  0.00  0.00    +0.000 C 
ATOM      9  C   UNL     1      -6.421  -1.827 124.803  0.00  0.00    +0.000 C 
ATOM     10  C   UNL     1      -7.986  -3.731 124.593  0.00  0.00    +0.000 C 
ENDBRANCH   6   7
ENDBRANCH   1   6
TORSDOF 4
ENDMDL
