MODEL 1
REMARK VINA RESULT:      -5.3      0.000      0.000
REMARK  Name = Acetaminophen
REMARK  3 active torsions:
REMARK  status: ('A' for Active; 'I' for Inactive)
REMARK    1  A    between atoms: C_1  and  C_2
REMARK    2  A    between atoms: N_4  and  C_5
REMARK    3  A    between atoms: C_8  and  O_9
REMARK                            x       y       z     vdW  Elec       q    Type
REMARK                         _______ _______ _______ _____ _____    ______ ____
ROOT
ATOM      1  C   UNL     1     -11.044   6.256 130.931  0.00  0.00    +0.000 A 
ATOM      2  C   UNL     1     -10.304   6.753 129.851  0.00  0.00    +0.000 A 
ATOM      3  C   UNL     1     -10.761   7.842 129.102  0.00  0.00    +0.000 A 
ATOM      4  C   UNL     1     -11.959   8.451 129.452  0.00  0.00    +0.000 A 
ATOM      5  C   UNL     1     -12.705   7.975 130.526  0.00  0.00    +0.000 A 
ATOM      6  C   UNL     1     -12.264   6.858 131.251  0.00  0.00    +0.000 A 
ENDROOT
BRANCH   1  10
ATOM      7  C   UNL     1      -9.294   4.054 133.462  0.00  0.00    +0.000 C 
ATOM      8  C   UNL     1      -9.685   5.322 132.747  0.00  0.00    +0.000 C 
ATOM      9  O   UNL     1      -9.251   6.408 133.140  0.00  0.00    +0.000 OA
ATOM     10  N   UNL     1     -10.568   5.157 131.689  0.00  0.00    +0.000 N 
ATOM     11  H   UNL     1     -11.074   4.282 131.616  0.00  0.00    +0.000 HD
ENDBRANCH   1  10
BRANCH   4  12
ATOM     12  O   UNL     1     -12.446   9.524 128.766  0.00  0.00    +0.000 OA
ATOM     13  H   UNL     1     -11.710   9.981 128.329  0.00  0.00    +0.000 HD
ENDBRANCH   4  12
TORSDOF 2
ENDMDL
MODEL 2
REMARK VINA RESULT:      -5.1      1.831      2.346
REMARK  Name = Acetaminophen
REMARK  3 active torsions:
REMARK  status: ('A' for Active; 'I' for Inactive)
REMARK    1  A    between atoms: C_1  and  C_2
REMARK    2  A    between atoms: N_4  and  C_5
REMARK    3  A    between atoms: C_8  and  O_9
REMARK                            x       y       z     vdW  Elec       q    Type
REMARK                         _______ _______ _______ _____ _____    ______ ____
ROOT
ATOM      1  C   UNL     1     -10.859   6.761 130.232  0.00  0.00    +0.000 A 
ATOM      2  C   UNL     1     -12.027   7.197 130.869  0.00  0.00    +0.000 A 
ATOM      3  C   UNL     1     -12.784   8.251 130.347  0.00  0.00    +0.000 A 
ATOM      4  C   UNL     1     -12.378   8.859 129.167  0.00  0.00    +0.000 A 
ATOM      5  C   UNL     1     -11.223   8.435 128.516  0.00  0.00    +0.000 A 
ATOM      6  C   UNL     1     -10.445   7.404 129.062  0.00  0.00    +0.000 A 
ENDROOT
BRANCH   1  10
ATOM      7  C   UNL     1      -9.571   3.342 131.214  0.00  0.00    +0.000 C 
ATOM      8  C   UNL     1     -10.496   4.365 130.607  0.00  0.00    +0.000 C 
ATOM      9  O   UNL     1     -11.499   3.995 129.990  0.00  0.00    +0.000 OA
ATOM     10  N   UNL     1     -10.104   5.686 130.764  0.00  0.00    +0.000 N 
ATOM     11  H   UNL     1      -9.147   5.875 131.036  0.00  0.00    +0.000 HD
ENDBRANCH   1  10
BRANCH   4  12
ATOM     12  O   UNL     1     -13.084   9.882 128.606  0.00  0.00    +0.000 OA
ATOM     13  H   UNL     1     -12.797  10.721 129.004  0.00  0.00    +0.000 HD
ENDBRANCH   4  12
TORSDOF 2
ENDMDL
MODEL 3
REMARK VINA RESULT:      -5.1      1.771      1.791
REMARK  Name = Acetaminophen
REMARK  3 active torsions:
REMARK  status: ('A' for Active; 'I' for Inactive)
REMARK    1  A    between atoms: C_1  and  C_2
REMARK    2  A    between atoms: N_4  and  C_5
REMARK    3  A    between atoms: C_8  and  O_9
REMARK                            x       y       z     vdW  Elec       q    Type
REMARK                         _______ _______ _______ _____ _____    ______ ____
ROOT
ATOM      1  C   UNL     1     -10.894   6.756 130.331  0.00  0.00    +0.000 A 
ATOM      2  C   UNL     1     -10.422   7.379 129.169  0.00  0.00    +0.000 A 
ATOM      3  C   UNL     1     -11.133   8.423 128.569  0.00  0.00    +0.000 A 
ATOM      4  C   UNL     1     -12.316   8.859 129.150  0.00  0.00    +0.000 A 
ATOM      5  C   UNL     1     -12.798   8.257 130.307  0.00  0.00    +0.000 A 
ATOM      6  C   UNL     1     -12.104   7.184 130.885  0.00  0.00    +0.000 A 
ENDROOT
BRANCH   1  10
ATOM      7  C   UNL     1      -9.591   3.377 131.427  0.00  0.00    +0.000 C 
ATOM      8  C   UNL     1     -10.482   4.371 130.727  0.00  0.00    +0.000 C 
ATOM      9  O   UNL     1     -11.394   3.971 129.999  0.00  0.00    +0.000 OA
ATOM     10  N   UNL     1     -10.162   5.704 130.937  0.00  0.00    +0.000 N 
ATOM     11  H   UNL     1      -9.250   5.927 131.317  0.00  0.00    +0.000 HD
ENDBRANCH   1  10
BRANCH   4  12
ATOM     12  O   UNL     1     -13.043   9.882 128.614  0.00  0.00    +0.000 OA
ATOM     13  H   UNL     1     -12.503  10.342 127.952  0.00  0.00    +0.000 HD
ENDBRANCH   4  12
TORSDOF 2
ENDMDL
MODEL 4
REMARK VINA RESULT:      -4.9      2.256      4.900
REMARK  Name = Acetaminophen
REMARK  3 active torsions:
REMARK  status: ('A' for Active; 'I' for Inactive)
REMARK    1  A    between atoms: C_1  and  C_2
REMARK    2  A    between atoms: N_4  and  C_5
REMARK    3  A    between atoms: C_8  and  O_9
REMARK                            x       y       z     vdW  Elec       q    Type
REMARK                         _______ _______ _______ _____ _____    ______ ____
ROOT
ATOM      1  C   UNL     1     -10.495   7.177 129.966  0.00  0.00    +0.000 A 
ATOM      2  C   UNL     1     -11.418   6.735 130.922  0.00  0.00    +0.000 A 
ATOM      3  C   UNL     1     -10.995   6.218 132.151  0.00  0.00    +0.000 A 
ATOM      4  C   UNL     1      -9.636   6.164 132.432  0.00  0.00    +0.000 A 
ATOM      5  C   UNL     1      -8.704   6.604 131.497  0.00  0.00    +0.000 A 
ATOM      6  C   UNL     1      -9.130   7.085 130.250  0.00  0.00    +0.000 A 
ENDROOT
BRANCH   1  10
ATOM      7  C   UNL     1     -11.070   7.864 126.290  0.00  0.00    +0.000 C 
ATOM      8  C   UNL     1     -10.490   7.203 127.514  0.00  0.00    +0.000 C 
ATOM      9  O   UNL     1      -9.706   6.258 127.388  0.00  0.00    +0.000 OA
ATOM     10  N   UNL     1     -10.935   7.707 128.727  0.00  0.00    +0.000 N 
ATOM     11  H   UNL     1     -11.768   8.283 128.733  0.00  0.00    +0.000 HD
ENDBRANCH   1  10
BRANCH   4  12
ATOM     12  O   UNL     1      -9.168   5.682 133.619  0.00  0.00    +0.000 OA
ATOM     13  H   UNL     1      -8.354   6.156 133.854  0.00  0.00    +0.000 HD
ENDBRANCH   4  12
TORSDOF 2
ENDMDL
MODEL 5
REMARK VINA RESULT:      -4.8      9.662     10.645
REMARK  Name = Acetaminophen
REMARK  3 active torsions:
REMARK  status: ('A' for Active; 'I' for Inactive)
REMARK    1  A    between atoms: C_1  and  C_2
REMARK    2  A    between atoms: N_4  and  C_5
REMARK    3  A    between atoms: C_8  and  O_9
REMARK                            x       y       z     vdW  Elec       q    Type
REMARK                         _______ _______ _______ _____ _____    ______ ____
ROOT
ATOM      1  C   UNL     1      -7.220   3.192 121.891  0.00  0.00    +0.000 A 
ATOM      2  C   UNL     1      -7.786   3.614 120.682  0.00  0.00    +0.000 A 
ATOM      3  C   UNL     1      -7.070   4.423 119.793  0.00  0.00    +0.000 A 
ATOM      4  C   UNL     1      -5.770   4.793 120.110  0.00  0.00    +0.000 A 
ATOM      5  C   UNL     1      -5.189   4.378 121.304  0.00  0.00    +0.000 A 
ATOM      6  C   UNL     1      -5.923   3.600 122.212  0.00  0.00    +0.000 A 
ENDROOT
BRANCH   1  10
ATOM      7  C   UNL     1      -9.222   1.841 124.804  0.00  0.00    +0.000 C 
ATOM      8  C   UNL     1      -8.450   2.843 123.984  0.00  0.00    +0.000 C 
ATOM      9  O   UNL     1      -8.332   4.004 124.385  0.00  0.00    +0.000 OA
ATOM     10  N   UNL     1      -7.951   2.365 122.781  0.00  0.00    +0.000 N 
ATOM     11  H   UNL     1      -8.324   1.497 122.415  0.00  0.00    +0.000 HD
ENDBRANCH   1  10
BRANCH   4  12
ATOM     12  O   UNL     1      -5.021   5.570 119.275  0.00  0.00    +0.000 OA
ATOM     13  H   UNL     1      -4.155   5.151 119.145  0.00  0.00    +0.000 HD
ENDBRANCH   4  12
TORSDOF 2
ENDMDL
MODEL 6
REMARK VINA RESULT:      -4.8      9.466     10.368
REMARK  Name = Acetaminophen
REMARK  3 active torsions:
REMARK  status: ('A' for Active; 'I' for Inactive)
REMARK    1  A    between atoms: C_1  and  C_2
REMARK    2  A    between atoms: N_4  and  C_5
REMARK    3  A    between atoms: C_8  and  O_9
REMARK                            x       y       z     vdW  Elec       q    Type
REMARK                         _______ _______ _______ _____ _____    ______ ____
ROOT
ATOM      1  C   UNL     1      -6.641   3.453 122.389  0.00  0.00    +0.000 A 
ATOM      2  C   UNL     1      -8.013   3.301 122.157  0.00  0.00    +0.000 A 
ATOM      3  C   UNL     1      -8.578   3.631 120.920  0.00  0.00    +0.000 A 
ATOM      4  C   UNL     1      -7.757   4.099 119.903  0.00  0.00    +0.000 A 
ATOM      5  C   UNL     1      -6.390   4.251 120.113  0.00  0.00    +0.000 A 
ATOM      6  C   UNL     1      -5.832   3.956 121.366  0.00  0.00    +0.000 A 
ENDROOT
BRANCH   1  10
ATOM      7  C   UNL     1      -5.204   3.527 125.889  0.00  0.00    +0.000 C 
ATOM      8  C   UNL     1      -5.779   4.063 124.603  0.00  0.00    +0.000 C 
ATOM      9  O   UNL     1      -5.985   5.273 124.480  0.00  0.00    +0.000 OA
ATOM     10  N   UNL     1      -6.077   3.107 123.643  0.00  0.00    +0.000 N 
ATOM     11  H   UNL     1      -6.132   2.137 123.930  0.00  0.00    +0.000 HD
ENDBRANCH   1  10
BRANCH   4  12
ATOM     12  O   UNL     1      -8.251   4.424 118.674  0.00  0.00    +0.000 OA
ATOM     13  H   UNL     1      -7.716   3.987 117.991  0.00  0.00    +0.000 HD
ENDBRANCH   4  12
TORSDOF 2
ENDMDL
MODEL 7
REMARK VINA RESULT:      -4.7      2.305      4.832
REMARK  Name = Acetaminophen
REMARK  3 active torsions:
REMARK  status: ('A' for Active; 'I' for Inactive)
REMARK    1  A    between atoms: C_1  and  C_2
REMARK    2  A    between atoms: N_4  and  C_5
REMARK    3  A    between atoms: C_8  and  O_9
REMARK                            x       y       z     vdW  Elec       q    Type
REMARK                         _______ _______ _______ _____ _____    ______ ____
ROOT
ATOM      1  C   UNL     1     -10.120   6.775 131.065  0.00  0.00    +0.000 A 
ATOM      2  C   UNL     1     -10.221   6.084 132.279  0.00  0.00    +0.000 A 
ATOM      3  C   UNL     1      -9.079   5.691 132.983  0.00  0.00    +0.000 A 
ATOM      4  C   UNL     1      -7.826   6.011 132.477  0.00  0.00    +0.000 A 
ATOM      5  C   UNL     1      -7.706   6.702 131.276  0.00  0.00    +0.000 A 
ATOM      6  C   UNL     1      -8.852   7.061 130.552  0.00  0.00    +0.000 A 
ENDROOT
BRANCH   1  10
ATOM      7  C   UNL     1     -13.253   6.867 128.945  0.00  0.00    +0.000 C 
ATOM      8  C   UNL     1     -12.034   6.284 129.612  0.00  0.00    +0.000 C 
ATOM      9  O   UNL     1     -11.788   5.080 129.496  0.00  0.00    +0.000 OA
ATOM     10  N   UNL     1     -11.284   7.177 130.362  0.00  0.00    +0.000 N 
ATOM     11  H   UNL     1     -11.705   8.062 130.620  0.00  0.00    +0.000 HD
ENDBRANCH   1  10
BRANCH   4  12
ATOM     12  O   UNL     1      -6.679   5.663 133.129  0.00  0.00    +0.000 OA
ATOM     13  H   UNL     1      -6.814   4.811 133.575  0.00  0.00    +0.000 HD
ENDBRANCH   4  12
TORSDOF 2
ENDMDL
MODEL 8
REMARK VINA RESULT:      -4.7      1.680      4.798
REMARK  Name = Acetaminophen
REMARK  3 active torsions:
REMARK  status: ('A' for Active; 'I' for Inactive)
REMARK    1  A    between atoms: C_1  and  C_2
REMARK    2  A    between atoms: N_4  and  C_5
REMARK    3  A    between atoms: C_8  and  O_9
REMARK                            x       y       z     vdW  Elec       q    Type
REMARK                         _______ _______ _______ _____ _____    ______ ____
ROOT
ATOM      1  C   UNL     1     -11.179   6.661 129.974  0.00  0.00    +0.000 A 
ATOM      2  C   UNL     1     -11.519   6.180 131.244  0.00  0.00    +0.000 A 
ATOM      3  C   UNL     1     -10.548   6.013 132.237  0.00  0.00    +0.000 A 
ATOM      4  C   UNL     1      -9.230   6.350 131.961  0.00  0.00    +0.000 A 
ATOM      5  C   UNL     1      -8.875   6.836 130.706  0.00  0.00    +0.000 A 
ATOM      6  C   UNL     1      -9.843   6.965 129.700  0.00  0.00    +0.000 A 
ENDROOT
BRANCH   1  10
ATOM      7  C   UNL     1     -13.887   8.048 127.725  0.00  0.00    +0.000 C 
ATOM      8  C   UNL     1     -12.884   8.019 128.849  0.00  0.00    +0.000 C 
ATOM      9  O   UNL     1     -12.720   9.020 129.551  0.00  0.00    +0.000 OA
ATOM     10  N   UNL     1     -12.172   6.835 128.977  0.00  0.00    +0.000 N 
ATOM     11  H   UNL     1     -12.177   6.184 128.201  0.00  0.00    +0.000 HD
ENDBRANCH   1  10
BRANCH   4  12
ATOM     12  O   UNL     1      -8.245   6.220 132.895  0.00  0.00    +0.000 OA
ATOM     13  H   UNL     1      -8.590   6.497 133.760  0.00  0.00    +0.000 HD
ENDBRANCH   4  12
TORSDOF 2
ENDMDL
MODEL 9
REMARK VINA RESULT:      -4.6     11.545     12.775
REMARK  Name = Acetaminophen
REMARK  3 active torsions:
REMARK  status: ('A' for Active; 'I' for Inactive)
REMARK    1  A    between atoms: C_1  and  C_2
REMARK    2  A    between atoms: N_4  and  C_5
REMARK    3  A    between atoms: C_8  and  O_9
REMARK                            x       y       z     vdW  Elec       q    Type
REMARK                         _______ _______ _______ _____ _____    ______ ____
ROOT
ATOM      1  C   UNL     1      -7.034  -1.155 123.622  0.00  0.00    +0.000 A 
ATOM      2  C   UNL     1      -6.793  -1.610 124.924  0.00  0.00    +0.000 A 
ATOM      3  C   UNL     1      -5.892  -2.652 125.170  0.00  0.00    +0.000 A 
ATOM      4  C   UNL     1      -5.213  -3.227 124.105  0.00  0.00    +0.000 A 
ATOM      5  C   UNL     1      -5.435  -2.784 122.805  0.00  0.00    +0.000 A 
ATOM      6  C   UNL     1      -6.368  -1.766 122.556  0.00  0.00    +0.000 A 
ENDROOT
BRANCH   1  10
ATOM      7  C   UNL     1     -10.113   0.915 122.878  0.00  0.00    +0.000 C 
ATOM      8  C   UNL     1      -9.277  -0.322 123.081  0.00  0.00    +0.000 C 
ATOM      9  O   UNL     1      -9.802  -1.437 123.010  0.00  0.00    +0.000 OA
ATOM     10  N   UNL     1      -7.943  -0.093 123.384  0.00  0.00    +0.000 N 
ATOM     11  H   UNL     1      -7.670   0.834 123.688  0.00  0.00    +0.000 HD
ENDBRANCH   1  10
BRANCH   4  12
ATOM     12  O   UNL     1      -4.314  -4.236 124.288  0.00  0.00    +0.000 OA
ATOM     13  H   UNL     1      -4.509  -4.686 125.126  0.00  0.00    +0.000 HD
ENDBRANCH   4  12
TORSDOF 2
ENDMDL
