MODEL 1
REMARK VINA RESULT:      -4.8      0.000      0.000
REMARK  Name = Acetylcysteine
REMARK  6 active torsions:
REMARK  status: ('A' for Active; 'I' for Inactive)
REMARK    1  A    between atoms: C_1  and  C_2
REMARK    2  A    between atoms: N_4  and  CA_5
REMARK    3  A    between atoms: CA_5  and  CB_6
REMARK    4  A    between atoms: CA_5  and  C_8
REMARK    5  A    between atoms: CB_6  and  SG_7
REMARK    6  A    between atoms: C_8  and  O_9
REMARK                            x       y       z     vdW  Elec       q    Type
REMARK                         _______ _______ _______ _____ _____    ______ ____
ROOT
ATOM      1  CA  CYS A   1     -10.613   8.072 127.802  0.00  0.00    +0.000 C 
ENDROOT
BRANCH   1   5
ATOM      2  C   UNK A   0     -13.374  10.199 129.369  0.00  0.00    +0.000 C 
ATOM      3  C   UNK A   0     -12.721   8.972 128.793  0.00  0.00    +0.000 C 
ATOM      4  O   UNK A   0     -13.326   7.912 128.673  0.00  0.00    +0.000 OA
ATOM      5  N   CYS A   1     -11.393   9.143 128.459  0.00  0.00    +0.000 N 
ATOM      6  H   CYS A   1     -10.965   9.973 128.832  0.00  0.00    +0.000 HD
ENDBRANCH   1   5
BRANCH   1   7
ATOM      7  C   CYS A   1     -11.166   7.556 126.446  0.00  0.00    +0.000 C 
ATOM      8  OXT CYS A   1     -10.854   8.056 125.370  0.00  0.00    +0.000 OA
BRANCH   7   9
ATOM      9  O   CYS A   1     -12.004   6.499 126.471  0.00  0.00    +0.000 OA
ATOM     10  H   CYS A   1     -12.799   6.525 125.923  0.00  0.00    +0.000 HD
ENDBRANCH   7   9
ENDBRANCH   1   7
BRANCH   1  11
ATOM     11  CB  CYS A   1     -10.459   6.797 128.676  0.00  0.00    +0.000 C 
BRANCH  11  12
ATOM     12  SG  CYS A   1      -9.672   6.901 130.322  0.00  0.00    +0.000 S 
ATOM     13  HG  CYS A   1     -10.799   6.846 131.057  0.00  0.00    +0.000 HD
ENDBRANCH  11  12
ENDBRANCH   1  11
TORSDOF 5
ENDMDL
MODEL 2
REMARK VINA RESULT:      -4.5      2.453      3.158
REMARK  Name = Acetylcysteine
REMARK  6 active torsions:
REMARK  status: ('A' for Active; 'I' for Inactive)
REMARK    1  A    between atoms: C_1  and  C_2
REMARK    2  A    between atoms: N_4  and  CA_5
REMARK    3  A    between atoms: CA_5  and  CB_6
REMARK    4  A    between atoms: CA_5  and  C_8
REMARK    5  A    between atoms: CB_6  and  SG_7
REMARK    6  A    between atoms: C_8  and  O_9
REMARK                            x       y       z     vdW  Elec       q    Type
REMARK                         _______ _______ _______ _____ _____    ______ ____
ROOT
ATOM      1  CA  CYS A   1     -12.525   7.535 128.456  0.00  0.00    +0.000 C 
ENDROOT
BRANCH   1   5
ATOM      2  C   UNK A   0     -10.899   6.214 131.652  0.00  0.00    +0.000 C 
ATOM      3  C   UNK A   0     -11.526   6.160 130.285  0.00  0.00    +0.000 C 
ATOM      4  O   UNK A   0     -11.711   5.098 129.699  0.00  0.00    +0.000 OA
ATOM      5  N   CYS A   1     -11.827   7.396 129.753  0.00  0.00    +0.000 N 
ATOM      6  H   CYS A   1     -11.404   8.177 130.226  0.00  0.00    +0.000 HD
ENDBRANCH   1   5
BRANCH   1   7
ATOM      7  C   CYS A   1     -11.624   7.559 127.194  0.00  0.00    +0.000 C 
ATOM      8  OXT CYS A   1     -10.752   8.404 127.018  0.00  0.00    +0.000 OA
BRANCH   7   9
ATOM      9  O   CYS A   1     -11.805   6.588 126.274  0.00  0.00    +0.000 OA
ATOM     10  H   CYS A   1     -11.314   6.639 125.443  0.00  0.00    +0.000 HD
ENDBRANCH   7   9
ENDBRANCH   1   7
BRANCH   1  11
ATOM     11  CB  CYS A   1     -13.385   8.825 128.354  0.00  0.00    +0.000 C 
BRANCH  11  12
ATOM     12  SG  CYS A   1     -13.225  10.138 129.613  0.00  0.00    +0.000 S 
ATOM     13  HG  CYS A   1     -14.124   9.651 130.488  0.00  0.00    +0.000 HD
ENDBRANCH  11  12
ENDBRANCH   1  11
TORSDOF 5
ENDMDL
MODEL 3
REMARK VINA RESULT:      -4.4      2.897      4.384
REMARK  Name = Acetylcysteine
REMARK  6 active torsions:
REMARK  status: ('A' for Active; 'I' for Inactive)
REMARK    1  A    between atoms: C_1  and  C_2
REMARK    2  A    between atoms: N_4  and  CA_5
REMARK    3  A    between atoms: CA_5  and  CB_6
REMARK    4  A    between atoms: CA_5  and  C_8
REMARK    5  A    between atoms: CB_6  and  SG_7
REMARK    6  A    between atoms: C_8  and  O_9
REMARK                            x       y       z     vdW  Elec       q    Type
REMARK                         _______ _______ _______ _____ _____    ______ ____
ROOT
ATOM      1  CA  CYS A   1     -10.243   6.467 130.507  0.00  0.00    +0.000 C 
ENDROOT
BRANCH   1   5
ATOM      2  C   UNK A   0     -10.998   8.119 127.145  0.00  0.00    +0.000 C 
ATOM      3  C   UNK A   0     -10.416   7.113 128.101  0.00  0.00    +0.000 C 
ATOM      4  O   UNK A   0      -9.707   6.189 127.717  0.00  0.00    +0.000 OA
ATOM      5  N   CYS A   1     -10.785   7.307 129.416  0.00  0.00    +0.000 N 
ATOM      6  H   CYS A   1     -11.554   7.941 129.552  0.00  0.00    +0.000 HD
ENDBRANCH   1   5
BRANCH   1   7
ATOM      7  C   CYS A   1     -11.065   6.440 131.822  0.00  0.00    +0.000 C 
ATOM      8  OXT CYS A   1     -12.291   6.453 131.838  0.00  0.00    +0.000 OA
BRANCH   7   9
ATOM      9  O   CYS A   1     -10.385   6.374 132.987  0.00  0.00    +0.000 OA
ATOM     10  H   CYS A   1      -9.955   7.173 133.318  0.00  0.00    +0.000 HD
ENDBRANCH   7   9
ENDBRANCH   1   7
BRANCH   1  11
ATOM     11  CB  CYS A   1      -8.809   6.876 130.944  0.00  0.00    +0.000 C 
BRANCH  11  12
ATOM     12  SG  CYS A   1      -7.432   5.684 130.810  0.00  0.00    +0.000 S 
ATOM     13  HG  CYS A   1      -7.549   5.144 132.038  0.00  0.00    +0.000 HD
ENDBRANCH  11  12
ENDBRANCH   1  11
TORSDOF 5
ENDMDL
MODEL 4
REMARK VINA RESULT:      -4.4      3.436      4.677
REMARK  Name = Acetylcysteine
REMARK  6 active torsions:
REMARK  status: ('A' for Active; 'I' for Inactive)
REMARK    1  A    between atoms: C_1  and  C_2
REMARK    2  A    between atoms: N_4  and  CA_5
REMARK    3  A    between atoms: CA_5  and  CB_6
REMARK    4  A    between atoms: CA_5  and  C_8
REMARK    5  A    between atoms: CB_6  and  SG_7
REMARK    6  A    between atoms: C_8  and  O_9
REMARK                            x       y       z     vdW  Elec       q    Type
REMARK                         _______ _______ _______ _____ _____    ______ ____
ROOT
ATOM      1  CA  CYS A   1     -10.788   7.437 130.139  0.00  0.00    +0.000 C 
ENDROOT
BRANCH   1   5
ATOM      2  C   UNK A   0      -7.193   6.640 131.161  0.00  0.00    +0.000 C 
ATOM      3  C   UNK A   0      -8.686   6.763 131.305  0.00  0.00    +0.000 C 
ATOM      4  O   UNK A   0      -9.261   6.477 132.351  0.00  0.00    +0.000 OA
ATOM      5  N   CYS A   1      -9.331   7.179 130.160  0.00  0.00    +0.000 N 
ATOM      6  H   CYS A   1      -8.776   7.140 129.322  0.00  0.00    +0.000 HD
ENDBRANCH   1   5
BRANCH   1   7
ATOM      7  C   CYS A   1     -11.704   6.204 130.356  0.00  0.00    +0.000 C 
ATOM      8  OXT CYS A   1     -12.001   5.431 129.452  0.00  0.00    +0.000 OA
BRANCH   7   9
ATOM      9  O   CYS A   1     -12.164   5.976 131.604  0.00  0.00    +0.000 OA
ATOM     10  H   CYS A   1     -12.283   6.728 132.199  0.00  0.00    +0.000 HD
ENDBRANCH   7   9
ENDBRANCH   1   7
BRANCH   1  11
ATOM     11  CB  CYS A   1     -11.283   8.069 128.808  0.00  0.00    +0.000 C 
BRANCH  11  12
ATOM     12  SG  CYS A   1     -12.894   8.927 128.741  0.00  0.00    +0.000 S 
ATOM     13  HG  CYS A   1     -13.632   7.953 129.307  0.00  0.00    +0.000 HD
ENDBRANCH  11  12
ENDBRANCH   1  11
TORSDOF 5
ENDMDL
MODEL 5
REMARK VINA RESULT:      -4.2      3.010      4.172
REMARK  Name = Acetylcysteine
REMARK  6 active torsions:
REMARK  status: ('A' for Active; 'I' for Inactive)
REMARK    1  A    between atoms: C_1  and  C_2
REMARK    2  A    between atoms: N_4  and  CA_5
REMARK    3  A    between atoms: CA_5  and  CB_6
REMARK    4  A    between atoms: CA_5  and  C_8
REMARK    5  A    between atoms: CB_6  and  SG_7
REMARK    6  A    between atoms: C_8  and  O_9
REMARK                            x       y       z     vdW  Elec       q    Type
REMARK                         _______ _______ _______ _____ _____    ______ ____
ROOT
ATOM      1  CA  CYS A   1     -12.512   8.838 129.264  0.00  0.00    +0.000 C 
ENDROOT
BRANCH   1   5
ATOM      2  C   UNK A   0     -11.308   6.313 131.867  0.00  0.00    +0.000 C 
ATOM      3  C   UNK A   0     -11.235   7.208 130.660  0.00  0.00    +0.000 C 
ATOM      4  O   UNK A   0     -10.231   7.270 129.958  0.00  0.00    +0.000 OA
ATOM      5  N   CYS A   1     -12.370   7.965 130.449  0.00  0.00    +0.000 N 
ATOM      6  H   CYS A   1     -13.008   7.998 131.226  0.00  0.00    +0.000 HD
ENDBRANCH   1   5
BRANCH   1   7
ATOM      7  C   CYS A   1     -13.261  10.179 129.488  0.00  0.00    +0.000 C 
ATOM      8  OXT CYS A   1     -13.284  10.752 130.571  0.00  0.00    +0.000 OA
BRANCH   7   9
ATOM      9  O   CYS A   1     -13.887  10.733 128.428  0.00  0.00    +0.000 OA
ATOM     10  H   CYS A   1     -14.400  10.162 127.842  0.00  0.00    +0.000 HD
ENDBRANCH   7   9
ENDBRANCH   1   7
BRANCH   1  11
ATOM     11  CB  CYS A   1     -13.260   8.159 128.084  0.00  0.00    +0.000 C 
BRANCH  11  12
ATOM     12  SG  CYS A   1     -12.334   7.189 126.844  0.00  0.00    +0.000 S 
ATOM     13  HG  CYS A   1     -12.420   8.072 125.832  0.00  0.00    +0.000 HD
ENDBRANCH  11  12
ENDBRANCH   1  11
TORSDOF 5
ENDMDL
MODEL 6
REMARK VINA RESULT:      -4.1      3.746      4.604
REMARK  Name = Acetylcysteine
REMARK  6 active torsions:
REMARK  status: ('A' for Active; 'I' for Inactive)
REMARK    1  A    between atoms: C_1  and  C_2
REMARK    2  A    between atoms: N_4  and  CA_5
REMARK    3  A    between atoms: CA_5  and  CB_6
REMARK    4  A    between atoms: CA_5  and  C_8
REMARK    5  A    between atoms: CB_6  and  SG_7
REMARK    6  A    between atoms: C_8  and  O_9
REMARK                            x       y       z     vdW  Elec       q    Type
REMARK                         _______ _______ _______ _____ _____    ______ ____
ROOT
ATOM      1  CA  CYS A   1     -11.001   5.502 131.193  0.00  0.00    +0.000 C 
ENDROOT
BRANCH   1   5
ATOM      2  C   UNK A   0     -12.618   8.666 129.788  0.00  0.00    +0.000 C 
ATOM      3  C   UNK A   0     -12.447   7.474 130.690  0.00  0.00    +0.000 C 
ATOM      4  O   UNK A   0     -13.258   7.207 131.571  0.00  0.00    +0.000 OA
ATOM      5  N   CYS A   1     -11.294   6.752 130.459  0.00  0.00    +0.000 N 
ATOM      6  H   CYS A   1     -10.611   7.216 129.884  0.00  0.00    +0.000 HD
ENDBRANCH   1   5
BRANCH   1   7
ATOM      7  C   CYS A   1     -10.052   5.631 132.413  0.00  0.00    +0.000 C 
ATOM      8  OXT CYS A   1      -9.283   6.575 132.558  0.00  0.00    +0.000 OA
BRANCH   7   9
ATOM      9  O   CYS A   1     -10.106   4.666 133.356  0.00  0.00    +0.000 OA
ATOM     10  H   CYS A   1     -10.961   4.451 133.750  0.00  0.00    +0.000 HD
ENDBRANCH   7   9
ENDBRANCH   1   7
BRANCH   1  11
ATOM     11  CB  CYS A   1     -10.356   4.403 130.304  0.00  0.00    +0.000 C 
BRANCH  11  12
ATOM     12  SG  CYS A   1      -8.713   4.675 129.554  0.00  0.00    +0.000 S 
ATOM     13  HG  CYS A   1      -9.085   5.603 128.652  0.00  0.00    +0.000 HD
ENDBRANCH  11  12
ENDBRANCH   1  11
TORSDOF 5
ENDMDL
MODEL 7
REMARK VINA RESULT:      -4.1     10.112     11.148
REMARK  Name = Acetylcysteine
REMARK  6 active torsions:
REMARK  status: ('A' for Active; 'I' for Inactive)
REMARK    1  A    between atoms: C_1  and  C_2
REMARK    2  A    between atoms: N_4  and  CA_5
REMARK    3  A    between atoms: CA_5  and  CB_6
REMARK    4  A    between atoms: CA_5  and  C_8
REMARK    5  A    between atoms: CB_6  and  SG_7
REMARK    6  A    between atoms: C_8  and  O_9
REMARK                            x       y       z     vdW  Elec       q    Type
REMARK                         _______ _______ _______ _____ _____    ______ ____
ROOT
ATOM      1  CA  CYS A   1      -8.114  -1.971 123.221  0.00  0.00    +0.000 C 
ENDROOT
BRANCH   1   5
ATOM      2  C   UNK A   0      -9.702   1.449 123.840  0.00  0.00    +0.000 C 
ATOM      3  C   UNK A   0      -9.542   0.077 123.243  0.00  0.00    +0.000 C 
ATOM      4  O   UNK A   0     -10.325  -0.361 122.406  0.00  0.00    +0.000 OA
ATOM      5  N   CYS A   1      -8.476  -0.638 123.749  0.00  0.00    +0.000 N 
ATOM      6  H   CYS A   1      -8.074  -0.261 124.591  0.00  0.00    +0.000 HD
ENDBRANCH   1   5
BRANCH   1   7
ATOM      7  C   CYS A   1      -8.914  -3.173 123.790  0.00  0.00    +0.000 C 
ATOM      8  OXT CYS A   1      -8.450  -3.944 124.622  0.00  0.00    +0.000 OA
BRANCH   7   9
ATOM      9  O   CYS A   1     -10.181  -3.345 123.357  0.00  0.00    +0.000 OA
ATOM     10  H   CYS A   1     -10.323  -3.687 122.464  0.00  0.00    +0.000 HD
ENDBRANCH   7   9
ENDBRANCH   1   7
BRANCH   1  11
ATOM     11  CB  CYS A   1      -6.623  -2.343 123.455  0.00  0.00    +0.000 C 
BRANCH  11  12
ATOM     12  SG  CYS A   1      -5.691  -1.583 124.830  0.00  0.00    +0.000 S 
ATOM     13  HG  CYS A   1      -6.468  -0.494 124.985  0.00  0.00    +0.000 HD
ENDBRANCH  11  12
ENDBRANCH   1  11
TORSDOF 5
ENDMDL
MODEL 8
REMARK VINA RESULT:      -4.1      4.002      5.245
REMARK  Name = Acetylcysteine
REMARK  6 active torsions:
REMARK  status: ('A' for Active; 'I' for Inactive)
REMARK    1  A    between atoms: C_1  and  C_2
REMARK    2  A    between atoms: N_4  and  CA_5
REMARK    3  A    between atoms: CA_5  and  CB_6
REMARK    4  A    between atoms: CA_5  and  C_8
REMARK    5  A    between atoms: CB_6  and  SG_7
REMARK    6  A    between atoms: C_8  and  O_9
REMARK                            x       y       z     vdW  Elec       q    Type
REMARK                         _______ _______ _______ _____ _____    ______ ____
ROOT
ATOM      1  CA  CYS A   1     -10.907   5.527 130.302  0.00  0.00    +0.000 C 
ENDROOT
BRANCH   1   5
ATOM      2  C   UNK A   0      -9.886   2.150 131.770  0.00  0.00    +0.000 C 
ATOM      3  C   UNK A   0     -10.100   3.200 130.714  0.00  0.00    +0.000 C 
ATOM      4  O   UNK A   0      -9.849   2.991 129.531  0.00  0.00    +0.000 OA
ATOM      5  N   CYS A   1     -10.559   4.406 131.202  0.00  0.00    +0.000 N 
ATOM      6  H   CYS A   1     -10.487   4.515 132.200  0.00  0.00    +0.000 HD
ENDBRANCH   1   5
BRANCH   1   7
ATOM      7  C   CYS A   1      -9.718   6.233 129.598  0.00  0.00    +0.000 C 
ATOM      8  OXT CYS A   1      -9.084   7.144 130.121  0.00  0.00    +0.000 OA
BRANCH   7   9
ATOM      9  O   CYS A   1      -9.366   5.798 128.370  0.00  0.00    +0.000 OA
ATOM     10  H   CYS A   1      -9.393   6.421 127.632  0.00  0.00    +0.000 HD
ENDBRANCH   7   9
ENDBRANCH   1   7
BRANCH   1  11
ATOM     11  CB  CYS A   1     -11.682   6.670 131.013  0.00  0.00    +0.000 C 
BRANCH  11  12
ATOM     12  SG  CYS A   1     -12.588   7.916 130.030  0.00  0.00    +0.000 S 
ATOM     13  HG  CYS A   1     -12.162   7.522 128.815  0.00  0.00    +0.000 HD
ENDBRANCH  11  12
ENDBRANCH   1  11
TORSDOF 5
ENDMDL
MODEL 9
REMARK VINA RESULT:      -4.0      2.577      3.019
REMARK  Name = Acetylcysteine
REMARK  6 active torsions:
REMARK  status: ('A' for Active; 'I' for Inactive)
REMARK    1  A    between atoms: C_1  and  C_2
REMARK    2  A    between atoms: N_4  and  CA_5
REMARK    3  A    between atoms: CA_5  and  CB_6
REMARK    4  A    between atoms: CA_5  and  C_8
REMARK    5  A    between atoms: CB_6  and  SG_7
REMARK    6  A    between atoms: C_8  and  O_9
REMARK                            x       y       z     vdW  Elec       q    Type
REMARK                         _______ _______ _______ _____ _____    ______ ____
ROOT
ATOM      1  CA  CYS A   1      -9.698   6.893 129.984  0.00  0.00    +0.000 C 
ENDROOT
BRANCH   1   5
ATOM      2  C   UNK A   0     -12.699   9.051 129.016  0.00  0.00    +0.000 C 
ATOM      3  C   UNK A   0     -11.348   8.404 128.876  0.00  0.00    +0.000 C 
ATOM      4  O   UNK A   0     -10.631   8.607 127.901  0.00  0.00    +0.000 OA
ATOM      5  N   CYS A   1     -11.021   7.551 129.909  0.00  0.00    +0.000 N 
ATOM      6  H   CYS A   1     -11.789   7.293 130.506  0.00  0.00    +0.000 HD
ENDBRANCH   1   5
BRANCH   1   7
ATOM      7  C   CYS A   1      -9.549   5.566 129.194  0.00  0.00    +0.000 C 
ATOM      8  OXT CYS A   1      -8.967   5.497 128.117  0.00  0.00    +0.000 OA
BRANCH   7   9
ATOM      9  O   CYS A   1     -10.068   4.447 129.742  0.00  0.00    +0.000 OA
ATOM     10  H   CYS A   1     -10.912   4.115 129.408  0.00  0.00    +0.000 HD
ENDBRANCH   7   9
ENDBRANCH   1   7
BRANCH   1  11
ATOM     11  CB  CYS A   1      -9.266   6.541 131.434  0.00  0.00    +0.000 C 
BRANCH  11  12
ATOM     12  SG  CYS A   1      -7.520   6.155 131.805  0.00  0.00    +0.000 S 
ATOM     13  HG  CYS A   1      -7.413   6.894 132.926  0.00  0.00    +0.000 HD
ENDBRANCH  11  12
ENDBRANCH   1  11
TORSDOF 5
ENDMDL
