MODEL 1
REMARK VINA RESULT:      -5.0      0.000      0.000
REMARK  Name = Acetylcarnitine
REMARK  10 active torsions:
REMARK  status: ('A' for Active; 'I' for Inactive)
REMARK    1  A    between atoms: C_1  and  C_2
REMARK    2  A    between atoms: C_2  and  O_4
REMARK    3  A    between atoms: O_4  and  C_5
REMARK    4  A    between atoms: C_5  and  C_6
REMARK    5  A    between atoms: C_5  and  C_10
REMARK    6  A    between atoms: C_6  and  C_7
REMARK    7  A    between atoms: C_10  and  N_11
REMARK    8  A    between atoms: N_11  and  C_12
REMARK    9  A    between atoms: N_11  and  C_13
REMARK   10  A    between atoms: N_11  and  C_14
REMARK                            x       y       z     vdW  Elec       q    Type
REMARK                         _______ _______ _______ _____ _____    ______ ____
ROOT
ATOM      1  C   UNL     1     -10.597   7.123 129.299  0.00  0.00    +0.000 C 
ENDROOT
BRANCH   1   2
ATOM      2  O   UNL     1     -10.137   7.641 128.027  0.00  0.00    +0.000 OA
BRANCH   2   4
ATOM      3  C   UNL     1     -11.790   7.347 126.225  0.00  0.00    +0.000 C 
ATOM      4  C   UNL     1     -10.455   7.052 126.847  0.00  0.00    +0.000 C 
ATOM      5  O   UNL     1      -9.659   6.266 126.331  0.00  0.00    +0.000 OA
ENDBRANCH   2   4
ENDBRANCH   1   2
BRANCH   1   6
ATOM      6  C   UNL     1     -11.660   8.064 129.826  0.00  0.00    +0.000 C 
BRANCH   6   7
ATOM      7  C   UNL     1     -12.895   7.255 130.181  0.00  0.00    +0.000 C 
ATOM      8  O   UNL     1     -13.138   7.152 131.416  0.00  0.00    +0.000 OA
ATOM      9  O   UNL     1     -13.521   6.814 129.186  0.00  0.00    +0.000 OA
ENDBRANCH   6   7
ENDBRANCH   1   6
BRANCH   1  10
ATOM     10  C   UNL     1      -9.430   7.091 130.327  0.00  0.00    +0.000 C 
BRANCH  10  11
ATOM     11  N   UNL     1      -9.325   5.768 131.139  0.00  0.00    +0.000 N 
ATOM     12  C   UNL     1      -7.864   5.369 131.257  0.00  0.00    +0.000 C 
ATOM     13  C   UNL     1      -9.961   5.915 132.508  0.00  0.00    +0.000 C 
ATOM     14  C   UNL     1     -10.070   4.679 130.379  0.00  0.00    +0.000 C 
ENDBRANCH  10  11
ENDBRANCH   1  10
TORSDOF 6
ENDMDL
MODEL 2
REMARK VINA RESULT:      -4.6      2.601      4.650
REMARK  Name = Acetylcarnitine
REMARK  10 active torsions:
REMARK  status: ('A' for Active; 'I' for Inactive)
REMARK    1  A    between atoms: C_1  and  C_2
REMARK    2  A    between atoms: C_2  and  O_4
REMARK    3  A    between atoms: O_4  and  C_5
REMARK    4  A    between atoms: C_5  and  C_6
REMARK    5  A    between atoms: C_5  and  C_10
REMARK    6  A    between atoms: C_6  and  C_7
REMARK    7  A    between atoms: C_10  and  N_11
REMARK    8  A    between atoms: N_11  and  C_12
REMARK    9  A    between atoms: N_11  and  C_13
REMARK   10  A    between atoms: N_11  and  C_14
REMARK                            x       y       z     vdW  Elec       q    Type
REMARK                         _______ _______ _______ _____ _____    ______ ____
ROOT
ATOM      1  C   UNL     1     -11.039   5.812 129.956  0.00  0.00    +0.000 C 
ENDROOT
BRANCH   1   2
ATOM      2  O   UNL     1     -11.187   4.387 130.167  0.00  0.00    +0.000 OA
BRANCH   2   4
ATOM      3  C   UNL     1      -9.959   2.653 131.414  0.00  0.00    +0.000 C 
ATOM      4  C   UNL     1     -10.120   3.549 130.219  0.00  0.00    +0.000 C 
ATOM      5  O   UNL     1      -9.296   3.566 129.305  0.00  0.00    +0.000 OA
ENDBRANCH   2   4
ENDBRANCH   1   2
BRANCH   1   6
ATOM      6  C   UNL     1     -10.473   6.413 131.225  0.00  0.00    +0.000 C 
BRANCH   6   7
ATOM      7  C   UNL     1      -9.035   6.829 130.969  0.00  0.00    +0.000 C 
ATOM      8  O   UNL     1      -8.178   6.326 131.749  0.00  0.00    +0.000 OA
ATOM      9  O   UNL     1      -8.894   7.606 129.994  0.00  0.00    +0.000 OA
ENDBRANCH   6   7
ENDBRANCH   1   6
BRANCH   1  10
ATOM     10  C   UNL     1     -12.425   6.468 129.689  0.00  0.00    +0.000 C 
BRANCH  10  11
ATOM     11  N   UNL     1     -12.428   7.520 128.544  0.00  0.00    +0.000 N 
ATOM     12  C   UNL     1     -12.328   8.912 129.145  0.00  0.00    +0.000 C 
ATOM     13  C   UNL     1     -11.296   7.268 127.566  0.00  0.00    +0.000 C 
ATOM     14  C   UNL     1     -13.747   7.405 127.791  0.00  0.00    +0.000 C 
ENDBRANCH  10  11
ENDBRANCH   1  10
TORSDOF 6
ENDMDL
MODEL 3
REMARK VINA RESULT:      -4.4      2.055      3.042
REMARK  Name = Acetylcarnitine
REMARK  10 active torsions:
REMARK  status: ('A' for Active; 'I' for Inactive)
REMARK    1  A    between atoms: C_1  and  C_2
REMARK    2  A    between atoms: C_2  and  O_4
REMARK    3  A    between atoms: O_4  and  C_5
REMARK    4  A    between atoms: C_5  and  C_6
REMARK    5  A    between atoms: C_5  and  C_10
REMARK    6  A    between atoms: C_6  and  C_7
REMARK    7  A    between atoms: C_10  and  N_11
REMARK    8  A    between atoms: N_11  and  C_12
REMARK    9  A    between atoms: N_11  and  C_13
REMARK   10  A    between atoms: N_11  and  C_14
REMARK                            x       y       z     vdW  Elec       q    Type
REMARK                         _______ _______ _______ _____ _____    ______ ____
ROOT
ATOM      1  C   UNL     1      -9.612   5.680 129.693  0.00  0.00    +0.000 C 
ENDROOT
BRANCH   1   2
ATOM      2  O   UNL     1      -9.796   6.313 128.403  0.00  0.00    +0.000 OA
BRANCH   2   4
ATOM      3  C   UNL     1     -10.813   8.450 127.716  0.00  0.00    +0.000 C 
ATOM      4  C   UNL     1     -10.924   6.998 128.088  0.00  0.00    +0.000 C 
ATOM      5  O   UNL     1     -12.013   6.425 128.144  0.00  0.00    +0.000 OA
ENDBRANCH   2   4
ENDBRANCH   1   2
BRANCH   1   6
ATOM      6  C   UNL     1      -9.499   6.773 130.735  0.00  0.00    +0.000 C 
BRANCH   6   7
ATOM      7  C   UNL     1     -10.338   6.388 131.940  0.00  0.00    +0.000 C 
ATOM      8  O   UNL     1     -11.567   6.208 131.709  0.00  0.00    +0.000 OA
ATOM      9  O   UNL     1      -9.684   6.280 133.005  0.00  0.00    +0.000 OA
ENDBRANCH   6   7
ENDBRANCH   1   6
BRANCH   1  10
ATOM     10  C   UNL     1      -8.290   4.859 129.711  0.00  0.00    +0.000 C 
BRANCH  10  11
ATOM     11  N   UNL     1      -8.428   3.433 130.317  0.00  0.00    +0.000 N 
ATOM     12  C   UNL     1      -9.902   3.089 130.455  0.00  0.00    +0.000 C 
ATOM     13  C   UNL     1      -7.709   2.405 129.465  0.00  0.00    +0.000 C 
ATOM     14  C   UNL     1      -7.795   3.437 131.701  0.00  0.00    +0.000 C 
ENDBRANCH  10  11
ENDBRANCH   1  10
TORSDOF 6
ENDMDL
MODEL 4
REMARK VINA RESULT:      -4.4     10.052     11.425
REMARK  Name = Acetylcarnitine
REMARK  10 active torsions:
REMARK  status: ('A' for Active; 'I' for Inactive)
REMARK    1  A    between atoms: C_1  and  C_2
REMARK    2  A    between atoms: C_2  and  O_4
REMARK    3  A    between atoms: O_4  and  C_5
REMARK    4  A    between atoms: C_5  and  C_6
REMARK    5  A    between atoms: C_5  and  C_10
REMARK    6  A    between atoms: C_6  and  C_7
REMARK    7  A    between atoms: C_10  and  N_11
REMARK    8  A    between atoms: N_11  and  C_12
REMARK    9  A    between atoms: N_11  and  C_13
REMARK   10  A    between atoms: N_11  and  C_14
REMARK                            x       y       z     vdW  Elec       q    Type
REMARK                         _______ _______ _______ _____ _____    ______ ____
ROOT
ATOM      1  C   UNL     1      -8.243  -2.586 124.605  0.00  0.00    +0.000 C 
ENDROOT
BRANCH   1   2
ATOM      2  O   UNL     1      -9.008  -3.145 125.701  0.00  0.00    +0.000 OA
BRANCH   2   4
ATOM      3  C   UNL     1      -8.962  -4.045 127.994  0.00  0.00    +0.000 C 
ATOM      4  C   UNL     1      -8.654  -2.963 126.998  0.00  0.00    +0.000 C 
ATOM      5  O   UNL     1      -8.119  -1.905 127.334  0.00  0.00    +0.000 OA
ENDBRANCH   2   4
ENDBRANCH   1   2
BRANCH   1   6
ATOM      6  C   UNL     1      -9.185  -2.385 123.437  0.00  0.00    +0.000 C 
BRANCH   6   7
ATOM      7  C   UNL     1      -9.284  -0.899 123.141  0.00  0.00    +0.000 C 
ATOM      8  O   UNL     1     -10.255  -0.556 122.409  0.00  0.00    +0.000 OA
ATOM      9  O   UNL     1      -8.389  -0.208 123.687  0.00  0.00    +0.000 OA
ENDBRANCH   6   7
ENDBRANCH   1   6
BRANCH   1  10
ATOM     10  C   UNL     1      -7.129  -3.578 124.161  0.00  0.00    +0.000 C 
BRANCH  10  11
ATOM     11  N   UNL     1      -5.766  -2.907 123.831  0.00  0.00    +0.000 N 
ATOM     12  C   UNL     1      -4.667  -3.956 123.881  0.00  0.00    +0.000 C 
ATOM     13  C   UNL     1      -5.804  -2.226 122.476  0.00  0.00    +0.000 C 
ATOM     14  C   UNL     1      -5.482  -1.851 124.891  0.00  0.00    +0.000 C 
ENDBRANCH  10  11
ENDBRANCH   1  10
TORSDOF 6
ENDMDL
MODEL 5
REMARK VINA RESULT:      -4.3      8.905     10.516
REMARK  Name = Acetylcarnitine
REMARK  10 active torsions:
REMARK  status: ('A' for Active; 'I' for Inactive)
REMARK    1  A    between atoms: C_1  and  C_2
REMARK    2  A    between atoms: C_2  and  O_4
REMARK    3  A    between atoms: O_4  and  C_5
REMARK    4  A    between atoms: C_5  and  C_6
REMARK    5  A    between atoms: C_5  and  C_10
REMARK    6  A    between atoms: C_6  and  C_7
REMARK    7  A    between atoms: C_10  and  N_11
REMARK    8  A    between atoms: N_11  and  C_12
REMARK    9  A    between atoms: N_11  and  C_13
REMARK   10  A    between atoms: N_11  and  C_14
REMARK                            x       y       z     vdW  Elec       q    Type
REMARK                         _______ _______ _______ _____ _____    ______ ____
ROOT
ATOM      1  C   UNL     1      -7.497  -0.978 123.847  0.00  0.00    +0.000 C 
ENDROOT
BRANCH   1   2
ATOM      2  O   UNL     1      -6.117  -1.360 123.629  0.00  0.00    +0.000 OA
BRANCH   2   4
ATOM      3  C   UNL     1      -4.699  -3.372 123.504  0.00  0.00    +0.000 C 
ATOM      4  C   UNL     1      -5.542  -2.403 124.282  0.00  0.00    +0.000 C 
ATOM      5  O   UNL     1      -5.752  -2.547 125.487  0.00  0.00    +0.000 OA
ENDBRANCH   2   4
ENDBRANCH   1   2
BRANCH   1   6
ATOM      6  C   UNL     1      -8.365  -1.858 122.972  0.00  0.00    +0.000 C 
BRANCH   6   7
ATOM      7  C   UNL     1      -9.356  -2.596 123.854  0.00  0.00    +0.000 C 
ATOM      8  O   UNL     1      -9.383  -2.230 125.063  0.00  0.00    +0.000 OA
ATOM      9  O   UNL     1     -10.032  -3.464 123.249  0.00  0.00    +0.000 OA
ENDBRANCH   6   7
ENDBRANCH   1   6
BRANCH   1  10
ATOM     10  C   UNL     1      -7.724   0.501 123.419  0.00  0.00    +0.000 C 
BRANCH  10  11
ATOM     11  N   UNL     1      -8.418   1.381 124.497  0.00  0.00    +0.000 N 
ATOM     12  C   UNL     1      -7.988   2.827 124.313  0.00  0.00    +0.000 C 
ATOM     13  C   UNL     1      -9.927   1.250 124.422  0.00  0.00    +0.000 C 
ATOM     14  C   UNL     1      -7.962   0.907 125.870  0.00  0.00    +0.000 C 
ENDBRANCH  10  11
ENDBRANCH   1  10
TORSDOF 6
ENDMDL
MODEL 6
REMARK VINA RESULT:      -4.3      9.195     11.108
REMARK  Name = Acetylcarnitine
REMARK  10 active torsions:
REMARK  status: ('A' for Active; 'I' for Inactive)
REMARK    1  A    between atoms: C_1  and  C_2
REMARK    2  A    between atoms: C_2  and  O_4
REMARK    3  A    between atoms: O_4  and  C_5
REMARK    4  A    between atoms: C_5  and  C_6
REMARK    5  A    between atoms: C_5  and  C_10
REMARK    6  A    between atoms: C_6  and  C_7
REMARK    7  A    between atoms: C_10  and  N_11
REMARK    8  A    between atoms: N_11  and  C_12
REMARK    9  A    between atoms: N_11  and  C_13
REMARK   10  A    between atoms: N_11  and  C_14
REMARK                            x       y       z     vdW  Elec       q    Type
REMARK                         _______ _______ _______ _____ _____    ______ ____
ROOT
ATOM      1  C   UNL     1      -6.975  -1.817 124.792  0.00  0.00    +0.000 C 
ENDROOT
BRANCH   1   2
ATOM      2  O   UNL     1      -7.855  -2.844 125.311  0.00  0.00    +0.000 OA
BRANCH   2   4
ATOM      3  C   UNL     1      -9.417  -3.200 123.439  0.00  0.00    +0.000 C 
ATOM      4  C   UNL     1      -9.142  -2.972 124.898  0.00  0.00    +0.000 C 
ATOM      5  O   UNL     1     -10.052  -2.865 125.721  0.00  0.00    +0.000 OA
ENDBRANCH   2   4
ENDBRANCH   1   2
BRANCH   1   6
ATOM      6  C   UNL     1      -5.562  -2.361 124.817  0.00  0.00    +0.000 C 
BRANCH   6   7
ATOM      7  C   UNL     1      -5.203  -2.851 123.425  0.00  0.00    +0.000 C 
ATOM      8  O   UNL     1      -5.819  -2.288 122.477  0.00  0.00    +0.000 OA
ATOM      9  O   UNL     1      -4.320  -3.743 123.409  0.00  0.00    +0.000 OA
ENDBRANCH   6   7
ENDBRANCH   1   6
BRANCH   1  10
ATOM     10  C   UNL     1      -7.021  -0.555 125.700  0.00  0.00    +0.000 C 
BRANCH  10  11
ATOM     11  N   UNL     1      -7.861   0.620 125.123  0.00  0.00    +0.000 N 
ATOM     12  C   UNL     1      -7.129   1.928 125.374  0.00  0.00    +0.000 C 
ATOM     13  C   UNL     1      -8.131   0.426 123.643  0.00  0.00    +0.000 C 
ATOM     14  C   UNL     1      -9.197   0.659 125.854  0.00  0.00    +0.000 C 
ENDBRANCH  10  11
ENDBRANCH   1  10
TORSDOF 6
ENDMDL
MODEL 7
REMARK VINA RESULT:      -4.3      1.738      2.279
REMARK  Name = Acetylcarnitine
REMARK  10 active torsions:
REMARK  status: ('A' for Active; 'I' for Inactive)
REMARK    1  A    between atoms: C_1  and  C_2
REMARK    2  A    between atoms: C_2  and  O_4
REMARK    3  A    between atoms: O_4  and  C_5
REMARK    4  A    between atoms: C_5  and  C_6
REMARK    5  A    between atoms: C_5  and  C_10
REMARK    6  A    between atoms: C_6  and  C_7
REMARK    7  A    between atoms: C_10  and  N_11
REMARK    8  A    between atoms: N_11  and  C_12
REMARK    9  A    between atoms: N_11  and  C_13
REMARK   10  A    between atoms: N_11  and  C_14
REMARK                            x       y       z     vdW  Elec       q    Type
REMARK                         _______ _______ _______ _____ _____    ______ ____
ROOT
ATOM      1  C   UNL     1      -9.440   6.237 130.081  0.00  0.00    +0.000 C 
ENDROOT
BRANCH   1   2
ATOM      2  O   UNL     1      -9.495   7.383 129.196  0.00  0.00    +0.000 OA
BRANCH   2   4
ATOM      3  C   UNL     1     -11.311   8.372 127.857  0.00  0.00    +0.000 C 
ATOM      4  C   UNL     1     -10.206   7.372 128.040  0.00  0.00    +0.000 C 
ATOM      5  O   UNL     1      -9.950   6.524 127.184  0.00  0.00    +0.000 OA
ENDBRANCH   2   4
ENDBRANCH   1   2
BRANCH   1   6
ATOM      6  C   UNL     1     -10.272   6.556 131.305  0.00  0.00    +0.000 C 
BRANCH   6   7
ATOM      7  C   UNL     1     -11.686   6.054 131.078  0.00  0.00    +0.000 C 
ATOM      8  O   UNL     1     -12.588   6.667 131.716  0.00  0.00    +0.000 OA
ATOM      9  O   UNL     1     -11.766   5.101 130.265  0.00  0.00    +0.000 OA
ENDBRANCH   6   7
ENDBRANCH   1   6
BRANCH   1  10
ATOM     10  C   UNL     1      -7.977   5.980 130.545  0.00  0.00    +0.000 C 
BRANCH  10  11
ATOM     11  N   UNL     1      -7.469   4.532 130.293  0.00  0.00    +0.000 N 
ATOM     12  C   UNL     1      -7.158   3.873 131.626  0.00  0.00    +0.000 C 
ATOM     13  C   UNL     1      -8.486   3.723 129.512  0.00  0.00    +0.000 C 
ATOM     14  C   UNL     1      -6.187   4.610 129.475  0.00  0.00    +0.000 C 
ENDBRANCH  10  11
ENDBRANCH   1  10
TORSDOF 6
ENDMDL
MODEL 8
REMARK VINA RESULT:      -4.2      8.468      9.919
REMARK  Name = Acetylcarnitine
REMARK  10 active torsions:
REMARK  status: ('A' for Active; 'I' for Inactive)
REMARK    1  A    between atoms: C_1  and  C_2
REMARK    2  A    between atoms: C_2  and  O_4
REMARK    3  A    between atoms: O_4  and  C_5
REMARK    4  A    between atoms: C_5  and  C_6
REMARK    5  A    between atoms: C_5  and  C_10
REMARK    6  A    between atoms: C_6  and  C_7
REMARK    7  A    between atoms: C_10  and  N_11
REMARK    8  A    between atoms: N_11  and  C_12
REMARK    9  A    between atoms: N_11  and  C_13
REMARK   10  A    between atoms: N_11  and  C_14
REMARK                            x       y       z     vdW  Elec       q    Type
REMARK                         _______ _______ _______ _____ _____    ______ ____
ROOT
ATOM      1  C   UNL     1      -8.655  -0.852 124.802  0.00  0.00    +0.000 C 
ENDROOT
BRANCH   1   2
ATOM      2  O   UNL     1      -9.695   0.117 124.527  0.00  0.00    +0.000 OA
BRANCH   2   4
ATOM      3  C   UNL     1      -9.082   1.918 122.961  0.00  0.00    +0.000 C 
ATOM      4  C   UNL     1      -9.857   0.677 123.301  0.00  0.00    +0.000 C 
ATOM      5  O   UNL     1     -10.658   0.175 122.511  0.00  0.00    +0.000 OA
ENDBRANCH   2   4
ENDBRANCH   1   2
BRANCH   1   6
ATOM      6  C   UNL     1      -9.318  -2.103 125.341  0.00  0.00    +0.000 C 
BRANCH   6   7
ATOM      7  C   UNL     1      -9.162  -3.216 124.320  0.00  0.00    +0.000 C 
ATOM      8  O   UNL     1      -9.930  -3.144 123.320  0.00  0.00    +0.000 OA
ATOM      9  O   UNL     1      -8.269  -4.050 124.606  0.00  0.00    +0.000 OA
ENDBRANCH   6   7
ENDBRANCH   1   6
BRANCH   1  10
ATOM     10  C   UNL     1      -7.685  -0.313 125.893  0.00  0.00    +0.000 C 
BRANCH  10  11
ATOM     11  N   UNL     1      -6.224  -0.829 125.764  0.00  0.00    +0.000 N 
ATOM     12  C   UNL     1      -6.000  -1.952 126.763  0.00  0.00    +0.000 C 
ATOM     13  C   UNL     1      -5.930  -1.294 124.351  0.00  0.00    +0.000 C 
ATOM     14  C   UNL     1      -5.279   0.318 126.098  0.00  0.00    +0.000 C 
ENDBRANCH  10  11
ENDBRANCH   1  10
TORSDOF 6
ENDMDL
MODEL 9
REMARK VINA RESULT:      -4.2      7.451      9.121
REMARK  Name = Acetylcarnitine
REMARK  10 active torsions:
REMARK  status: ('A' for Active; 'I' for Inactive)
REMARK    1  A    between atoms: C_1  and  C_2
REMARK    2  A    between atoms: C_2  and  O_4
REMARK    3  A    between atoms: O_4  and  C_5
REMARK    4  A    between atoms: C_5  and  C_6
REMARK    5  A    between atoms: C_5  and  C_10
REMARK    6  A    between atoms: C_6  and  C_7
REMARK    7  A    between atoms: C_10  and  N_11
REMARK    8  A    between atoms: N_11  and  C_12
REMARK    9  A    between atoms: N_11  and  C_13
REMARK   10  A    between atoms: N_11  and  C_14
REMARK                            x       y       z     vdW  Elec       q    Type
REMARK                         _______ _______ _______ _____ _____    ______ ____
ROOT
ATOM      1  C   UNL     1      -9.029   0.173 124.322  0.00  0.00    +0.000 C 
ENDROOT
BRANCH   1   2
ATOM      2  O   UNL     1      -9.652  -0.874 123.539  0.00  0.00    +0.000 OA
BRANCH   2   4
ATOM      3  C   UNL     1      -9.530  -3.335 123.508  0.00  0.00    +0.000 C 
ATOM      4  C   UNL     1      -8.977  -1.985 123.148  0.00  0.00    +0.000 C 
ATOM      5  O   UNL     1      -7.915  -1.861 122.538  0.00  0.00    +0.000 OA
ENDBRANCH   2   4
ENDBRANCH   1   2
BRANCH   1   6
ATOM      6  C   UNL     1      -9.508   0.031 125.751  0.00  0.00    +0.000 C 
BRANCH   6   7
ATOM      7  C   UNL     1      -8.559   0.791 126.661  0.00  0.00    +0.000 C 
ATOM      8  O   UNL     1      -9.098   1.666 127.396  0.00  0.00    +0.000 OA
ATOM      9  O   UNL     1      -7.362   0.425 126.571  0.00  0.00    +0.000 OA
ENDBRANCH   6   7
ENDBRANCH   1   6
BRANCH   1  10
ATOM     10  C   UNL     1      -9.469   1.573 123.803  0.00  0.00    +0.000 C 
BRANCH  10  11
ATOM     11  N   UNL     1      -8.295   2.489 123.354  0.00  0.00    +0.000 N 
ATOM     12  C   UNL     1      -8.631   3.108 122.008  0.00  0.00    +0.000 C 
ATOM     13  C   UNL     1      -8.011   3.561 124.389  0.00  0.00    +0.000 C 
ATOM     14  C   UNL     1      -7.047   1.630 123.200  0.00  0.00    +0.000 C 
ENDBRANCH  10  11
ENDBRANCH   1  10
TORSDOF 6
ENDMDL
