MODEL 1
REMARK VINA RESULT:      -6.0      0.000      0.000
REMARK  Name = Acetazolamide
REMARK  3 active torsions:
REMARK  status: ('A' for Active; 'I' for Inactive)
REMARK    1  A    between atoms: C_1  and  C_2
REMARK    2  A    between atoms: C_8  and  S_10
REMARK    3  A    between atoms: S_10  and  N_11
REMARK                            x       y       z     vdW  Elec       q    Type
REMARK                         _______ _______ _______ _____ _____    ______ ____
ROOT
ATOM      1  C   UNL     1      -8.564   4.939 134.138  0.00  0.00    +0.000 C 
ATOM      2  C   UNL     1      -9.137   5.702 132.961  0.00  0.00    +0.000 C 
ATOM      3  O   UNL     1      -8.415   6.456 132.314  0.00  0.00    +0.000 OA
ATOM      4  N   UNL     1     -10.487   5.509 132.739  0.00  0.00    +0.000 N 
ATOM      5  C   UNL     1     -11.168   6.240 131.777  0.00  0.00    +0.000 A 
ATOM      6  N   UNL     1     -12.393   6.700 131.921  0.00  0.00    +0.000 NA
ATOM      7  N   UNL     1     -12.845   7.355 130.780  0.00  0.00    +0.000 NA
ATOM      8  C   UNL     1     -11.964   7.279 129.800  0.00  0.00    +0.000 A 
ATOM      9  S   UNL     1     -10.534   6.433 130.194  0.00  0.00    +0.000 S 
ATOM     10  H   UNL     1     -11.059   5.181 133.507  0.00  0.00    +0.000 HD
ENDROOT
BRANCH   8  11
ATOM     11  S   UNL     1     -12.234   7.880 128.148  0.00  0.00    +0.000 S 
ATOM     12  O   UNL     1     -12.300   6.717 127.300  0.00  0.00    +0.000 OA
ATOM     13  O   UNL     1     -13.303   8.860 128.210  0.00  0.00    +0.000 OA
BRANCH  11  14
ATOM     14  N   UNL     1     -10.857   8.737 127.672  0.00  0.00    +0.000 NA
ATOM     15  H   UNL     1     -10.453   9.276 128.436  0.00  0.00    +0.000 HD
ATOM     16  H   UNL     1     -10.974   9.231 126.789  0.00  0.00    +0.000 HD
ENDBRANCH  11  14
ENDBRANCH   8  11
TORSDOF 2
ENDMDL
MODEL 2
REMARK VINA RESULT:      -5.9      1.736      1.826
REMARK  Name = Acetazolamide
REMARK  3 active torsions:
REMARK  status: ('A' for Active; 'I' for Inactive)
REMARK    1  A    between atoms: C_1  and  C_2
REMARK    2  A    between atoms: C_8  and  S_10
REMARK    3  A    between atoms: S_10  and  N_11
REMARK                            x       y       z     vdW  Elec       q    Type
REMARK                         _______ _______ _______ _____ _____    ______ ____
ROOT
ATOM      1  C   UNL     1      -8.835   4.184 134.025  0.00  0.00    +0.000 C 
ATOM      2  C   UNL     1      -9.401   5.074 132.937  0.00  0.00    +0.000 C 
ATOM      3  O   UNL     1      -9.420   6.292 133.094  0.00  0.00    +0.000 OA
ATOM      4  N   UNL     1      -9.907   4.405 131.838  0.00  0.00    +0.000 N 
ATOM      5  C   UNL     1     -10.569   5.085 130.827  0.00  0.00    +0.000 A 
ATOM      6  N   UNL     1     -11.632   4.632 130.197  0.00  0.00    +0.000 NA
ATOM      7  N   UNL     1     -12.059   5.499 129.196  0.00  0.00    +0.000 NA
ATOM      8  C   UNL     1     -11.238   6.524 129.065  0.00  0.00    +0.000 A 
ATOM      9  S   UNL     1      -9.917   6.521 130.147  0.00  0.00    +0.000 S 
ATOM     10  H   UNL     1     -10.180   3.437 131.947  0.00  0.00    +0.000 HD
ENDROOT
BRANCH   8  11
ATOM     11  S   UNL     1     -11.374   7.775 127.807  0.00  0.00    +0.000 S 
ATOM     12  O   UNL     1     -12.692   8.339 127.939  0.00  0.00    +0.000 OA
ATOM     13  O   UNL     1     -10.171   8.584 127.865  0.00  0.00    +0.000 OA
BRANCH  11  14
ATOM     14  N   UNL     1     -11.335   7.007 126.301  0.00  0.00    +0.000 NA
ATOM     15  H   UNL     1     -12.233   7.046 125.823  0.00  0.00    +0.000 HD
ATOM     16  H   UNL     1     -10.880   6.097 126.324  0.00  0.00    +0.000 HD
ENDBRANCH  11  14
ENDBRANCH   8  11
TORSDOF 2
ENDMDL
MODEL 3
REMARK VINA RESULT:      -5.8      3.021      5.402
REMARK  Name = Acetazolamide
REMARK  3 active torsions:
REMARK  status: ('A' for Active; 'I' for Inactive)
REMARK    1  A    between atoms: C_1  and  C_2
REMARK    2  A    between atoms: C_8  and  S_10
REMARK    3  A    between atoms: S_10  and  N_11
REMARK                            x       y       z     vdW  Elec       q    Type
REMARK                         _______ _______ _______ _____ _____    ______ ____
ROOT
ATOM      1  C   UNL     1     -13.887  11.374 128.958  0.00  0.00    +0.000 C 
ATOM      2  C   UNL     1     -13.112  10.168 129.446  0.00  0.00    +0.000 C 
ATOM      3  O   UNL     1     -13.102   9.893 130.643  0.00  0.00    +0.000 OA
ATOM      4  N   UNL     1     -12.419   9.482 128.467  0.00  0.00    +0.000 N 
ATOM      5  C   UNL     1     -11.567   8.436 128.789  0.00  0.00    +0.000 A 
ATOM      6  N   UNL     1     -10.412   8.208 128.201  0.00  0.00    +0.000 NA
ATOM      7  N   UNL     1      -9.790   7.064 128.691  0.00  0.00    +0.000 NA
ATOM      8  C   UNL     1     -10.554   6.437 129.566  0.00  0.00    +0.000 A 
ATOM      9  S   UNL     1     -12.055   7.193 129.869  0.00  0.00    +0.000 S 
ATOM     10  H   UNL     1     -12.187   9.968 127.610  0.00  0.00    +0.000 HD
ENDROOT
BRANCH   8  11
ATOM     11  S   UNL     1     -10.163   4.871 130.312  0.00  0.00    +0.000 S 
ATOM     12  O   UNL     1      -9.204   4.238 129.444  0.00  0.00    +0.000 OA
ATOM     13  O   UNL     1      -9.901   5.112 131.719  0.00  0.00    +0.000 OA
BRANCH  11  14
ATOM     14  N   UNL     1     -11.552   3.909 130.266  0.00  0.00    +0.000 NA
ATOM     15  H   UNL     1     -11.357   2.935 130.493  0.00  0.00    +0.000 HD
ATOM     16  H   UNL     1     -12.126   4.068 129.441  0.00  0.00    +0.000 HD
ENDBRANCH  11  14
ENDBRANCH   8  11
TORSDOF 2
ENDMDL
MODEL 4
REMARK VINA RESULT:      -5.6      2.528      2.943
REMARK  Name = Acetazolamide
REMARK  3 active torsions:
REMARK  status: ('A' for Active; 'I' for Inactive)
REMARK    1  A    between atoms: C_1  and  C_2
REMARK    2  A    between atoms: C_8  and  S_10
REMARK    3  A    between atoms: S_10  and  N_11
REMARK                            x       y       z     vdW  Elec       q    Type
REMARK                         _______ _______ _______ _____ _____    ______ ____
ROOT
ATOM      1  C   UNL     1      -4.751   6.314 131.819  0.00  0.00    +0.000 C 
ATOM      2  C   UNL     1      -6.182   6.635 131.440  0.00  0.00    +0.000 C 
ATOM      3  O   UNL     1      -6.410   7.499 130.597  0.00  0.00    +0.000 OA
ATOM      4  N   UNL     1      -7.145   5.930 132.137  0.00  0.00    +0.000 N 
ATOM      5  C   UNL     1      -8.494   6.212 131.984  0.00  0.00    +0.000 A 
ATOM      6  N   UNL     1      -9.372   6.206 132.964  0.00  0.00    +0.000 NA
ATOM      7  N   UNL     1     -10.661   6.478 132.516  0.00  0.00    +0.000 NA
ATOM      8  C   UNL     1     -10.700   6.589 131.201  0.00  0.00    +0.000 A 
ATOM      9  S   UNL     1      -9.191   6.394 130.425  0.00  0.00    +0.000 S 
ATOM     10  H   UNL     1      -6.894   5.530 133.033  0.00  0.00    +0.000 HD
ENDROOT
BRANCH   8  11
ATOM     11  S   UNL     1     -12.187   6.803 130.248  0.00  0.00    +0.000 S 
ATOM     12  O   UNL     1     -12.232   5.706 129.317  0.00  0.00    +0.000 OA
ATOM     13  O   UNL     1     -13.265   7.079 131.180  0.00  0.00    +0.000 OA
BRANCH  11  14
ATOM     14  N   UNL     1     -12.015   8.206 129.321  0.00  0.00    +0.000 NA
ATOM     15  H   UNL     1     -11.696   8.999 129.874  0.00  0.00    +0.000 HD
ATOM     16  H   UNL     1     -12.805   8.380 128.703  0.00  0.00    +0.000 HD
ENDBRANCH  11  14
ENDBRANCH   8  11
TORSDOF 2
ENDMDL
MODEL 5
REMARK VINA RESULT:      -5.5      2.045      2.308
REMARK  Name = Acetazolamide
REMARK  3 active torsions:
REMARK  status: ('A' for Active; 'I' for Inactive)
REMARK    1  A    between atoms: C_1  and  C_2
REMARK    2  A    between atoms: C_8  and  S_10
REMARK    3  A    between atoms: S_10  and  N_11
REMARK                            x       y       z     vdW  Elec       q    Type
REMARK                         _______ _______ _______ _____ _____    ______ ____
ROOT
ATOM      1  C   UNL     1      -8.885   3.633 133.594  0.00  0.00    +0.000 C 
ATOM      2  C   UNL     1      -9.413   4.260 132.320  0.00  0.00    +0.000 C 
ATOM      3  O   UNL     1      -9.966   3.558 131.478  0.00  0.00    +0.000 OA
ATOM      4  N   UNL     1      -9.176   5.616 132.193  0.00  0.00    +0.000 N 
ATOM      5  C   UNL     1      -9.490   6.293 131.025  0.00  0.00    +0.000 A 
ATOM      6  N   UNL     1      -8.752   7.246 130.494  0.00  0.00    +0.000 NA
ATOM      7  N   UNL     1      -9.332   7.783 129.350  0.00  0.00    +0.000 NA
ATOM      8  C   UNL     1     -10.525   7.265 129.125  0.00  0.00    +0.000 A 
ATOM      9  S   UNL     1     -11.015   6.088 130.262  0.00  0.00    +0.000 S 
ATOM     10  H   UNL     1      -8.423   6.025 132.731  0.00  0.00    +0.000 HD
ENDROOT
BRANCH   8  11
ATOM     11  S   UNL     1     -11.630   7.792 127.835  0.00  0.00    +0.000 S 
ATOM     12  O   UNL     1     -10.801   8.327 126.786  0.00  0.00    +0.000 OA
ATOM     13  O   UNL     1     -12.578   6.717 127.607  0.00  0.00    +0.000 OA
BRANCH  11  14
ATOM     14  N   UNL     1     -12.543   9.086 128.424  0.00  0.00    +0.000 NA
ATOM     15  H   UNL     1     -11.962   9.813 128.840  0.00  0.00    +0.000 HD
ATOM     16  H   UNL     1     -13.351   8.795 128.970  0.00  0.00    +0.000 HD
ENDBRANCH  11  14
ENDBRANCH   8  11
TORSDOF 2
ENDMDL
MODEL 6
REMARK VINA RESULT:      -5.4     10.605     11.024
REMARK  Name = Acetazolamide
REMARK  3 active torsions:
REMARK  status: ('A' for Active; 'I' for Inactive)
REMARK    1  A    between atoms: C_1  and  C_2
REMARK    2  A    between atoms: C_8  and  S_10
REMARK    3  A    between atoms: S_10  and  N_11
REMARK                            x       y       z     vdW  Elec       q    Type
REMARK                         _______ _______ _______ _____ _____    ______ ____
ROOT
ATOM      1  C   UNL     1      -4.371  -3.865 123.606  0.00  0.00    +0.000 C 
ATOM      2  C   UNL     1      -5.469  -2.899 123.998  0.00  0.00    +0.000 C 
ATOM      3  O   UNL     1      -5.599  -2.567 125.173  0.00  0.00    +0.000 OA
ATOM      4  N   UNL     1      -6.292  -2.495 122.963  0.00  0.00    +0.000 N 
ATOM      5  C   UNL     1      -7.413  -1.714 123.199  0.00  0.00    +0.000 A 
ATOM      6  N   UNL     1      -8.564  -1.856 122.576  0.00  0.00    +0.000 NA
ATOM      7  N   UNL     1      -9.498  -0.906 122.976  0.00  0.00    +0.000 NA
ATOM      8  C   UNL     1      -8.971  -0.038 123.821  0.00  0.00    +0.000 A 
ATOM      9  S   UNL     1      -7.330  -0.322 124.200  0.00  0.00    +0.000 S 
ATOM     10  H   UNL     1      -6.347  -3.077 122.136  0.00  0.00    +0.000 HD
ENDROOT
BRANCH   8  11
ATOM     11  S   UNL     1      -9.812   1.396 124.453  0.00  0.00    +0.000 S 
ATOM     12  O   UNL     1     -11.197   1.246 124.090  0.00  0.00    +0.000 OA
ATOM     13  O   UNL     1      -9.381   1.584 125.826  0.00  0.00    +0.000 OA
BRANCH  11  14
ATOM     14  N   UNL     1      -9.245   2.747 123.609  0.00  0.00    +0.000 NA
ATOM     15  H   UNL     1      -8.834   3.445 124.227  0.00  0.00    +0.000 HD
ATOM     16  H   UNL     1      -9.904   3.097 122.917  0.00  0.00    +0.000 HD
ENDBRANCH  11  14
ENDBRANCH   8  11
TORSDOF 2
ENDMDL
MODEL 7
REMARK VINA RESULT:      -5.3     10.624     11.057
REMARK  Name = Acetazolamide
REMARK  3 active torsions:
REMARK  status: ('A' for Active; 'I' for Inactive)
REMARK    1  A    between atoms: C_1  and  C_2
REMARK    2  A    between atoms: C_8  and  S_10
REMARK    3  A    between atoms: S_10  and  N_11
REMARK                            x       y       z     vdW  Elec       q    Type
REMARK                         _______ _______ _______ _____ _____    ______ ____
ROOT
ATOM      1  C   UNL     1      -4.494  -4.223 123.960  0.00  0.00    +0.000 C 
ATOM      2  C   UNL     1      -5.434  -3.080 123.638  0.00  0.00    +0.000 C 
ATOM      3  O   UNL     1      -5.427  -2.581 122.516  0.00  0.00    +0.000 OA
ATOM      4  N   UNL     1      -6.218  -2.651 124.693  0.00  0.00    +0.000 N 
ATOM      5  C   UNL     1      -7.030  -1.533 124.577  0.00  0.00    +0.000 A 
ATOM      6  N   UNL     1      -7.216  -0.645 125.531  0.00  0.00    +0.000 NA
ATOM      7  N   UNL     1      -8.118   0.345 125.157  0.00  0.00    +0.000 NA
ATOM      8  C   UNL     1      -8.634   0.104 123.966  0.00  0.00    +0.000 A 
ATOM      9  S   UNL     1      -8.052  -1.316 123.215  0.00  0.00    +0.000 S 
ATOM     10  H   UNL     1      -5.910  -2.855 125.636  0.00  0.00    +0.000 HD
ENDROOT
BRANCH   8  11
ATOM     11  S   UNL     1      -9.917   1.070 123.203  0.00  0.00    +0.000 S 
ATOM     12  O   UNL     1      -9.304   2.308 122.797  0.00  0.00    +0.000 OA
ATOM     13  O   UNL     1     -10.619   0.206 122.273  0.00  0.00    +0.000 OA
BRANCH  11  14
ATOM     14  N   UNL     1     -11.047   1.470 124.395  0.00  0.00    +0.000 NA
ATOM     15  H   UNL     1     -10.886   2.397 124.787  0.00  0.00    +0.000 HD
ATOM     16  H   UNL     1     -11.207   0.723 125.068  0.00  0.00    +0.000 HD
ENDBRANCH  11  14
ENDBRANCH   8  11
TORSDOF 2
ENDMDL
MODEL 8
REMARK VINA RESULT:      -4.9      8.764      9.624
REMARK  Name = Acetazolamide
REMARK  3 active torsions:
REMARK  status: ('A' for Active; 'I' for Inactive)
REMARK    1  A    between atoms: C_1  and  C_2
REMARK    2  A    between atoms: C_8  and  S_10
REMARK    3  A    between atoms: S_10  and  N_11
REMARK                            x       y       z     vdW  Elec       q    Type
REMARK                         _______ _______ _______ _____ _____    ______ ____
ROOT
ATOM      1  C   UNL     1      -9.394  -2.446 123.228  0.00  0.00    +0.000 C 
ATOM      2  C   UNL     1      -8.625  -1.211 123.650  0.00  0.00    +0.000 C 
ATOM      3  O   UNL     1      -7.511  -1.329 124.153  0.00  0.00    +0.000 OA
ATOM      4  N   UNL     1      -9.292  -0.014 123.465  0.00  0.00    +0.000 N 
ATOM      5  C   UNL     1      -8.760   1.182 123.924  0.00  0.00    +0.000 A 
ATOM      6  N   UNL     1      -9.467   2.153 124.463  0.00  0.00    +0.000 NA
ATOM      7  N   UNL     1      -8.682   3.256 124.787  0.00  0.00    +0.000 NA
ATOM      8  C   UNL     1      -7.433   3.091 124.393  0.00  0.00    +0.000 A 
ATOM      9  S   UNL     1      -7.120   1.596 123.628  0.00  0.00    +0.000 S 
ATOM     10  H   UNL     1     -10.302  -0.031 123.397  0.00  0.00    +0.000 HD
ENDROOT
BRANCH   8  11
ATOM     11  S   UNL     1      -6.164   4.331 124.510  0.00  0.00    +0.000 S 
ATOM     12  O   UNL     1      -5.255   3.883 125.534  0.00  0.00    +0.000 OA
ATOM     13  O   UNL     1      -5.728   4.638 123.160  0.00  0.00    +0.000 OA
BRANCH  11  14
ATOM     14  N   UNL     1      -6.872   5.750 125.094  0.00  0.00    +0.000 NA
ATOM     15  H   UNL     1      -7.828   5.604 125.414  0.00  0.00    +0.000 HD
ATOM     16  H   UNL     1      -6.723   6.555 124.488  0.00  0.00    +0.000 HD
ENDBRANCH  11  14
ENDBRANCH   8  11
TORSDOF 2
ENDMDL
MODEL 9
REMARK VINA RESULT:      -4.7      9.002      9.524
REMARK  Name = Acetazolamide
REMARK  3 active torsions:
REMARK  status: ('A' for Active; 'I' for Inactive)
REMARK    1  A    between atoms: C_1  and  C_2
REMARK    2  A    between atoms: C_8  and  S_10
REMARK    3  A    between atoms: S_10  and  N_11
REMARK                            x       y       z     vdW  Elec       q    Type
REMARK                         _______ _______ _______ _____ _____    ______ ____
ROOT
ATOM      1  C   UNL     1      -8.996  -4.009 127.581  0.00  0.00    +0.000 C 
ATOM      2  C   UNL     1      -8.964  -2.807 126.659  0.00  0.00    +0.000 C 
ATOM      3  O   UNL     1      -9.793  -2.708 125.758  0.00  0.00    +0.000 OA
ATOM      4  N   UNL     1      -7.935  -1.915 126.895  0.00  0.00    +0.000 N 
ATOM      5  C   UNL     1      -7.709  -0.840 126.049  0.00  0.00    +0.000 A 
ATOM      6  N   UNL     1      -6.517  -0.404 125.700  0.00  0.00    +0.000 NA
ATOM      7  N   UNL     1      -6.587   0.719 124.883  0.00  0.00    +0.000 NA
ATOM      8  C   UNL     1      -7.833   1.126 124.728  0.00  0.00    +0.000 A 
ATOM      9  S   UNL     1      -8.997   0.174 125.537  0.00  0.00    +0.000 S 
ATOM     10  H   UNL     1      -7.116  -2.246 127.389  0.00  0.00    +0.000 HD
ENDROOT
BRANCH   8  11
ATOM     11  S   UNL     1      -8.315   2.602 123.861  0.00  0.00    +0.000 S 
ATOM     12  O   UNL     1      -7.101   3.192 123.360  0.00  0.00    +0.000 OA
ATOM     13  O   UNL     1      -9.428   2.255 122.996  0.00  0.00    +0.000 OA
BRANCH  11  14
ATOM     14  N   UNL     1      -8.940   3.691 124.992  0.00  0.00    +0.000 NA
ATOM     15  H   UNL     1      -8.757   3.402 125.952  0.00  0.00    +0.000 HD
ATOM     16  H   UNL     1      -9.894   3.983 124.788  0.00  0.00    +0.000 HD
ENDBRANCH  11  14
ENDBRANCH   8  11
TORSDOF 2
ENDMDL
