MODEL 1
REMARK VINA RESULT:      -7.6      0.000      0.000
REMARK  Name = Acetyl sulfisoxazole
REMARK  7 active torsions:
REMARK  status: ('A' for Active; 'I' for Inactive)
REMARK    1  A    between atoms: C_1  and  C_2
REMARK    2  A    between atoms: N_4  and  C_5
REMARK    3  A    between atoms: N_4  and  S_12
REMARK    4  A    between atoms: C_6  and  C_7
REMARK    5  A    between atoms: C_8  and  C_9
REMARK    6  A    between atoms: S_12  and  C_15
REMARK    7  A    between atoms: C_18  and  N_19
REMARK                            x       y       z     vdW  Elec       q    Type
REMARK                         _______ _______ _______ _____ _____    ______ ____
ROOT
ATOM      1  S   UNL     1      -8.254   2.668 123.495  0.00  0.00    +0.000 S 
ATOM      2  O   UNL     1      -9.425   2.013 122.933  0.00  0.00    +0.000 OA
ATOM      3  O   UNL     1      -8.389   3.804 124.383  0.00  0.00    +0.000 OA
ENDROOT
BRANCH   1   4
ATOM      4  C   UNL     1      -7.364   3.282 122.041  0.00  0.00    +0.000 A 
ATOM      5  C   UNL     1      -6.009   3.591 122.151  0.00  0.00    +0.000 A 
ATOM      6  C   UNL     1      -5.370   4.298 121.124  0.00  0.00    +0.000 A 
ATOM      7  C   UNL     1      -6.034   4.620 119.934  0.00  0.00    +0.000 A 
ATOM      8  C   UNL     1      -7.386   4.273 119.814  0.00  0.00    +0.000 A 
ATOM      9  C   UNL     1      -8.053   3.591 120.852  0.00  0.00    +0.000 A 
BRANCH   7  10
ATOM     10  N   UNL     1      -5.440   5.501 119.024  0.00  0.00    +0.000 N 
ATOM     11  H   UNL     1      -4.565   5.916 119.336  0.00  0.00    +0.000 HD
ATOM     12  H   UNL     1      -5.395   5.178 118.063  0.00  0.00    +0.000 HD
ENDBRANCH   7  10
ENDBRANCH   1   4
BRANCH   1  16
ATOM     13  C   UNL     1      -5.499   0.871 125.991  0.00  0.00    +0.000 C 
ATOM     14  C   UNL     1      -6.350   1.905 125.281  0.00  0.00    +0.000 C 
ATOM     15  O   UNL     1      -6.154   3.093 125.534  0.00  0.00    +0.000 OA
ATOM     16  N   UNL     1      -7.316   1.495 124.305  0.00  0.00    +0.000 N 
BRANCH  16  17
ATOM     17  C   UNL     1      -7.392   0.112 123.968  0.00  0.00    +0.000 A 
ATOM     18  C   UNL     1      -8.151  -0.877 124.561  0.00  0.00    +0.000 A 
ATOM     19  C   UNL     1      -9.113  -0.797 125.675  0.00  0.00    +0.000 C 
ATOM     20  C   UNL     1      -7.787  -2.068 123.880  0.00  0.00    +0.000 A 
ATOM     21  C   UNL     1      -8.271  -3.441 124.156  0.00  0.00    +0.000 C 
ATOM     22  N   UNL     1      -6.920  -1.819 122.895  0.00  0.00    +0.000 NA
ATOM     23  O   UNL     1      -6.695  -0.456 122.935  0.00  0.00    +0.000 OA
ENDBRANCH  16  17
ENDBRANCH   1  16
TORSDOF 4
ENDMDL
MODEL 2
REMARK VINA RESULT:      -7.3      7.398      9.126
REMARK  Name = Acetyl sulfisoxazole
REMARK  7 active torsions:
REMARK  status: ('A' for Active; 'I' for Inactive)
REMARK    1  A    between atoms: C_1  and  C_2
REMARK    2  A    between atoms: N_4  and  C_5
REMARK    3  A    between atoms: N_4  and  S_12
REMARK    4  A    between atoms: C_6  and  C_7
REMARK    5  A    between atoms: C_8  and  C_9
REMARK    6  A    between atoms: S_12  and  C_15
REMARK    7  A    between atoms: C_18  and  N_19
REMARK                            x       y       z     vdW  Elec       q    Type
REMARK                         _______ _______ _______ _____ _____    ______ ____
ROOT
ATOM      1  S   UNL     1      -8.889   6.575 130.876  0.00  0.00    +0.000 S 
ATOM      2  O   UNL     1      -9.331   6.368 132.246  0.00  0.00    +0.000 OA
ATOM      3  O   UNL     1      -7.794   7.473 130.572  0.00  0.00    +0.000 OA
ENDROOT
BRANCH   1   4
ATOM      4  C   UNL     1     -10.344   7.274 130.055  0.00  0.00    +0.000 A 
ATOM      5  C   UNL     1     -10.198   7.880 128.806  0.00  0.00    +0.000 A 
ATOM      6  C   UNL     1     -11.247   8.643 128.276  0.00  0.00    +0.000 A 
ATOM      7  C   UNL     1     -12.485   8.735 128.922  0.00  0.00    +0.000 A 
ATOM      8  C   UNL     1     -12.638   8.093 130.157  0.00  0.00    +0.000 A 
ATOM      9  C   UNL     1     -11.582   7.349 130.722  0.00  0.00    +0.000 A 
BRANCH   7  10
ATOM     10  N   UNL     1     -13.431   9.665 128.478  0.00  0.00    +0.000 N 
ATOM     11  H   UNL     1     -13.083  10.613 128.366  0.00  0.00    +0.000 HD
ATOM     12  H   UNL     1     -14.009   9.369 127.697  0.00  0.00    +0.000 HD
ENDBRANCH   7  10
ENDBRANCH   1   4
BRANCH   1  16
ATOM     13  C   UNL     1      -9.111   2.624 129.696  0.00  0.00    +0.000 C 
ATOM     14  C   UNL     1      -9.450   3.981 130.279  0.00  0.00    +0.000 C 
ATOM     15  O   UNL     1     -10.528   4.113 130.856  0.00  0.00    +0.000 OA
ATOM     16  N   UNL     1      -8.506   5.056 130.197  0.00  0.00    +0.000 N 
BRANCH  16  17
ATOM     17  C   UNL     1      -7.225   4.790 129.632  0.00  0.00    +0.000 A 
ATOM     18  C   UNL     1      -6.071   4.380 130.269  0.00  0.00    +0.000 A 
ATOM     19  C   UNL     1      -5.831   4.071 131.691  0.00  0.00    +0.000 C 
ATOM     20  C   UNL     1      -5.088   4.341 129.247  0.00  0.00    +0.000 A 
ATOM     21  C   UNL     1      -3.651   4.012 129.397  0.00  0.00    +0.000 C 
ATOM     22  N   UNL     1      -5.613   4.639 128.055  0.00  0.00    +0.000 NA
ATOM     23  O   UNL     1      -6.951   4.892 128.293  0.00  0.00    +0.000 OA
ENDBRANCH  16  17
ENDBRANCH   1  16
TORSDOF 4
ENDMDL
MODEL 3
REMARK VINA RESULT:      -7.2      8.273      9.776
REMARK  Name = Acetyl sulfisoxazole
REMARK  7 active torsions:
REMARK  status: ('A' for Active; 'I' for Inactive)
REMARK    1  A    between atoms: C_1  and  C_2
REMARK    2  A    between atoms: N_4  and  C_5
REMARK    3  A    between atoms: N_4  and  S_12
REMARK    4  A    between atoms: C_6  and  C_7
REMARK    5  A    between atoms: C_8  and  C_9
REMARK    6  A    between atoms: S_12  and  C_15
REMARK    7  A    between atoms: C_18  and  N_19
REMARK                            x       y       z     vdW  Elec       q    Type
REMARK                         _______ _______ _______ _____ _____    ______ ____
ROOT
ATOM      1  S   UNL     1      -9.657   5.419 129.759  0.00  0.00    +0.000 S 
ATOM      2  O   UNL     1      -8.940   5.286 128.500  0.00  0.00    +0.000 OA
ATOM      3  O   UNL     1     -10.583   4.398 130.201  0.00  0.00    +0.000 OA
ENDROOT
BRANCH   1   4
ATOM      4  C   UNL     1     -10.644   6.920 129.536  0.00  0.00    +0.000 A 
ATOM      5  C   UNL     1     -11.695   7.184 130.415  0.00  0.00    +0.000 A 
ATOM      6  C   UNL     1     -12.620   8.191 130.114  0.00  0.00    +0.000 A 
ATOM      7  C   UNL     1     -12.464   9.017 128.994  0.00  0.00    +0.000 A 
ATOM      8  C   UNL     1     -11.386   8.772 128.135  0.00  0.00    +0.000 A 
ATOM      9  C   UNL     1     -10.465   7.740 128.405  0.00  0.00    +0.000 A 
BRANCH   7  10
ATOM     10  N   UNL     1     -13.507   9.866 128.609  0.00  0.00    +0.000 N 
ATOM     11  H   UNL     1     -14.267   9.947 129.279  0.00  0.00    +0.000 HD
ATOM     12  H   UNL     1     -13.226  10.766 128.231  0.00  0.00    +0.000 HD
ENDBRANCH   7  10
ENDBRANCH   1   4
BRANCH   1  16
ATOM     13  C   UNL     1      -7.922   5.755 133.491  0.00  0.00    +0.000 C 
ATOM     14  C   UNL     1      -8.924   5.535 132.376  0.00  0.00    +0.000 C 
ATOM     15  O   UNL     1     -10.093   5.304 132.682  0.00  0.00    +0.000 OA
ATOM     16  N   UNL     1      -8.515   5.648 131.007  0.00  0.00    +0.000 N 
BRANCH  16  17
ATOM     17  C   UNL     1      -7.176   6.049 130.733  0.00  0.00    +0.000 A 
ATOM     18  C   UNL     1      -6.066   5.257 130.519  0.00  0.00    +0.000 A 
ATOM     19  C   UNL     1      -5.942   3.788 130.480  0.00  0.00    +0.000 C 
ATOM     20  C   UNL     1      -4.992   6.171 130.367  0.00  0.00    +0.000 A 
ATOM     21  C   UNL     1      -3.560   5.847 130.165  0.00  0.00    +0.000 C 
ATOM     22  N   UNL     1      -5.420   7.436 130.416  0.00  0.00    +0.000 NA
ATOM     23  O   UNL     1      -6.785   7.357 130.617  0.00  0.00    +0.000 OA
ENDBRANCH  16  17
ENDBRANCH   1  16
TORSDOF 4
ENDMDL
MODEL 4
REMARK VINA RESULT:      -7.1      2.803      4.023
REMARK  Name = Acetyl sulfisoxazole
REMARK  7 active torsions:
REMARK  status: ('A' for Active; 'I' for Inactive)
REMARK    1  A    between atoms: C_1  and  C_2
REMARK    2  A    between atoms: N_4  and  C_5
REMARK    3  A    between atoms: N_4  and  S_12
REMARK    4  A    between atoms: C_6  and  C_7
REMARK    5  A    between atoms: C_8  and  C_9
REMARK    6  A    between atoms: S_12  and  C_15
REMARK    7  A    between atoms: C_18  and  N_19
REMARK                            x       y       z     vdW  Elec       q    Type
REMARK                         _______ _______ _______ _____ _____    ______ ____
ROOT
ATOM      1  S   UNL     1      -9.256  -0.234 124.355  0.00  0.00    +0.000 S 
ATOM      2  O   UNL     1      -9.825  -0.561 123.057  0.00  0.00    +0.000 OA
ATOM      3  O   UNL     1     -10.106   0.043 125.494  0.00  0.00    +0.000 OA
ENDROOT
BRANCH   1   4
ATOM      4  C   UNL     1      -8.331   1.292 124.047  0.00  0.00    +0.000 A 
ATOM      5  C   UNL     1      -8.677   2.093 122.959  0.00  0.00    +0.000 A 
ATOM      6  C   UNL     1      -7.825   3.130 122.558  0.00  0.00    +0.000 A 
ATOM      7  C   UNL     1      -6.672   3.452 123.284  0.00  0.00    +0.000 A 
ATOM      8  C   UNL     1      -6.349   2.668 124.398  0.00  0.00    +0.000 A 
ATOM      9  C   UNL     1      -7.178   1.600 124.796  0.00  0.00    +0.000 A 
BRANCH   7  10
ATOM     10  N   UNL     1      -5.740   4.345 122.744  0.00  0.00    +0.000 N 
ATOM     11  H   UNL     1      -4.856   4.398 123.243  0.00  0.00    +0.000 HD
ATOM     12  H   UNL     1      -5.615   4.298 121.738  0.00  0.00    +0.000 HD
ENDBRANCH   7  10
ENDBRANCH   1   4
BRANCH   1  16
ATOM     13  C   UNL     1      -6.218  -3.029 124.289  0.00  0.00    +0.000 C 
ATOM     14  C   UNL     1      -7.159  -1.905 123.904  0.00  0.00    +0.000 C 
ATOM     15  O   UNL     1      -7.038  -1.404 122.787  0.00  0.00    +0.000 OA
ATOM     16  N   UNL     1      -8.188  -1.487 124.808  0.00  0.00    +0.000 N 
BRANCH  16  17
ATOM     17  C   UNL     1      -8.350  -2.204 126.028  0.00  0.00    +0.000 A 
ATOM     18  C   UNL     1      -7.853  -1.897 127.279  0.00  0.00    +0.000 A 
ATOM     19  C   UNL     1      -7.050  -0.744 127.725  0.00  0.00    +0.000 C 
ATOM     20  C   UNL     1      -8.254  -2.981 128.102  0.00  0.00    +0.000 A 
ATOM     21  C   UNL     1      -7.938  -3.182 129.536  0.00  0.00    +0.000 C 
ATOM     22  N   UNL     1      -9.001  -3.857 127.425  0.00  0.00    +0.000 NA
ATOM     23  O   UNL     1      -9.081  -3.357 126.139  0.00  0.00    +0.000 OA
ENDBRANCH  16  17
ENDBRANCH   1  16
TORSDOF 4
ENDMDL
MODEL 5
REMARK VINA RESULT:      -7.1      7.540      8.840
REMARK  Name = Acetyl sulfisoxazole
REMARK  7 active torsions:
REMARK  status: ('A' for Active; 'I' for Inactive)
REMARK    1  A    between atoms: C_1  and  C_2
REMARK    2  A    between atoms: N_4  and  C_5
REMARK    3  A    between atoms: N_4  and  S_12
REMARK    4  A    between atoms: C_6  and  C_7
REMARK    5  A    between atoms: C_8  and  C_9
REMARK    6  A    between atoms: S_12  and  C_15
REMARK    7  A    between atoms: C_18  and  N_19
REMARK                            x       y       z     vdW  Elec       q    Type
REMARK                         _______ _______ _______ _____ _____    ______ ____
ROOT
ATOM      1  S   UNL     1     -10.718   5.370 130.753  0.00  0.00    +0.000 S 
ATOM      2  O   UNL     1     -11.477   4.411 129.966  0.00  0.00    +0.000 OA
ATOM      3  O   UNL     1     -10.795   5.375 132.199  0.00  0.00    +0.000 OA
ENDROOT
BRANCH   1   4
ATOM      4  C   UNL     1     -11.365   6.975 130.219  0.00  0.00    +0.000 A 
ATOM      5  C   UNL     1     -12.364   7.593 130.970  0.00  0.00    +0.000 A 
ATOM      6  C   UNL     1     -13.050   8.695 130.444  0.00  0.00    +0.000 A 
ATOM      7  C   UNL     1     -12.691   9.263 129.216  0.00  0.00    +0.000 A 
ATOM      8  C   UNL     1     -11.661   8.661 128.483  0.00  0.00    +0.000 A 
ATOM      9  C   UNL     1     -10.983   7.530 128.982  0.00  0.00    +0.000 A 
BRANCH   7  10
ATOM     10  N   UNL     1     -13.522  10.221 128.625  0.00  0.00    +0.000 N 
ATOM     11  H   UNL     1     -13.364  10.375 127.633  0.00  0.00    +0.000 HD
ATOM     12  H   UNL     1     -14.509  10.152 128.855  0.00  0.00    +0.000 HD
ENDBRANCH   7  10
ENDBRANCH   1   4
BRANCH   1  16
ATOM     13  C   UNL     1      -6.623   5.891 130.658  0.00  0.00    +0.000 C 
ATOM     14  C   UNL     1      -8.086   5.993 131.040  0.00  0.00    +0.000 C 
ATOM     15  O   UNL     1      -8.399   6.776 131.936  0.00  0.00    +0.000 OA
ATOM     16  N   UNL     1      -9.070   5.231 130.330  0.00  0.00    +0.000 N 
BRANCH  16  17
ATOM     17  C   UNL     1      -8.646   4.449 129.217  0.00  0.00    +0.000 A 
ATOM     18  C   UNL     1      -8.307   3.112 129.184  0.00  0.00    +0.000 A 
ATOM     19  C   UNL     1      -8.311   2.104 130.261  0.00  0.00    +0.000 C 
ATOM     20  C   UNL     1      -7.895   2.876 127.847  0.00  0.00    +0.000 A 
ATOM     21  C   UNL     1      -7.377   1.608 127.279  0.00  0.00    +0.000 C 
ATOM     22  N   UNL     1      -8.035   3.970 127.095  0.00  0.00    +0.000 NA
ATOM     23  O   UNL     1      -8.528   4.942 127.944  0.00  0.00    +0.000 OA
ENDBRANCH  16  17
ENDBRANCH   1  16
TORSDOF 4
ENDMDL
MODEL 6
REMARK VINA RESULT:      -7.0      7.659      9.337
REMARK  Name = Acetyl sulfisoxazole
REMARK  7 active torsions:
REMARK  status: ('A' for Active; 'I' for Inactive)
REMARK    1  A    between atoms: C_1  and  C_2
REMARK    2  A    between atoms: N_4  and  C_5
REMARK    3  A    between atoms: N_4  and  S_12
REMARK    4  A    between atoms: C_6  and  C_7
REMARK    5  A    between atoms: C_8  and  C_9
REMARK    6  A    between atoms: S_12  and  C_15
REMARK    7  A    between atoms: C_18  and  N_19
REMARK                            x       y       z     vdW  Elec       q    Type
REMARK                         _______ _______ _______ _____ _____    ______ ____
ROOT
ATOM      1  S   UNL     1      -8.867   6.519 130.964  0.00  0.00    +0.000 S 
ATOM      2  O   UNL     1      -9.218   6.600 132.373  0.00  0.00    +0.000 OA
ATOM      3  O   UNL     1      -7.799   7.326 130.413  0.00  0.00    +0.000 OA
ENDROOT
BRANCH   1   4
ATOM      4  C   UNL     1     -10.375   7.050 130.113  0.00  0.00    +0.000 A 
ATOM      5  C   UNL     1     -11.568   6.366 130.347  0.00  0.00    +0.000 A 
ATOM      6  C   UNL     1     -12.675   6.592 129.519  0.00  0.00    +0.000 A 
ATOM      7  C   UNL     1     -12.652   7.567 128.515  0.00  0.00    +0.000 A 
ATOM      8  C   UNL     1     -11.463   8.278 128.309  0.00  0.00    +0.000 A 
ATOM      9  C   UNL     1     -10.329   8.039 129.111  0.00  0.00    +0.000 A 
BRANCH   7  10
ATOM     10  N   UNL     1     -13.689   7.623 127.578  0.00  0.00    +0.000 N 
ATOM     11  H   UNL     1     -13.526   8.248 126.793  0.00  0.00    +0.000 HD
ATOM     12  H   UNL     1     -14.071   6.728 127.288  0.00  0.00    +0.000 HD
ENDBRANCH   7  10
ENDBRANCH   1   4
BRANCH   1  16
ATOM     13  C   UNL     1      -8.253   3.009 128.878  0.00  0.00    +0.000 C 
ATOM     14  C   UNL     1      -8.538   4.457 129.221  0.00  0.00    +0.000 C 
ATOM     15  O   UNL     1      -8.825   5.226 128.304  0.00  0.00    +0.000 OA
ATOM     16  N   UNL     1      -8.523   4.890 130.586  0.00  0.00    +0.000 N 
BRANCH  16  17
ATOM     17  C   UNL     1      -8.315   3.914 131.603  0.00  0.00    +0.000 A 
ATOM     18  C   UNL     1      -7.135   3.550 132.218  0.00  0.00    +0.000 A 
ATOM     19  C   UNL     1      -5.768   4.073 132.035  0.00  0.00    +0.000 C 
ATOM     20  C   UNL     1      -7.494   2.491 133.091  0.00  0.00    +0.000 A 
ATOM     21  C   UNL     1      -6.590   1.698 133.958  0.00  0.00    +0.000 C 
ATOM     22  N   UNL     1      -8.810   2.264 133.066  0.00  0.00    +0.000 NA
ATOM     23  O   UNL     1      -9.323   3.170 132.158  0.00  0.00    +0.000 OA
ENDBRANCH  16  17
ENDBRANCH   1  16
TORSDOF 4
ENDMDL
MODEL 7
REMARK VINA RESULT:      -7.0      2.470      5.777
REMARK  Name = Acetyl sulfisoxazole
REMARK  7 active torsions:
REMARK  status: ('A' for Active; 'I' for Inactive)
REMARK    1  A    between atoms: C_1  and  C_2
REMARK    2  A    between atoms: N_4  and  C_5
REMARK    3  A    between atoms: N_4  and  S_12
REMARK    4  A    between atoms: C_6  and  C_7
REMARK    5  A    between atoms: C_8  and  C_9
REMARK    6  A    between atoms: S_12  and  C_15
REMARK    7  A    between atoms: C_18  and  N_19
REMARK                            x       y       z     vdW  Elec       q    Type
REMARK                         _______ _______ _______ _____ _____    ______ ____
ROOT
ATOM      1  S   UNL     1      -9.052   1.932 123.523  0.00  0.00    +0.000 S 
ATOM      2  O   UNL     1     -10.085   1.855 124.544  0.00  0.00    +0.000 OA
ATOM      3  O   UNL     1      -9.385   2.235 122.147  0.00  0.00    +0.000 OA
ENDROOT
BRANCH   1   4
ATOM      4  C   UNL     1      -8.339   0.268 123.505  0.00  0.00    +0.000 A 
ATOM      5  C   UNL     1      -9.109  -0.801 123.047  0.00  0.00    +0.000 A 
ATOM      6  C   UNL     1      -8.674  -2.115 123.260  0.00  0.00    +0.000 A 
ATOM      7  C   UNL     1      -7.429  -2.390 123.837  0.00  0.00    +0.000 A 
ATOM      8  C   UNL     1      -6.643  -1.311 124.261  0.00  0.00    +0.000 A 
ATOM      9  C   UNL     1      -7.080   0.017 124.085  0.00  0.00    +0.000 A 
BRANCH   7  10
ATOM     10  N   UNL     1      -7.118  -3.697 124.225  0.00  0.00    +0.000 N 
ATOM     11  H   UNL     1      -6.157  -3.839 124.526  0.00  0.00    +0.000 HD
ATOM     12  H   UNL     1      -7.788  -4.146 124.842  0.00  0.00    +0.000 HD
ENDBRANCH   7  10
ENDBRANCH   1   4
BRANCH   1  16
ATOM     13  C   UNL     1      -5.700   4.341 123.634  0.00  0.00    +0.000 C 
ATOM     14  C   UNL     1      -6.755   3.349 123.187  0.00  0.00    +0.000 C 
ATOM     15  O   UNL     1      -6.589   2.769 122.115  0.00  0.00    +0.000 OA
ATOM     16  N   UNL     1      -7.881   3.068 124.027  0.00  0.00    +0.000 N 
BRANCH  16  17
ATOM     17  C   UNL     1      -7.935   3.679 125.313  0.00  0.00    +0.000 A 
ATOM     18  C   UNL     1      -7.298   3.295 126.475  0.00  0.00    +0.000 A 
ATOM     19  C   UNL     1      -6.365   2.181 126.724  0.00  0.00    +0.000 C 
ATOM     20  C   UNL     1      -7.760   4.208 127.459  0.00  0.00    +0.000 A 
ATOM     21  C   UNL     1      -7.427   4.214 128.903  0.00  0.00    +0.000 C 
ATOM     22  N   UNL     1      -8.570   5.127 126.927  0.00  0.00    +0.000 NA
ATOM     23  O   UNL     1      -8.656   4.812 125.584  0.00  0.00    +0.000 OA
ENDBRANCH  16  17
ENDBRANCH   1  16
TORSDOF 4
ENDMDL
MODEL 8
REMARK VINA RESULT:      -7.0      3.134      4.221
REMARK  Name = Acetyl sulfisoxazole
REMARK  7 active torsions:
REMARK  status: ('A' for Active; 'I' for Inactive)
REMARK    1  A    between atoms: C_1  and  C_2
REMARK    2  A    between atoms: N_4  and  C_5
REMARK    3  A    between atoms: N_4  and  S_12
REMARK    4  A    between atoms: C_6  and  C_7
REMARK    5  A    between atoms: C_8  and  C_9
REMARK    6  A    between atoms: S_12  and  C_15
REMARK    7  A    between atoms: C_18  and  N_19
REMARK                            x       y       z     vdW  Elec       q    Type
REMARK                         _______ _______ _______ _____ _____    ______ ____
ROOT
ATOM      1  S   UNL     1      -9.098   0.313 125.752  0.00  0.00    +0.000 S 
ATOM      2  O   UNL     1     -10.538   0.265 125.553  0.00  0.00    +0.000 OA
ATOM      3  O   UNL     1      -8.525   0.986 126.899  0.00  0.00    +0.000 OA
ENDROOT
BRANCH   1   4
ATOM      4  C   UNL     1      -8.492   1.211 124.300  0.00  0.00    +0.000 A 
ATOM      5  C   UNL     1      -7.123   1.443 124.162  0.00  0.00    +0.000 A 
ATOM      6  C   UNL     1      -6.663   2.343 123.193  0.00  0.00    +0.000 A 
ATOM      7  C   UNL     1      -7.537   2.948 122.283  0.00  0.00    +0.000 A 
ATOM      8  C   UNL     1      -8.907   2.682 122.401  0.00  0.00    +0.000 A 
ATOM      9  C   UNL     1      -9.391   1.805 123.393  0.00  0.00    +0.000 A 
BRANCH   7  10
ATOM     10  N   UNL     1      -7.080   3.992 121.471  0.00  0.00    +0.000 N 
ATOM     11  H   UNL     1      -7.012   4.896 121.931  0.00  0.00    +0.000 HD
ATOM     12  H   UNL     1      -6.266   3.785 120.902  0.00  0.00    +0.000 HD
ENDBRANCH   7  10
ENDBRANCH   1   4
BRANCH   1  16
ATOM     13  C   UNL     1      -8.376  -3.614 124.698  0.00  0.00    +0.000 C 
ATOM     14  C   UNL     1      -8.888  -2.187 124.702  0.00  0.00    +0.000 C 
ATOM     15  O   UNL     1      -9.673  -1.849 123.817  0.00  0.00    +0.000 OA
ATOM     16  N   UNL     1      -8.499  -1.286 125.745  0.00  0.00    +0.000 N 
BRANCH  16  17
ATOM     17  C   UNL     1      -7.694  -1.788 126.808  0.00  0.00    +0.000 A 
ATOM     18  C   UNL     1      -6.327  -1.690 126.974  0.00  0.00    +0.000 A 
ATOM     19  C   UNL     1      -5.315  -1.023 126.134  0.00  0.00    +0.000 C 
ATOM     20  C   UNL     1      -6.053  -2.423 128.157  0.00  0.00    +0.000 A 
ATOM     21  C   UNL     1      -4.725  -2.682 128.764  0.00  0.00    +0.000 C 
ATOM     22  N   UNL     1      -7.175  -2.882 128.717  0.00  0.00    +0.000 NA
ATOM     23  O   UNL     1      -8.199  -2.462 127.889  0.00  0.00    +0.000 OA
ENDBRANCH  16  17
ENDBRANCH   1  16
TORSDOF 4
ENDMDL
MODEL 9
REMARK VINA RESULT:      -6.8      3.510      4.701
REMARK  Name = Acetyl sulfisoxazole
REMARK  7 active torsions:
REMARK  status: ('A' for Active; 'I' for Inactive)
REMARK    1  A    between atoms: C_1  and  C_2
REMARK    2  A    between atoms: N_4  and  C_5
REMARK    3  A    between atoms: N_4  and  S_12
REMARK    4  A    between atoms: C_6  and  C_7
REMARK    5  A    between atoms: C_8  and  C_9
REMARK    6  A    between atoms: S_12  and  C_15
REMARK    7  A    between atoms: C_18  and  N_19
REMARK                            x       y       z     vdW  Elec       q    Type
REMARK                         _______ _______ _______ _____ _____    ______ ____
ROOT
ATOM      1  S   UNL     1      -7.748   1.961 127.135  0.00  0.00    +0.000 S 
ATOM      2  O   UNL     1      -8.564   3.059 127.627  0.00  0.00    +0.000 OA
ATOM      3  O   UNL     1      -7.494   0.794 127.954  0.00  0.00    +0.000 OA
ENDROOT
BRANCH   1   4
ATOM      4  C   UNL     1      -6.130   2.722 126.845  0.00  0.00    +0.000 A 
ATOM      5  C   UNL     1      -5.041   1.911 126.527  0.00  0.00    +0.000 A 
ATOM      6  C   UNL     1      -3.745   2.444 126.550  0.00  0.00    +0.000 A 
ATOM      7  C   UNL     1      -3.518   3.804 126.787  0.00  0.00    +0.000 A 
ATOM      8  C   UNL     1      -4.619   4.622 127.068  0.00  0.00    +0.000 A 
ATOM      9  C   UNL     1      -5.926   4.095 127.083  0.00  0.00    +0.000 A 
BRANCH   7  10
ATOM     10  N   UNL     1      -2.214   4.261 127.010  0.00  0.00    +0.000 N 
ATOM     11  H   UNL     1      -1.967   4.398 127.986  0.00  0.00    +0.000 HD
ATOM     12  H   UNL     1      -1.485   3.784 126.489  0.00  0.00    +0.000 HD
ENDBRANCH   7  10
ENDBRANCH   1   4
BRANCH   1  16
ATOM     13  C   UNL     1      -9.471   1.889 123.383  0.00  0.00    +0.000 C 
ATOM     14  C   UNL     1      -8.862   2.365 124.687  0.00  0.00    +0.000 C 
ATOM     15  O   UNL     1      -8.812   3.576 124.897  0.00  0.00    +0.000 OA
ATOM     16  N   UNL     1      -8.412   1.415 125.659  0.00  0.00    +0.000 N 
BRANCH  16  17
ATOM     17  C   UNL     1      -8.625   0.030 125.402  0.00  0.00    +0.000 A 
ATOM     18  C   UNL     1      -7.758  -0.885 124.841  0.00  0.00    +0.000 A 
ATOM     19  C   UNL     1      -6.368  -0.716 124.379  0.00  0.00    +0.000 C 
ATOM     20  C   UNL     1      -8.507  -2.087 124.754  0.00  0.00    +0.000 A 
ATOM     21  C   UNL     1      -8.065  -3.379 124.177  0.00  0.00    +0.000 C 
ATOM     22  N   UNL     1      -9.724  -1.942 125.286  0.00  0.00    +0.000 NA
ATOM     23  O   UNL     1      -9.786  -0.629 125.712  0.00  0.00    +0.000 OA
ENDBRANCH  16  17
ENDBRANCH   1  16
TORSDOF 4
ENDMDL
