MODEL 1
REMARK VINA RESULT:      -3.6      0.000      0.000
REMARK  Name = Acetohydroxamic acid
REMARK  2 active torsions:
REMARK  status: ('A' for Active; 'I' for Inactive)
REMARK    1  A    between atoms: C_1  and  C_2
REMARK    2  A    between atoms: N_4  and  O_5
REMARK                            x       y       z     vdW  Elec       q    Type
REMARK                         _______ _______ _______ _____ _____    ______ ____
ROOT
ATOM      1  C   UNL     1      -5.413   3.985 120.785  0.00  0.00    +0.000 C 
ATOM      2  C   UNL     1      -5.208   5.301 120.086  0.00  0.00    +0.000 C 
ATOM      3  O   UNL     1      -4.539   6.218 120.558  0.00  0.00    +0.000 OA
ATOM      4  N   UNL     1      -5.831   5.397 118.870  0.00  0.00    +0.000 N 
ATOM      5  H   UNL     1      -6.392   4.674 118.436  0.00  0.00    +0.000 HD
ENDROOT
BRANCH   4   6
ATOM      6  O   UNL     1      -5.678   6.608 118.161  0.00  0.00    +0.000 OA
ATOM      7  H   UNL     1      -5.201   7.175 118.807  0.00  0.00    +0.000 HD
ENDBRANCH   4   6
TORSDOF 1
ENDMDL
MODEL 2
REMARK VINA RESULT:      -3.5     14.629     14.842
REMARK  Name = Acetohydroxamic acid
REMARK  2 active torsions:
REMARK  status: ('A' for Active; 'I' for Inactive)
REMARK    1  A    between atoms: C_1  and  C_2
REMARK    2  A    between atoms: N_4  and  O_5
REMARK                            x       y       z     vdW  Elec       q    Type
REMARK                         _______ _______ _______ _____ _____    ______ ____
ROOT
ATOM      1  C   UNL     1     -13.231   9.963 129.920  0.00  0.00    +0.000 C 
ATOM      2  C   UNL     1     -13.526  11.437 129.881  0.00  0.00    +0.000 C 
ATOM      3  O   UNL     1     -13.886  12.027 128.865  0.00  0.00    +0.000 OA
ATOM      4  N   UNL     1     -13.359  12.078 131.081  0.00  0.00    +0.000 N 
ATOM      5  H   UNL     1     -13.065  11.641 131.947  0.00  0.00    +0.000 HD
ENDROOT
BRANCH   4   6
ATOM      6  O   UNL     1     -13.619  13.465 131.113  0.00  0.00    +0.000 OA
ATOM      7  H   UNL     1     -13.249  13.732 131.983  0.00  0.00    +0.000 HD
ENDBRANCH   4   6
TORSDOF 1
ENDMDL
MODEL 3
REMARK VINA RESULT:      -3.4      1.412      2.164
REMARK  Name = Acetohydroxamic acid
REMARK  2 active torsions:
REMARK  status: ('A' for Active; 'I' for Inactive)
REMARK    1  A    between atoms: C_1  and  C_2
REMARK    2  A    between atoms: N_4  and  O_5
REMARK                            x       y       z     vdW  Elec       q    Type
REMARK                         _______ _______ _______ _____ _____    ______ ____
ROOT
ATOM      1  C   UNL     1      -6.677   3.879 119.916  0.00  0.00    +0.000 C 
ATOM      2  C   UNL     1      -5.699   5.021 119.879  0.00  0.00    +0.000 C 
ATOM      3  O   UNL     1      -5.587   5.782 118.920  0.00  0.00    +0.000 OA
ATOM      4  N   UNL     1      -4.935   5.147 121.009  0.00  0.00    +0.000 N 
ATOM      5  H   UNL     1      -4.987   4.550 121.825  0.00  0.00    +0.000 HD
ENDROOT
BRANCH   4   6
ATOM      6  O   UNL     1      -3.996   6.200 121.038  0.00  0.00    +0.000 OA
ATOM      7  H   UNL     1      -3.780   6.269 121.993  0.00  0.00    +0.000 HD
ENDBRANCH   4   6
TORSDOF 1
ENDMDL
MODEL 4
REMARK VINA RESULT:      -3.3      1.696      2.534
REMARK  Name = Acetohydroxamic acid
REMARK  2 active torsions:
REMARK  status: ('A' for Active; 'I' for Inactive)
REMARK    1  A    between atoms: C_1  and  C_2
REMARK    2  A    between atoms: N_4  and  O_5
REMARK                            x       y       z     vdW  Elec       q    Type
REMARK                         _______ _______ _______ _____ _____    ______ ____
ROOT
ATOM      1  C   UNL     1      -5.941   5.678 118.452  0.00  0.00    +0.000 C 
ATOM      2  C   UNL     1      -5.379   5.391 119.817  0.00  0.00    +0.000 C 
ATOM      3  O   UNL     1      -4.637   6.165 120.417  0.00  0.00    +0.000 OA
ATOM      4  N   UNL     1      -5.763   4.186 120.344  0.00  0.00    +0.000 N 
ATOM      5  H   UNL     1      -6.371   3.513 119.894  0.00  0.00    +0.000 HD
ENDROOT
BRANCH   4   6
ATOM      6  O   UNL     1      -5.269   3.856 121.624  0.00  0.00    +0.000 OA
ATOM      7  H   UNL     1      -5.792   3.057 121.856  0.00  0.00    +0.000 HD
ENDBRANCH   4   6
TORSDOF 1
ENDMDL
MODEL 5
REMARK VINA RESULT:      -3.2     12.659     12.886
REMARK  Name = Acetohydroxamic acid
REMARK  2 active torsions:
REMARK  status: ('A' for Active; 'I' for Inactive)
REMARK    1  A    between atoms: C_1  and  C_2
REMARK    2  A    between atoms: N_4  and  O_5
REMARK                            x       y       z     vdW  Elec       q    Type
REMARK                         _______ _______ _______ _____ _____    ______ ____
ROOT
ATOM      1  C   UNL     1     -13.653   8.077 127.978  0.00  0.00    +0.000 C 
ATOM      2  C   UNL     1     -13.114   9.163 128.867  0.00  0.00    +0.000 C 
ATOM      3  O   UNL     1     -12.279   8.963 129.746  0.00  0.00    +0.000 OA
ATOM      4  N   UNL     1     -13.633  10.407 128.616  0.00  0.00    +0.000 N 
ATOM      5  H   UNL     1     -14.320  10.627 127.906  0.00  0.00    +0.000 HD
ENDROOT
BRANCH   4   6
ATOM      6  O   UNL     1     -13.168  11.472 129.418  0.00  0.00    +0.000 OA
ATOM      7  H   UNL     1     -13.334  12.256 128.850  0.00  0.00    +0.000 HD
ENDBRANCH   4   6
TORSDOF 1
ENDMDL
MODEL 6
REMARK VINA RESULT:      -3.2     10.178     10.401
REMARK  Name = Acetohydroxamic acid
REMARK  2 active torsions:
REMARK  status: ('A' for Active; 'I' for Inactive)
REMARK    1  A    between atoms: C_1  and  C_2
REMARK    2  A    between atoms: N_4  and  O_5
REMARK                            x       y       z     vdW  Elec       q    Type
REMARK                         _______ _______ _______ _____ _____    ______ ____
ROOT
ATOM      1  C   UNL     1     -12.441   8.940 128.777  0.00  0.00    +0.000 C 
ATOM      2  C   UNL     1     -11.406   8.235 127.944  0.00  0.00    +0.000 C 
ATOM      3  O   UNL     1     -10.199   8.442 128.050  0.00  0.00    +0.000 OA
ATOM      4  N   UNL     1     -11.920   7.335 127.047  0.00  0.00    +0.000 N 
ATOM      5  H   UNL     1     -12.903   7.127 126.919  0.00  0.00    +0.000 HD
ENDROOT
BRANCH   4   6
ATOM      6  O   UNL     1     -11.000   6.640 126.233  0.00  0.00    +0.000 OA
ATOM      7  H   UNL     1     -10.919   7.228 125.451  0.00  0.00    +0.000 HD
ENDBRANCH   4   6
TORSDOF 1
ENDMDL
MODEL 7
REMARK VINA RESULT:      -3.1     12.549     12.973
REMARK  Name = Acetohydroxamic acid
REMARK  2 active torsions:
REMARK  status: ('A' for Active; 'I' for Inactive)
REMARK    1  A    between atoms: C_1  and  C_2
REMARK    2  A    between atoms: N_4  and  O_5
REMARK                            x       y       z     vdW  Elec       q    Type
REMARK                         _______ _______ _______ _____ _____    ______ ____
ROOT
ATOM      1  C   UNL     1     -13.381   7.504 128.499  0.00  0.00    +0.000 C 
ATOM      2  C   UNL     1     -12.721   6.631 129.529  0.00  0.00    +0.000 C 
ATOM      3  O   UNL     1     -12.101   5.608 129.250  0.00  0.00    +0.000 OA
ATOM      4  N   UNL     1     -12.867   7.071 130.819  0.00  0.00    +0.000 N 
ATOM      5  H   UNL     1     -13.367   7.905 131.105  0.00  0.00    +0.000 HD
ENDROOT
BRANCH   4   6
ATOM      6  O   UNL     1     -12.271   6.295 131.836  0.00  0.00    +0.000 OA
ATOM      7  H   UNL     1     -11.314   6.372 131.631  0.00  0.00    +0.000 HD
ENDBRANCH   4   6
TORSDOF 1
ENDMDL
MODEL 8
REMARK VINA RESULT:      -2.9     18.928     19.361
REMARK  Name = Acetohydroxamic acid
REMARK  2 active torsions:
REMARK  status: ('A' for Active; 'I' for Inactive)
REMARK    1  A    between atoms: C_1  and  C_2
REMARK    2  A    between atoms: N_4  and  O_5
REMARK                            x       y       z     vdW  Elec       q    Type
REMARK                         _______ _______ _______ _____ _____    ______ ____
ROOT
ATOM      1  C   UNL     1      -9.643  10.308 139.666  0.00  0.00    +0.000 C 
ATOM      2  C   UNL     1      -9.442   9.345 138.529  0.00  0.00    +0.000 C 
ATOM      3  O   UNL     1      -8.543   8.508 138.505  0.00  0.00    +0.000 OA
ATOM      4  N   UNL     1     -10.350   9.476 137.511  0.00  0.00    +0.000 N 
ATOM      5  H   UNL     1     -11.109  10.146 137.480  0.00  0.00    +0.000 HD
ENDROOT
BRANCH   4   6
ATOM      6  O   UNL     1     -10.216   8.601 136.412  0.00  0.00    +0.000 OA
ATOM      7  H   UNL     1      -9.383   8.910 135.992  0.00  0.00    +0.000 HD
ENDBRANCH   4   6
TORSDOF 1
ENDMDL
MODEL 9
REMARK VINA RESULT:      -2.9     10.490     10.882
REMARK  Name = Acetohydroxamic acid
REMARK  2 active torsions:
REMARK  status: ('A' for Active; 'I' for Inactive)
REMARK    1  A    between atoms: C_1  and  C_2
REMARK    2  A    between atoms: N_4  and  O_5
REMARK                            x       y       z     vdW  Elec       q    Type
REMARK                         _______ _______ _______ _____ _____    ______ ____
ROOT
ATOM      1  C   UNL     1     -10.599   8.491 128.070  0.00  0.00    +0.000 C 
ATOM      2  C   UNL     1     -10.581   7.024 128.398  0.00  0.00    +0.000 C 
ATOM      3  O   UNL     1      -9.720   6.251 127.986  0.00  0.00    +0.000 OA
ATOM      4  N   UNL     1     -11.613   6.613 129.201  0.00  0.00    +0.000 N 
ATOM      5  H   UNL     1     -12.347   7.206 129.568  0.00  0.00    +0.000 HD
ENDROOT
BRANCH   4   6
ATOM      6  O   UNL     1     -11.655   5.245 129.546  0.00  0.00    +0.000 OA
ATOM      7  H   UNL     1     -11.553   5.267 130.523  0.00  0.00    +0.000 HD
ENDBRANCH   4   6
TORSDOF 1
ENDMDL
