MODEL 1
REMARK VINA RESULT:      -5.8      0.000      0.000
REMARK  Name = Acetylsalicylic acid
REMARK  5 active torsions:
REMARK  status: ('A' for Active; 'I' for Inactive)
REMARK    1  A    between atoms: C_1  and  C_2
REMARK    2  A    between atoms: C_2  and  O_4
REMARK    3  A    between atoms: O_4  and  C_5
REMARK    4  A    between atoms: C_10  and  C_11
REMARK    5  A    between atoms: C_11  and  O_12
REMARK                            x       y       z     vdW  Elec       q    Type
REMARK                         _______ _______ _______ _____ _____    ______ ____
ROOT
ATOM      1  C   UNL     1     -10.880   7.285 129.259  0.00  0.00    +0.000 A 
ATOM      2  C   UNL     1     -10.620   7.503 127.892  0.00  0.00    +0.000 A 
ATOM      3  C   UNL     1     -11.659   7.440 126.959  0.00  0.00    +0.000 A 
ATOM      4  C   UNL     1     -12.937   7.085 127.376  0.00  0.00    +0.000 A 
ATOM      5  C   UNL     1     -13.199   6.868 128.734  0.00  0.00    +0.000 A 
ATOM      6  C   UNL     1     -12.188   6.993 129.707  0.00  0.00    +0.000 A 
ENDROOT
BRANCH   6   7
ATOM      7  C   UNL     1     -12.514   6.902 131.174  0.00  0.00    +0.000 C 
ATOM      8  O   UNL     1     -13.299   7.654 131.740  0.00  0.00    +0.000 OA
BRANCH   7   9
ATOM      9  O   UNL     1     -11.923   5.907 131.869  0.00  0.00    +0.000 OA
ATOM     10  H   UNL     1     -12.469   5.173 132.187  0.00  0.00    +0.000 HD
ENDBRANCH   7   9
ENDBRANCH   6   7
BRANCH   1  11
ATOM     11  O   UNL     1      -9.789   7.506 130.137  0.00  0.00    +0.000 OA
BRANCH  11  13
ATOM     12  C   UNL     1      -7.680   6.824 131.030  0.00  0.00    +0.000 C 
ATOM     13  C   UNL     1      -8.998   6.397 130.441  0.00  0.00    +0.000 C 
ATOM     14  O   UNL     1      -9.311   5.228 130.238  0.00  0.00    +0.000 OA
ENDBRANCH  11  13
ENDBRANCH   1  11
TORSDOF 4
ENDMDL
MODEL 2
REMARK VINA RESULT:      -5.7      2.110      3.440
REMARK  Name = Acetylsalicylic acid
REMARK  5 active torsions:
REMARK  status: ('A' for Active; 'I' for Inactive)
REMARK    1  A    between atoms: C_1  and  C_2
REMARK    2  A    between atoms: C_2  and  O_4
REMARK    3  A    between atoms: O_4  and  C_5
REMARK    4  A    between atoms: C_10  and  C_11
REMARK    5  A    between atoms: C_11  and  O_12
REMARK                            x       y       z     vdW  Elec       q    Type
REMARK                         _______ _______ _______ _____ _____    ______ ____
ROOT
ATOM      1  C   UNL     1     -11.344   6.646 129.280  0.00  0.00    +0.000 A 
ATOM      2  C   UNL     1     -12.048   6.948 130.461  0.00  0.00    +0.000 A 
ATOM      3  C   UNL     1     -12.780   8.136 130.560  0.00  0.00    +0.000 A 
ATOM      4  C   UNL     1     -12.746   9.053 129.517  0.00  0.00    +0.000 A 
ATOM      5  C   UNL     1     -12.045   8.757 128.341  0.00  0.00    +0.000 A 
ATOM      6  C   UNL     1     -11.357   7.538 128.183  0.00  0.00    +0.000 A 
ENDROOT
BRANCH   6   7
ATOM      7  C   UNL     1     -10.733   7.169 126.864  0.00  0.00    +0.000 C 
ATOM      8  O   UNL     1     -11.157   7.562 125.783  0.00  0.00    +0.000 OA
BRANCH   7   9
ATOM      9  O   UNL     1      -9.629   6.395 126.906  0.00  0.00    +0.000 OA
ATOM     10  H   UNL     1      -9.598   5.598 126.356  0.00  0.00    +0.000 HD
ENDBRANCH   7   9
ENDBRANCH   6   7
BRANCH   1  11
ATOM     11  O   UNL     1     -10.748   5.360 129.229  0.00  0.00    +0.000 OA
BRANCH  11  13
ATOM     12  C   UNL     1      -9.622   4.141 130.948  0.00  0.00    +0.000 C 
ATOM     13  C   UNL     1      -9.529   5.210 129.891  0.00  0.00    +0.000 C 
ATOM     14  O   UNL     1      -8.519   5.869 129.671  0.00  0.00    +0.000 OA
ENDBRANCH  11  13
ENDBRANCH   1  11
TORSDOF 4
ENDMDL
MODEL 3
REMARK VINA RESULT:      -5.6     10.890     11.971
REMARK  Name = Acetylsalicylic acid
REMARK  5 active torsions:
REMARK  status: ('A' for Active; 'I' for Inactive)
REMARK    1  A    between atoms: C_1  and  C_2
REMARK    2  A    between atoms: C_2  and  O_4
REMARK    3  A    between atoms: O_4  and  C_5
REMARK    4  A    between atoms: C_10  and  C_11
REMARK    5  A    between atoms: C_11  and  O_12
REMARK                            x       y       z     vdW  Elec       q    Type
REMARK                         _______ _______ _______ _____ _____    ______ ____
ROOT
ATOM      1  C   UNL     1      -7.460  -3.325 124.464  0.00  0.00    +0.000 A 
ATOM      2  C   UNL     1      -6.073  -3.419 124.689  0.00  0.00    +0.000 A 
ATOM      3  C   UNL     1      -5.175  -2.792 123.820  0.00  0.00    +0.000 A 
ATOM      4  C   UNL     1      -5.653  -2.140 122.690  0.00  0.00    +0.000 A 
ATOM      5  C   UNL     1      -7.031  -2.044 122.463  0.00  0.00    +0.000 A 
ATOM      6  C   UNL     1      -7.965  -2.605 123.357  0.00  0.00    +0.000 A 
ENDROOT
BRANCH   6   7
ATOM      7  C   UNL     1      -9.441  -2.369 123.180  0.00  0.00    +0.000 C 
ATOM      8  O   UNL     1      -9.919  -1.286 122.863  0.00  0.00    +0.000 OA
BRANCH   7   9
ATOM      9  O   UNL     1     -10.253  -3.433 123.350  0.00  0.00    +0.000 OA
ATOM     10  H   UNL     1      -9.861  -4.281 123.605  0.00  0.00    +0.000 HD
ENDBRANCH   7   9
ENDBRANCH   6   7
BRANCH   1  11
ATOM     11  O   UNL     1      -8.288  -3.877 125.474  0.00  0.00    +0.000 OA
BRANCH  11  13
ATOM     12  C   UNL     1      -8.827  -3.922 127.801  0.00  0.00    +0.000 C 
ATOM     13  C   UNL     1      -8.528  -3.077 126.591  0.00  0.00    +0.000 C 
ATOM     14  O   UNL     1      -8.525  -1.850 126.597  0.00  0.00    +0.000 OA
ENDBRANCH  11  13
ENDBRANCH   1  11
TORSDOF 4
ENDMDL
MODEL 4
REMARK VINA RESULT:      -5.6     10.593     11.755
REMARK  Name = Acetylsalicylic acid
REMARK  5 active torsions:
REMARK  status: ('A' for Active; 'I' for Inactive)
REMARK    1  A    between atoms: C_1  and  C_2
REMARK    2  A    between atoms: C_2  and  O_4
REMARK    3  A    between atoms: O_4  and  C_5
REMARK    4  A    between atoms: C_10  and  C_11
REMARK    5  A    between atoms: C_11  and  O_12
REMARK                            x       y       z     vdW  Elec       q    Type
REMARK                         _______ _______ _______ _____ _____    ______ ____
ROOT
ATOM      1  C   UNL     1      -7.658  -1.888 123.121  0.00  0.00    +0.000 A 
ATOM      2  C   UNL     1      -6.335  -1.743 122.661  0.00  0.00    +0.000 A 
ATOM      3  C   UNL     1      -5.340  -2.625 123.091  0.00  0.00    +0.000 A 
ATOM      4  C   UNL     1      -5.645  -3.598 124.035  0.00  0.00    +0.000 A 
ATOM      5  C   UNL     1      -6.958  -3.745 124.495  0.00  0.00    +0.000 A 
ATOM      6  C   UNL     1      -7.998  -2.918 124.027  0.00  0.00    +0.000 A 
ENDROOT
BRANCH   6   7
ATOM      7  C   UNL     1      -9.428  -3.181 124.417  0.00  0.00    +0.000 C 
ATOM      8  O   UNL     1      -9.858  -3.023 125.554  0.00  0.00    +0.000 OA
BRANCH   7   9
ATOM      9  O   UNL     1     -10.265  -3.576 123.436  0.00  0.00    +0.000 OA
ATOM     10  H   UNL     1     -11.179  -3.256 123.447  0.00  0.00    +0.000 HD
ENDBRANCH   7   9
ENDBRANCH   6   7
BRANCH   1  11
ATOM     11  O   UNL     1      -8.617  -1.032 122.521  0.00  0.00    +0.000 OA
BRANCH  11  13
ATOM     12  C   UNL     1     -10.183   0.769 122.616  0.00  0.00    +0.000 C 
ATOM     13  C   UNL     1      -9.013   0.079 123.266  0.00  0.00    +0.000 C 
ATOM     14  O   UNL     1      -8.475   0.468 124.297  0.00  0.00    +0.000 OA
ENDBRANCH  11  13
ENDBRANCH   1  11
TORSDOF 4
ENDMDL
MODEL 5
REMARK VINA RESULT:      -5.5      2.110      3.781
REMARK  Name = Acetylsalicylic acid
REMARK  5 active torsions:
REMARK  status: ('A' for Active; 'I' for Inactive)
REMARK    1  A    between atoms: C_1  and  C_2
REMARK    2  A    between atoms: C_2  and  O_4
REMARK    3  A    between atoms: O_4  and  C_5
REMARK    4  A    between atoms: C_10  and  C_11
REMARK    5  A    between atoms: C_11  and  O_12
REMARK                            x       y       z     vdW  Elec       q    Type
REMARK                         _______ _______ _______ _____ _____    ______ ____
ROOT
ATOM      1  C   UNL     1     -11.271   7.869 129.038  0.00  0.00    +0.000 A 
ATOM      2  C   UNL     1     -12.406   8.659 129.306  0.00  0.00    +0.000 A 
ATOM      3  C   UNL     1     -13.077   8.536 130.526  0.00  0.00    +0.000 A 
ATOM      4  C   UNL     1     -12.666   7.575 131.442  0.00  0.00    +0.000 A 
ATOM      5  C   UNL     1     -11.539   6.787 131.180  0.00  0.00    +0.000 A 
ATOM      6  C   UNL     1     -10.799   6.937 129.990  0.00  0.00    +0.000 A 
ENDROOT
BRANCH   6   7
ATOM      7  C   UNL     1      -9.509   6.189 129.785  0.00  0.00    +0.000 C 
ATOM      8  O   UNL     1      -8.424   6.589 130.193  0.00  0.00    +0.000 OA
BRANCH   7   9
ATOM      9  O   UNL     1      -9.586   5.003 129.147  0.00  0.00    +0.000 OA
ATOM     10  H   UNL     1      -8.781   4.473 129.051  0.00  0.00    +0.000 HD
ENDBRANCH   7   9
ENDBRANCH   6   7
BRANCH   1  11
ATOM     11  O   UNL     1     -10.583   8.166 127.834  0.00  0.00    +0.000 OA
BRANCH  11  13
ATOM     12  C   UNL     1     -12.123   7.253 126.253  0.00  0.00    +0.000 C 
ATOM     13  C   UNL     1     -10.719   7.245 126.795  0.00  0.00    +0.000 C 
ATOM     14  O   UNL     1      -9.831   6.505 126.385  0.00  0.00    +0.000 OA
ENDBRANCH  11  13
ENDBRANCH   1  11
TORSDOF 4
ENDMDL
MODEL 6
REMARK VINA RESULT:      -5.5      2.159      3.267
REMARK  Name = Acetylsalicylic acid
REMARK  5 active torsions:
REMARK  status: ('A' for Active; 'I' for Inactive)
REMARK    1  A    between atoms: C_1  and  C_2
REMARK    2  A    between atoms: C_2  and  O_4
REMARK    3  A    between atoms: O_4  and  C_5
REMARK    4  A    between atoms: C_10  and  C_11
REMARK    5  A    between atoms: C_11  and  O_12
REMARK                            x       y       z     vdW  Elec       q    Type
REMARK                         _______ _______ _______ _____ _____    ______ ____
ROOT
ATOM      1  C   UNL     1     -10.123   6.752 130.005  0.00  0.00    +0.000 A 
ATOM      2  C   UNL     1     -10.563   6.471 131.313  0.00  0.00    +0.000 A 
ATOM      3  C   UNL     1     -11.898   6.687 131.668  0.00  0.00    +0.000 A 
ATOM      4  C   UNL     1     -12.771   7.255 130.748  0.00  0.00    +0.000 A 
ATOM      5  C   UNL     1     -12.337   7.537 129.448  0.00  0.00    +0.000 A 
ATOM      6  C   UNL     1     -11.017   7.264 129.037  0.00  0.00    +0.000 A 
ENDROOT
BRANCH   6   7
ATOM      7  C   UNL     1     -10.605   7.435 127.600  0.00  0.00    +0.000 C 
ATOM      8  O   UNL     1     -10.883   8.423 126.930  0.00  0.00    +0.000 OA
BRANCH   7   9
ATOM      9  O   UNL     1      -9.863   6.448 127.057  0.00  0.00    +0.000 OA
ATOM     10  H   UNL     1     -10.157   5.531 127.163  0.00  0.00    +0.000 HD
ENDBRANCH   7   9
ENDBRANCH   6   7
BRANCH   1  11
ATOM     11  O   UNL     1      -8.790   6.371 129.707  0.00  0.00    +0.000 OA
BRANCH  11  13
ATOM     12  C   UNL     1      -7.414   4.665 130.655  0.00  0.00    +0.000 C 
ATOM     13  C   UNL     1      -8.521   5.002 129.693  0.00  0.00    +0.000 C 
ATOM     14  O   UNL     1      -9.084   4.178 128.981  0.00  0.00    +0.000 OA
ENDBRANCH  11  13
ENDBRANCH   1  11
TORSDOF 4
ENDMDL
MODEL 7
REMARK VINA RESULT:      -5.2      1.751      3.669
REMARK  Name = Acetylsalicylic acid
REMARK  5 active torsions:
REMARK  status: ('A' for Active; 'I' for Inactive)
REMARK    1  A    between atoms: C_1  and  C_2
REMARK    2  A    between atoms: C_2  and  O_4
REMARK    3  A    between atoms: O_4  and  C_5
REMARK    4  A    between atoms: C_10  and  C_11
REMARK    5  A    between atoms: C_11  and  O_12
REMARK                            x       y       z     vdW  Elec       q    Type
REMARK                         _______ _______ _______ _____ _____    ______ ____
ROOT
ATOM      1  C   UNL     1     -10.642   6.267 129.709  0.00  0.00    +0.000 A 
ATOM      2  C   UNL     1      -9.515   5.422 129.708  0.00  0.00    +0.000 A 
ATOM      3  C   UNL     1      -8.973   4.971 130.915  0.00  0.00    +0.000 A 
ATOM      4  C   UNL     1      -9.501   5.423 132.117  0.00  0.00    +0.000 A 
ATOM      5  C   UNL     1     -10.620   6.265 132.123  0.00  0.00    +0.000 A 
ATOM      6  C   UNL     1     -11.234   6.679 130.924  0.00  0.00    +0.000 A 
ENDROOT
BRANCH   6   7
ATOM      7  C   UNL     1     -12.520   7.462 130.947  0.00  0.00    +0.000 C 
ATOM      8  O   UNL     1     -13.480   7.164 131.648  0.00  0.00    +0.000 OA
BRANCH   7   9
ATOM      9  O   UNL     1     -12.576   8.564 130.170  0.00  0.00    +0.000 OA
ATOM     10  H   UNL     1     -11.922   8.670 129.465  0.00  0.00    +0.000 HD
ENDBRANCH   7   9
ENDBRANCH   6   7
BRANCH   1  11
ATOM     11  O   UNL     1     -11.197   6.557 128.437  0.00  0.00    +0.000 OA
BRANCH  11  13
ATOM     12  C   UNL     1     -10.975   7.591 126.295  0.00  0.00    +0.000 C 
ATOM     13  C   UNL     1     -10.684   7.669 127.770  0.00  0.00    +0.000 C 
ATOM     14  O   UNL     1     -10.056   8.582 128.296  0.00  0.00    +0.000 OA
ENDBRANCH  11  13
ENDBRANCH   1  11
TORSDOF 4
ENDMDL
MODEL 8
REMARK VINA RESULT:      -5.1      9.054     10.465
REMARK  Name = Acetylsalicylic acid
REMARK  5 active torsions:
REMARK  status: ('A' for Active; 'I' for Inactive)
REMARK    1  A    between atoms: C_1  and  C_2
REMARK    2  A    between atoms: C_2  and  O_4
REMARK    3  A    between atoms: O_4  and  C_5
REMARK    4  A    between atoms: C_10  and  C_11
REMARK    5  A    between atoms: C_11  and  O_12
REMARK                            x       y       z     vdW  Elec       q    Type
REMARK                         _______ _______ _______ _____ _____    ______ ____
ROOT
ATOM      1  C   UNL     1      -8.134  -1.591 127.021  0.00  0.00    +0.000 A 
ATOM      2  C   UNL     1      -7.750  -1.191 128.315  0.00  0.00    +0.000 A 
ATOM      3  C   UNL     1      -7.790  -2.103 129.374  0.00  0.00    +0.000 A 
ATOM      4  C   UNL     1      -8.285  -3.384 129.160  0.00  0.00    +0.000 A 
ATOM      5  C   UNL     1      -8.669  -3.784 127.875  0.00  0.00    +0.000 A 
ATOM      6  C   UNL     1      -8.573  -2.911 126.773  0.00  0.00    +0.000 A 
ENDROOT
BRANCH   6   7
ATOM      7  C   UNL     1      -8.849  -3.399 125.376  0.00  0.00    +0.000 C 
ATOM      8  O   UNL     1      -8.176  -4.256 124.814  0.00  0.00    +0.000 OA
BRANCH   7   9
ATOM      9  O   UNL     1      -9.920  -2.873 124.747  0.00  0.00    +0.000 OA
ATOM     10  H   UNL     1      -9.777  -2.177 124.088  0.00  0.00    +0.000 HD
ENDBRANCH   7   9
ENDBRANCH   6   7
BRANCH   1  11
ATOM     11  O   UNL     1      -7.927  -0.635 125.993  0.00  0.00    +0.000 OA
BRANCH  11  13
ATOM     12  C   UNL     1      -8.409   1.704 126.044  0.00  0.00    +0.000 C 
ATOM     13  C   UNL     1      -8.934   0.313 125.811  0.00  0.00    +0.000 C 
ATOM     14  O   UNL     1     -10.100   0.060 125.525  0.00  0.00    +0.000 OA
ENDBRANCH  11  13
ENDBRANCH   1  11
TORSDOF 4
ENDMDL
MODEL 9
REMARK VINA RESULT:      -5.0      9.546     10.949
REMARK  Name = Acetylsalicylic acid
REMARK  5 active torsions:
REMARK  status: ('A' for Active; 'I' for Inactive)
REMARK    1  A    between atoms: C_1  and  C_2
REMARK    2  A    between atoms: C_2  and  O_4
REMARK    3  A    between atoms: O_4  and  C_5
REMARK    4  A    between atoms: C_10  and  C_11
REMARK    5  A    between atoms: C_11  and  O_12
REMARK                            x       y       z     vdW  Elec       q    Type
REMARK                         _______ _______ _______ _____ _____    ______ ____
ROOT
ATOM      1  C   UNL     1      -8.830  -2.825 126.703  0.00  0.00    +0.000 A 
ATOM      2  C   UNL     1      -8.791  -3.776 127.741  0.00  0.00    +0.000 A 
ATOM      3  C   UNL     1      -8.238  -3.442 128.980  0.00  0.00    +0.000 A 
ATOM      4  C   UNL     1      -7.656  -2.193 129.159  0.00  0.00    +0.000 A 
ATOM      5  C   UNL     1      -7.692  -1.245 128.130  0.00  0.00    +0.000 A 
ATOM      6  C   UNL     1      -8.305  -1.526 126.893  0.00  0.00    +0.000 A 
ENDROOT
BRANCH   6   7
ATOM      7  C   UNL     1      -8.467  -0.453 125.850  0.00  0.00    +0.000 C 
ATOM      8  O   UNL     1      -7.528   0.177 125.378  0.00  0.00    +0.000 OA
BRANCH   7   9
ATOM      9  O   UNL     1      -9.719  -0.219 125.404  0.00  0.00    +0.000 OA
ATOM     10  H   UNL     1      -9.852   0.460 124.727  0.00  0.00    +0.000 HD
ENDBRANCH   7   9
ENDBRANCH   6   7
BRANCH   1  11
ATOM     11  O   UNL     1      -9.533  -3.216 125.535  0.00  0.00    +0.000 OA
BRANCH  11  13
ATOM     12  C   UNL     1      -9.422  -3.086 123.152  0.00  0.00    +0.000 C 
ATOM     13  C   UNL     1      -8.759  -3.547 124.422  0.00  0.00    +0.000 C 
ATOM     14  O   UNL     1      -7.693  -4.154 124.457  0.00  0.00    +0.000 OA
ENDBRANCH  11  13
ENDBRANCH   1  11
TORSDOF 4
ENDMDL
