MODEL 1
REMARK VINA RESULT:      -5.6      0.000      0.000
REMARK  Name = Acipimox
REMARK  3 active torsions:
REMARK  status: ('A' for Active; 'I' for Inactive)
REMARK    1  A    between atoms: C_1  and  C_2
REMARK    2  A    between atoms: CA_6  and  C_9
REMARK    3  A    between atoms: C_9  and  O_10
REMARK                            x       y       z     vdW  Elec       q    Type
REMARK                         _______ _______ _______ _____ _____    ______ ____
ROOT
ATOM      1  C   UNL     1     -13.133   7.642 131.479  0.00  0.00    +0.000 C 
ATOM      2  C   UNL     1     -12.334   7.577 130.216  0.00  0.00    +0.000 A 
ATOM      3  N   UNL     1     -12.304   8.669 129.365  0.00  0.00    +0.000 N 
ATOM      4  O   UNL     1     -12.911   9.749 129.645  0.00  0.00    +0.000 OA
ATOM      5  C   UNL     1     -11.608   8.581 128.183  0.00  0.00    +0.000 A 
ATOM      6  CA  UNL     1     -11.039   7.379 127.818  0.00  0.00    +0.000 A 
ATOM      7  N   UNL     1     -11.003   6.294 128.631  0.00  0.00    +0.000 NA
ATOM      8  C   UNL     1     -11.617   6.445 129.834  0.00  0.00    +0.000 A 
ENDROOT
BRANCH   6   9
ATOM      9  C   UNL     1     -10.490   7.258 126.436  0.00  0.00    +0.000 C 
ATOM     10  OXT UNL     1     -10.852   7.995 125.525  0.00  0.00    +0.000 OA
BRANCH   9  11
ATOM     11  O   UNL     1      -9.605   6.254 126.258  0.00  0.00    +0.000 OA
ATOM     12  H   UNL     1      -8.684   6.570 126.145  0.00  0.00    +0.000 HD
ENDBRANCH   9  11
ENDBRANCH   6   9
TORSDOF 2
ENDMDL
MODEL 2
REMARK VINA RESULT:      -5.2      1.896      2.107
REMARK  Name = Acipimox
REMARK  3 active torsions:
REMARK  status: ('A' for Active; 'I' for Inactive)
REMARK    1  A    between atoms: C_1  and  C_2
REMARK    2  A    between atoms: CA_6  and  C_9
REMARK    3  A    between atoms: C_9  and  O_10
REMARK                            x       y       z     vdW  Elec       q    Type
REMARK                         _______ _______ _______ _____ _____    ______ ____
ROOT
ATOM      1  C   UNL     1     -10.410   6.116 132.361  0.00  0.00    +0.000 C 
ATOM      2  C   UNL     1     -10.639   6.559 130.950  0.00  0.00    +0.000 A 
ATOM      3  N   UNL     1     -11.911   6.921 130.542  0.00  0.00    +0.000 N 
ATOM      4  O   UNL     1     -12.894   6.924 131.347  0.00  0.00    +0.000 OA
ATOM      5  C   UNL     1     -12.121   7.277 129.231  0.00  0.00    +0.000 A 
ATOM      6  CA  UNL     1     -11.087   7.171 128.325  0.00  0.00    +0.000 A 
ATOM      7  N   UNL     1      -9.815   6.862 128.680  0.00  0.00    +0.000 NA
ATOM      8  C   UNL     1      -9.621   6.610 130.000  0.00  0.00    +0.000 A 
ENDROOT
BRANCH   6   9
ATOM      9  C   UNL     1     -11.407   7.347 126.879  0.00  0.00    +0.000 C 
ATOM     10  OXT UNL     1     -10.858   8.201 126.190  0.00  0.00    +0.000 OA
BRANCH   9  11
ATOM     11  O   UNL     1     -12.370   6.529 126.402  0.00  0.00    +0.000 OA
ATOM     12  H   UNL     1     -13.192   6.553 126.935  0.00  0.00    +0.000 HD
ENDBRANCH   9  11
ENDBRANCH   6   9
TORSDOF 2
ENDMDL
MODEL 3
REMARK VINA RESULT:      -5.1      3.236      4.356
REMARK  Name = Acipimox
REMARK  3 active torsions:
REMARK  status: ('A' for Active; 'I' for Inactive)
REMARK    1  A    between atoms: C_1  and  C_2
REMARK    2  A    between atoms: CA_6  and  C_9
REMARK    3  A    between atoms: C_9  and  O_10
REMARK                            x       y       z     vdW  Elec       q    Type
REMARK                         _______ _______ _______ _____ _____    ______ ____
ROOT
ATOM      1  C   UNL     1     -12.921   8.636 128.461  0.00  0.00    +0.000 C 
ATOM      2  C   UNL     1     -12.142   7.963 129.547  0.00  0.00    +0.000 A 
ATOM      3  N   UNL     1     -10.772   7.809 129.414  0.00  0.00    +0.000 N 
ATOM      4  O   UNL     1     -10.145   8.258 128.405  0.00  0.00    +0.000 OA
ATOM      5  C   UNL     1     -10.073   7.144 130.394  0.00  0.00    +0.000 A 
ATOM      6  CA  UNL     1     -10.757   6.557 131.436  0.00  0.00    +0.000 A 
ATOM      7  N   UNL     1     -12.090   6.713 131.635  0.00  0.00    +0.000 NA
ATOM      8  C   UNL     1     -12.736   7.458 130.700  0.00  0.00    +0.000 A 
ENDROOT
BRANCH   6   9
ATOM      9  C   UNL     1      -9.996   5.658 132.352  0.00  0.00    +0.000 C 
ATOM     10  OXT UNL     1      -9.782   4.481 132.080  0.00  0.00    +0.000 OA
BRANCH   9  11
ATOM     11  O   UNL     1      -9.602   6.225 133.512  0.00  0.00    +0.000 OA
ATOM     12  H   UNL     1      -8.680   5.999 133.757  0.00  0.00    +0.000 HD
ENDBRANCH   9  11
ENDBRANCH   6   9
TORSDOF 2
ENDMDL
MODEL 4
REMARK VINA RESULT:      -5.0      3.437      4.434
REMARK  Name = Acipimox
REMARK  3 active torsions:
REMARK  status: ('A' for Active; 'I' for Inactive)
REMARK    1  A    between atoms: C_1  and  C_2
REMARK    2  A    between atoms: CA_6  and  C_9
REMARK    3  A    between atoms: C_9  and  O_10
REMARK                            x       y       z     vdW  Elec       q    Type
REMARK                         _______ _______ _______ _____ _____    ______ ____
ROOT
ATOM      1  C   UNL     1     -12.805   8.545 129.116  0.00  0.00    +0.000 C 
ATOM      2  C   UNL     1     -11.799   7.763 129.902  0.00  0.00    +0.000 A 
ATOM      3  N   UNL     1     -12.184   7.132 131.073  0.00  0.00    +0.000 N 
ATOM      4  O   UNL     1     -13.384   7.168 131.487  0.00  0.00    +0.000 OA
ATOM      5  C   UNL     1     -11.242   6.459 131.814  0.00  0.00    +0.000 A 
ATOM      6  CA  UNL     1      -9.917   6.508 131.434  0.00  0.00    +0.000 A 
ATOM      7  N   UNL     1      -9.495   7.075 130.276  0.00  0.00    +0.000 NA
ATOM      8  C   UNL     1     -10.466   7.648 129.518  0.00  0.00    +0.000 A 
ENDROOT
BRANCH   6   9
ATOM      9  C   UNL     1      -8.900   5.960 132.378  0.00  0.00    +0.000 C 
ATOM     10  OXT UNL     1      -7.944   5.297 131.992  0.00  0.00    +0.000 OA
BRANCH   9  11
ATOM     11  O   UNL     1      -9.137   6.213 133.683  0.00  0.00    +0.000 OA
ATOM     12  H   UNL     1      -9.083   7.166 133.906  0.00  0.00    +0.000 HD
ENDBRANCH   9  11
ENDBRANCH   6   9
TORSDOF 2
ENDMDL
MODEL 5
REMARK VINA RESULT:      -4.8      2.582      3.053
REMARK  Name = Acipimox
REMARK  3 active torsions:
REMARK  status: ('A' for Active; 'I' for Inactive)
REMARK    1  A    between atoms: C_1  and  C_2
REMARK    2  A    between atoms: CA_6  and  C_9
REMARK    3  A    between atoms: C_9  and  O_10
REMARK                            x       y       z     vdW  Elec       q    Type
REMARK                         _______ _______ _______ _____ _____    ______ ____
ROOT
ATOM      1  C   UNL     1     -13.047   9.504 129.713  0.00  0.00    +0.000 C 
ATOM      2  C   UNL     1     -12.105   8.349 129.574  0.00  0.00    +0.000 A 
ATOM      3  N   UNL     1     -12.221   7.263 130.425  0.00  0.00    +0.000 N 
ATOM      4  O   UNL     1     -13.135   7.199 131.305  0.00  0.00    +0.000 OA
ATOM      5  C   UNL     1     -11.320   6.230 130.323  0.00  0.00    +0.000 A 
ATOM      6  CA  UNL     1     -10.260   6.339 129.448  0.00  0.00    +0.000 A 
ATOM      7  N   UNL     1     -10.123   7.359 128.566  0.00  0.00    +0.000 NA
ATOM      8  C   UNL     1     -11.085   8.317 128.626  0.00  0.00    +0.000 A 
ENDROOT
BRANCH   6   9
ATOM      9  C   UNL     1      -9.183   5.308 129.526  0.00  0.00    +0.000 C 
ATOM     10  OXT UNL     1      -7.995   5.609 129.561  0.00  0.00    +0.000 OA
BRANCH   9  11
ATOM     11  O   UNL     1      -9.615   4.029 129.511  0.00  0.00    +0.000 OA
ATOM     12  H   UNL     1      -9.912   3.734 128.624  0.00  0.00    +0.000 HD
ENDBRANCH   9  11
ENDBRANCH   6   9
TORSDOF 2
ENDMDL
MODEL 6
REMARK VINA RESULT:      -4.8      7.885      9.722
REMARK  Name = Acipimox
REMARK  3 active torsions:
REMARK  status: ('A' for Active; 'I' for Inactive)
REMARK    1  A    between atoms: C_1  and  C_2
REMARK    2  A    between atoms: CA_6  and  C_9
REMARK    3  A    between atoms: C_9  and  O_10
REMARK                            x       y       z     vdW  Elec       q    Type
REMARK                         _______ _______ _______ _____ _____    ______ ____
ROOT
ATOM      1  C   UNL     1      -6.888   4.771 118.566  0.00  0.00    +0.000 C 
ATOM      2  C   UNL     1      -7.161   4.176 119.912  0.00  0.00    +0.000 A 
ATOM      3  N   UNL     1      -8.465   3.896 120.286  0.00  0.00    +0.000 N 
ATOM      4  O   UNL     1      -9.442   4.097 119.501  0.00  0.00    +0.000 OA
ATOM      5  C   UNL     1      -8.709   3.397 121.544  0.00  0.00    +0.000 A 
ATOM      6  CA  UNL     1      -7.670   3.279 122.442  0.00  0.00    +0.000 A 
ATOM      7  N   UNL     1      -6.373   3.499 122.113  0.00  0.00    +0.000 NA
ATOM      8  C   UNL     1      -6.154   3.899 120.833  0.00  0.00    +0.000 A 
ENDROOT
BRANCH   6   9
ATOM      9  C   UNL     1      -8.006   2.951 123.858  0.00  0.00    +0.000 C 
ATOM     10  OXT UNL     1      -7.941   1.807 124.295  0.00  0.00    +0.000 OA
BRANCH   9  11
ATOM     11  O   UNL     1      -8.426   3.997 124.603  0.00  0.00    +0.000 OA
ATOM     12  H   UNL     1      -9.363   4.233 124.440  0.00  0.00    +0.000 HD
ENDBRANCH   9  11
ENDBRANCH   6   9
TORSDOF 2
ENDMDL
MODEL 7
REMARK VINA RESULT:      -4.8      1.854      3.876
REMARK  Name = Acipimox
REMARK  3 active torsions:
REMARK  status: ('A' for Active; 'I' for Inactive)
REMARK    1  A    between atoms: C_1  and  C_2
REMARK    2  A    between atoms: CA_6  and  C_9
REMARK    3  A    between atoms: C_9  and  O_10
REMARK                            x       y       z     vdW  Elec       q    Type
REMARK                         _______ _______ _______ _____ _____    ______ ____
ROOT
ATOM      1  C   UNL     1      -9.832   4.562 130.529  0.00  0.00    +0.000 C 
ATOM      2  C   UNL     1     -10.711   5.746 130.274  0.00  0.00    +0.000 A 
ATOM      3  N   UNL     1     -10.536   6.496 129.123  0.00  0.00    +0.000 N 
ATOM      4  O   UNL     1      -9.667   6.186 128.251  0.00  0.00    +0.000 OA
ATOM      5  C   UNL     1     -11.315   7.611 128.923  0.00  0.00    +0.000 A 
ATOM      6  CA  UNL     1     -12.182   8.020 129.913  0.00  0.00    +0.000 A 
ATOM      7  N   UNL     1     -12.422   7.300 131.038  0.00  0.00    +0.000 NA
ATOM      8  C   UNL     1     -11.706   6.152 131.160  0.00  0.00    +0.000 A 
ENDROOT
BRANCH   6   9
ATOM      9  C   UNL     1     -12.840   9.350 129.759  0.00  0.00    +0.000 C 
ATOM     10  OXT UNL     1     -13.192  10.019 130.725  0.00  0.00    +0.000 OA
BRANCH   9  11
ATOM     11  O   UNL     1     -13.056   9.737 128.483  0.00  0.00    +0.000 OA
ATOM     12  H   UNL     1     -13.939  10.139 128.348  0.00  0.00    +0.000 HD
ENDBRANCH   9  11
ENDBRANCH   6   9
TORSDOF 2
ENDMDL
MODEL 8
REMARK VINA RESULT:      -4.7      2.464      3.001
REMARK  Name = Acipimox
REMARK  3 active torsions:
REMARK  status: ('A' for Active; 'I' for Inactive)
REMARK    1  A    between atoms: C_1  and  C_2
REMARK    2  A    between atoms: CA_6  and  C_9
REMARK    3  A    between atoms: C_9  and  O_10
REMARK                            x       y       z     vdW  Elec       q    Type
REMARK                         _______ _______ _______ _____ _____    ______ ____
ROOT
ATOM      1  C   UNL     1      -9.334   4.518 132.121  0.00  0.00    +0.000 C 
ATOM      2  C   UNL     1      -9.574   5.351 130.902  0.00  0.00    +0.000 A 
ATOM      3  N   UNL     1     -10.407   6.455 130.979  0.00  0.00    +0.000 N 
ATOM      4  O   UNL     1     -10.950   6.806 132.072  0.00  0.00    +0.000 OA
ATOM      5  C   UNL     1     -10.662   7.185 129.842  0.00  0.00    +0.000 A 
ATOM      6  CA  UNL     1     -10.168   6.749 128.631  0.00  0.00    +0.000 A 
ATOM      7  N   UNL     1      -9.316   5.702 128.507  0.00  0.00    +0.000 NA
ATOM      8  C   UNL     1      -9.007   5.060 129.664  0.00  0.00    +0.000 A 
ENDROOT
BRANCH   6   9
ATOM      9  C   UNL     1     -10.649   7.433 127.395  0.00  0.00    +0.000 C 
ATOM     10  OXT UNL     1     -10.733   6.851 126.319  0.00  0.00    +0.000 OA
BRANCH   9  11
ATOM     11  O   UNL     1     -10.940   8.743 127.543  0.00  0.00    +0.000 OA
ATOM     12  H   UNL     1     -11.053   9.008 128.480  0.00  0.00    +0.000 HD
ENDBRANCH   9  11
ENDBRANCH   6   9
TORSDOF 2
ENDMDL
MODEL 9
REMARK VINA RESULT:      -4.6      7.077      8.903
REMARK  Name = Acipimox
REMARK  3 active torsions:
REMARK  status: ('A' for Active; 'I' for Inactive)
REMARK    1  A    between atoms: C_1  and  C_2
REMARK    2  A    between atoms: CA_6  and  C_9
REMARK    3  A    between atoms: C_9  and  O_10
REMARK                            x       y       z     vdW  Elec       q    Type
REMARK                         _______ _______ _______ _____ _____    ______ ____
ROOT
ATOM      1  C   UNL     1      -9.025  -1.844 123.020  0.00  0.00    +0.000 C 
ATOM      2  C   UNL     1      -8.858  -0.448 123.533  0.00  0.00    +0.000 A 
ATOM      3  N   UNL     1      -9.770   0.529 123.172  0.00  0.00    +0.000 N 
ATOM      4  O   UNL     1     -10.775   0.266 122.441  0.00  0.00    +0.000 OA
ATOM      5  C   UNL     1      -9.579   1.819 123.607  0.00  0.00    +0.000 A 
ATOM      6  CA  UNL     1      -8.435   2.138 124.306  0.00  0.00    +0.000 A 
ATOM      7  N   UNL     1      -7.533   1.213 124.720  0.00  0.00    +0.000 NA
ATOM      8  C   UNL     1      -7.801  -0.068 124.357  0.00  0.00    +0.000 A 
ENDROOT
BRANCH   6   9
ATOM      9  C   UNL     1      -8.154   3.580 124.563  0.00  0.00    +0.000 C 
ATOM     10  OXT UNL     1      -8.801   4.236 125.373  0.00  0.00    +0.000 OA
BRANCH   9  11
ATOM     11  O   UNL     1      -7.169   4.114 123.809  0.00  0.00    +0.000 OA
ATOM     12  H   UNL     1      -6.486   4.575 124.340  0.00  0.00    +0.000 HD
ENDBRANCH   9  11
ENDBRANCH   6   9
TORSDOF 2
ENDMDL
