MODEL 1
REMARK VINA RESULT:      -7.0      0.000      0.000
REMARK  Name = Acitretin
REMARK  13 active torsions:
REMARK  status: ('A' for Active; 'I' for Inactive)
REMARK    1  A    between atoms: C_1  and  O_2
REMARK    2  A    between atoms: O_2  and  C_3
REMARK    3  A    between atoms: C_4  and  C_5
REMARK    4  A    between atoms: C_6  and  C_7
REMARK    5  A    between atoms: C_8  and  C_9
REMARK    6  A    between atoms: C_10  and  C_11
REMARK    7  A    between atoms: C_11  and  C_12
REMARK    8  A    between atoms: C_13  and  C_14
REMARK    9  A    between atoms: C_15  and  C_16
REMARK   10  A    between atoms: C_16  and  C_17
REMARK   11  A    between atoms: C_18  and  C_19
REMARK   12  A    between atoms: C_19  and  O_20
REMARK   13  A    between atoms: C_22  and  C_23
REMARK                            x       y       z     vdW  Elec       q    Type
REMARK                         _______ _______ _______ _____ _____    ______ ____
ROOT
ATOM      1  C   UNL     1      -3.237   5.567 130.176  0.00  0.00    +0.000 C 
ATOM      2  C   UNL     1      -2.611   5.134 129.072  0.00  0.00    +0.000 C 
ENDROOT
BRANCH   1   8
ATOM      3  C   UNL     1      -1.633   7.450 133.790  0.00  0.00    +0.000 A 
ATOM      4  C   UNL     1      -2.227   8.216 132.787  0.00  0.00    +0.000 A 
ATOM      5  C   UNL     1      -2.267   9.715 132.877  0.00  0.00    +0.000 C 
ATOM      6  C   UNL     1      -2.778   7.570 131.634  0.00  0.00    +0.000 A 
ATOM      7  C   UNL     1      -3.456   8.450 130.590  0.00  0.00    +0.000 C 
ATOM      8  C   UNL     1      -2.676   6.141 131.444  0.00  0.00    +0.000 A 
ATOM      9  C   UNL     1      -2.046   5.390 132.468  0.00  0.00    +0.000 A 
ATOM     10  C   UNL     1      -1.824   3.900 132.523  0.00  0.00    +0.000 C 
ATOM     11  C   UNL     1      -1.527   6.068 133.603  0.00  0.00    +0.000 A 
BRANCH   3  13
ATOM     12  C   UNL     1       0.409   7.654 135.045  0.00  0.00    +0.000 C 
ATOM     13  O   UNL     1      -0.979   7.955 134.884  0.00  0.00    +0.000 OA
ENDBRANCH   3  13
ENDBRANCH   1   8
BRANCH   2  14
ATOM     14  C   UNL     1      -3.097   4.554 127.845  0.00  0.00    +0.000 C 
ATOM     15  C   UNL     1      -2.228   3.557 127.139  0.00  0.00    +0.000 C 
ATOM     16  C   UNL     1      -4.324   4.932 127.402  0.00  0.00    +0.000 C 
BRANCH  16  17
ATOM     17  C   UNL     1      -4.907   4.394 126.205  0.00  0.00    +0.000 C 
ATOM     18  C   UNL     1      -5.754   4.969 125.337  0.00  0.00    +0.000 C 
BRANCH  18  19
ATOM     19  C   UNL     1      -6.263   4.265 124.149  0.00  0.00    +0.000 C 
ATOM     20  C   UNL     1      -5.423   4.279 122.905  0.00  0.00    +0.000 C 
ATOM     21  C   UNL     1      -7.451   3.620 124.169  0.00  0.00    +0.000 C 
BRANCH  21  22
ATOM     22  C   UNL     1      -8.166   2.852 123.116  0.00  0.00    +0.000 C 
ATOM     23  O   UNL     1      -8.221   1.622 123.190  0.00  0.00    +0.000 OA
BRANCH  22  24
ATOM     24  O   UNL     1      -8.752   3.481 122.091  0.00  0.00    +0.000 OA
ATOM     25  H   UNL     1      -9.714   3.495 122.001  0.00  0.00    +0.000 HD
ENDBRANCH  22  24
ENDBRANCH  21  22
ENDBRANCH  18  19
ENDBRANCH  16  17
ENDBRANCH   2  14
TORSDOF 7
ENDMDL
MODEL 2
REMARK VINA RESULT:      -7.0      7.006      8.794
REMARK  Name = Acitretin
REMARK  13 active torsions:
REMARK  status: ('A' for Active; 'I' for Inactive)
REMARK    1  A    between atoms: C_1  and  O_2
REMARK    2  A    between atoms: O_2  and  C_3
REMARK    3  A    between atoms: C_4  and  C_5
REMARK    4  A    between atoms: C_6  and  C_7
REMARK    5  A    between atoms: C_8  and  C_9
REMARK    6  A    between atoms: C_10  and  C_11
REMARK    7  A    between atoms: C_11  and  C_12
REMARK    8  A    between atoms: C_13  and  C_14
REMARK    9  A    between atoms: C_15  and  C_16
REMARK   10  A    between atoms: C_16  and  C_17
REMARK   11  A    between atoms: C_18  and  C_19
REMARK   12  A    between atoms: C_19  and  O_20
REMARK   13  A    between atoms: C_22  and  C_23
REMARK                            x       y       z     vdW  Elec       q    Type
REMARK                         _______ _______ _______ _____ _____    ______ ____
ROOT
ATOM      1  C   UNL     1      -6.897  -0.801 126.939  0.00  0.00    +0.000 C 
ATOM      2  C   UNL     1      -6.992  -1.167 125.653  0.00  0.00    +0.000 C 
ENDROOT
BRANCH   1   8
ATOM      3  C   UNL     1      -6.491  -3.126 130.628  0.00  0.00    +0.000 A 
ATOM      4  C   UNL     1      -5.734  -1.972 130.422  0.00  0.00    +0.000 A 
ATOM      5  C   UNL     1      -4.701  -1.534 131.421  0.00  0.00    +0.000 C 
ATOM      6  C   UNL     1      -5.915  -1.210 129.223  0.00  0.00    +0.000 A 
ATOM      7  C   UNL     1      -5.096   0.065 129.069  0.00  0.00    +0.000 C 
ATOM      8  C   UNL     1      -6.819  -1.641 128.180  0.00  0.00    +0.000 A 
ATOM      9  C   UNL     1      -7.557  -2.829 128.408  0.00  0.00    +0.000 A 
ATOM     10  C   UNL     1      -8.566  -3.482 127.497  0.00  0.00    +0.000 C 
ATOM     11  C   UNL     1      -7.359  -3.547 129.616  0.00  0.00    +0.000 A 
BRANCH   3  13
ATOM     12  C   UNL     1      -5.466  -5.116 131.509  0.00  0.00    +0.000 C 
ATOM     13  O   UNL     1      -6.334  -3.993 131.678  0.00  0.00    +0.000 OA
ENDBRANCH   3  13
ENDBRANCH   1   8
BRANCH   2  14
ATOM     14  C   UNL     1      -7.095  -0.406 124.433  0.00  0.00    +0.000 C 
ATOM     15  C   UNL     1      -7.280  -1.152 123.146  0.00  0.00    +0.000 C 
ATOM     16  C   UNL     1      -7.034   0.948 124.517  0.00  0.00    +0.000 C 
BRANCH  16  17
ATOM     17  C   UNL     1      -7.152   1.796 123.364  0.00  0.00    +0.000 C 
ATOM     18  C   UNL     1      -6.344   2.782 122.945  0.00  0.00    +0.000 C 
BRANCH  18  19
ATOM     19  C   UNL     1      -6.620   3.562 121.727  0.00  0.00    +0.000 C 
ATOM     20  C   UNL     1      -8.015   3.538 121.174  0.00  0.00    +0.000 C 
ATOM     21  C   UNL     1      -5.651   4.282 121.119  0.00  0.00    +0.000 C 
BRANCH  21  22
ATOM     22  C   UNL     1      -5.683   5.134 119.902  0.00  0.00    +0.000 C 
ATOM     23  O   UNL     1      -5.010   6.168 119.863  0.00  0.00    +0.000 OA
BRANCH  22  24
ATOM     24  O   UNL     1      -6.432   4.792 118.848  0.00  0.00    +0.000 OA
ATOM     25  H   UNL     1      -7.366   4.566 118.955  0.00  0.00    +0.000 HD
ENDBRANCH  22  24
ENDBRANCH  21  22
ENDBRANCH  18  19
ENDBRANCH  16  17
ENDBRANCH   2  14
TORSDOF 7
ENDMDL
MODEL 3
REMARK VINA RESULT:      -6.9      2.843      4.228
REMARK  Name = Acitretin
REMARK  13 active torsions:
REMARK  status: ('A' for Active; 'I' for Inactive)
REMARK    1  A    between atoms: C_1  and  O_2
REMARK    2  A    between atoms: O_2  and  C_3
REMARK    3  A    between atoms: C_4  and  C_5
REMARK    4  A    between atoms: C_6  and  C_7
REMARK    5  A    between atoms: C_8  and  C_9
REMARK    6  A    between atoms: C_10  and  C_11
REMARK    7  A    between atoms: C_11  and  C_12
REMARK    8  A    between atoms: C_13  and  C_14
REMARK    9  A    between atoms: C_15  and  C_16
REMARK   10  A    between atoms: C_16  and  C_17
REMARK   11  A    between atoms: C_18  and  C_19
REMARK   12  A    between atoms: C_19  and  O_20
REMARK   13  A    between atoms: C_22  and  C_23
REMARK                            x       y       z     vdW  Elec       q    Type
REMARK                         _______ _______ _______ _____ _____    ______ ____
ROOT
ATOM      1  C   UNL     1      -4.320   4.019 128.525  0.00  0.00    +0.000 C 
ATOM      2  C   UNL     1      -4.031   3.204 127.500  0.00  0.00    +0.000 C 
ENDROOT
BRANCH   1   8
ATOM      3  C   UNL     1      -1.834   5.452 131.832  0.00  0.00    +0.000 A 
ATOM      4  C   UNL     1      -2.651   4.332 131.985  0.00  0.00    +0.000 A 
ATOM      5  C   UNL     1      -2.764   3.628 133.307  0.00  0.00    +0.000 C 
ATOM      6  C   UNL     1      -3.424   3.862 130.874  0.00  0.00    +0.000 A 
ATOM      7  C   UNL     1      -4.264   2.608 131.081  0.00  0.00    +0.000 C 
ATOM      8  C   UNL     1      -3.435   4.561 129.609  0.00  0.00    +0.000 A 
ATOM      9  C   UNL     1      -2.613   5.709 129.491  0.00  0.00    +0.000 A 
ATOM     10  C   UNL     1      -2.434   6.601 128.289  0.00  0.00    +0.000 C 
ATOM     11  C   UNL     1      -1.851   6.133 130.611  0.00  0.00    +0.000 A 
BRANCH   3  13
ATOM     12  C   UNL     1      -0.369   7.226 132.535  0.00  0.00    +0.000 C 
ATOM     13  O   UNL     1      -1.133   6.058 132.843  0.00  0.00    +0.000 OA
ENDBRANCH   3  13
ENDBRANCH   1   8
BRANCH   2  14
ATOM     14  C   UNL     1      -4.844   2.637 126.453  0.00  0.00    +0.000 C 
ATOM     15  C   UNL     1      -5.173   3.493 125.268  0.00  0.00    +0.000 C 
ATOM     16  C   UNL     1      -5.255   1.350 126.590  0.00  0.00    +0.000 C 
BRANCH  16  17
ATOM     17  C   UNL     1      -6.046   0.686 125.592  0.00  0.00    +0.000 C 
ATOM     18  C   UNL     1      -5.980  -0.582 125.158  0.00  0.00    +0.000 C 
BRANCH  18  19
ATOM     19  C   UNL     1      -6.876  -1.104 124.112  0.00  0.00    +0.000 C 
ATOM     20  C   UNL     1      -6.255  -1.772 122.920  0.00  0.00    +0.000 C 
ATOM     21  C   UNL     1      -8.219  -0.989 124.214  0.00  0.00    +0.000 C 
BRANCH  21  22
ATOM     22  C   UNL     1      -9.310  -1.428 123.306  0.00  0.00    +0.000 C 
ATOM     23  O   UNL     1      -9.864  -0.603 122.575  0.00  0.00    +0.000 OA
BRANCH  22  24
ATOM     24  O   UNL     1      -9.698  -2.708 123.272  0.00  0.00    +0.000 OA
ATOM     25  H   UNL     1      -9.745  -3.234 124.081  0.00  0.00    +0.000 HD
ENDBRANCH  22  24
ENDBRANCH  21  22
ENDBRANCH  18  19
ENDBRANCH  16  17
ENDBRANCH   2  14
TORSDOF 7
ENDMDL
MODEL 4
REMARK VINA RESULT:      -6.9      8.079      9.861
REMARK  Name = Acitretin
REMARK  13 active torsions:
REMARK  status: ('A' for Active; 'I' for Inactive)
REMARK    1  A    between atoms: C_1  and  O_2
REMARK    2  A    between atoms: O_2  and  C_3
REMARK    3  A    between atoms: C_4  and  C_5
REMARK    4  A    between atoms: C_6  and  C_7
REMARK    5  A    between atoms: C_8  and  C_9
REMARK    6  A    between atoms: C_10  and  C_11
REMARK    7  A    between atoms: C_11  and  C_12
REMARK    8  A    between atoms: C_13  and  C_14
REMARK    9  A    between atoms: C_15  and  C_16
REMARK   10  A    between atoms: C_16  and  C_17
REMARK   11  A    between atoms: C_18  and  C_19
REMARK   12  A    between atoms: C_19  and  O_20
REMARK   13  A    between atoms: C_22  and  C_23
REMARK                            x       y       z     vdW  Elec       q    Type
REMARK                         _______ _______ _______ _____ _____    ______ ____
ROOT
ATOM      1  C   UNL     1      -7.763   8.488 137.271  0.00  0.00    +0.000 C 
ATOM      2  C   UNL     1      -7.558   7.196 137.566  0.00  0.00    +0.000 C 
ENDROOT
BRANCH   1   8
ATOM      3  C   UNL     1      -8.575  11.891 139.904  0.00  0.00    +0.000 A 
ATOM      4  C   UNL     1      -7.279  11.621 139.463  0.00  0.00    +0.000 A 
ATOM      5  C   UNL     1      -6.112  12.438 139.937  0.00  0.00    +0.000 C 
ATOM      6  C   UNL     1      -7.049  10.524 138.571  0.00  0.00    +0.000 A 
ATOM      7  C   UNL     1      -5.623  10.301 138.083  0.00  0.00    +0.000 C 
ATOM      8  C   UNL     1      -8.118   9.640 138.164  0.00  0.00    +0.000 A 
ATOM      9  C   UNL     1      -9.419   9.925 138.647  0.00  0.00    +0.000 A 
ATOM     10  C   UNL     1     -10.698   9.176 138.367  0.00  0.00    +0.000 C 
ATOM     11  C   UNL     1      -9.607  11.031 139.518  0.00  0.00    +0.000 A 
BRANCH   3  13
ATOM     12  C   UNL     1     -10.192  13.458 140.750  0.00  0.00    +0.000 C 
ATOM     13  O   UNL     1      -8.906  12.840 140.837  0.00  0.00    +0.000 OA
ENDBRANCH   3  13
ENDBRANCH   1   8
BRANCH   2  14
ATOM     14  C   UNL     1      -7.243   6.052 136.748  0.00  0.00    +0.000 C 
ATOM     15  C   UNL     1      -6.006   5.270 137.070  0.00  0.00    +0.000 C 
ATOM     16  C   UNL     1      -8.094   5.735 135.738  0.00  0.00    +0.000 C 
BRANCH  16  17
ATOM     17  C   UNL     1      -7.882   4.600 134.883  0.00  0.00    +0.000 C 
ATOM     18  C   UNL     1      -8.766   3.917 134.140  0.00  0.00    +0.000 C 
BRANCH  18  19
ATOM     19  C   UNL     1      -8.375   2.762 133.314  0.00  0.00    +0.000 C 
ATOM     20  C   UNL     1      -6.991   2.208 133.487  0.00  0.00    +0.000 C 
ATOM     21  C   UNL     1      -9.231   2.211 132.425  0.00  0.00    +0.000 C 
BRANCH  21  22
ATOM     22  C   UNL     1      -9.071   1.063 131.495  0.00  0.00    +0.000 C 
ATOM     23  O   UNL     1      -8.520   1.234 130.405  0.00  0.00    +0.000 OA
BRANCH  22  24
ATOM     24  O   UNL     1      -9.516  -0.154 131.829  0.00  0.00    +0.000 OA
ATOM     25  H   UNL     1      -8.957  -0.769 132.322  0.00  0.00    +0.000 HD
ENDBRANCH  22  24
ENDBRANCH  21  22
ENDBRANCH  18  19
ENDBRANCH  16  17
ENDBRANCH   2  14
TORSDOF 7
ENDMDL
MODEL 5
REMARK VINA RESULT:      -6.8      8.271      9.325
REMARK  Name = Acitretin
REMARK  13 active torsions:
REMARK  status: ('A' for Active; 'I' for Inactive)
REMARK    1  A    between atoms: C_1  and  O_2
REMARK    2  A    between atoms: O_2  and  C_3
REMARK    3  A    between atoms: C_4  and  C_5
REMARK    4  A    between atoms: C_6  and  C_7
REMARK    5  A    between atoms: C_8  and  C_9
REMARK    6  A    between atoms: C_10  and  C_11
REMARK    7  A    between atoms: C_11  and  C_12
REMARK    8  A    between atoms: C_13  and  C_14
REMARK    9  A    between atoms: C_15  and  C_16
REMARK   10  A    between atoms: C_16  and  C_17
REMARK   11  A    between atoms: C_18  and  C_19
REMARK   12  A    between atoms: C_19  and  O_20
REMARK   13  A    between atoms: C_22  and  C_23
REMARK                            x       y       z     vdW  Elec       q    Type
REMARK                         _______ _______ _______ _____ _____    ______ ____
ROOT
ATOM      1  C   UNL     1      -6.932  -2.843 130.462  0.00  0.00    +0.000 C 
ATOM      2  C   UNL     1      -7.724  -3.495 129.599  0.00  0.00    +0.000 C 
ENDROOT
BRANCH   1   8
ATOM      3  C   UNL     1      -5.455  -3.868 134.455  0.00  0.00    +0.000 A 
ATOM      4  C   UNL     1      -6.118  -2.663 134.225  0.00  0.00    +0.000 A 
ATOM      5  C   UNL     1      -6.279  -1.645 135.318  0.00  0.00    +0.000 C 
ATOM      6  C   UNL     1      -6.625  -2.371 132.917  0.00  0.00    +0.000 A 
ATOM      7  C   UNL     1      -7.381  -1.061 132.731  0.00  0.00    +0.000 C 
ATOM      8  C   UNL     1      -6.408  -3.265 131.803  0.00  0.00    +0.000 A 
ATOM      9  C   UNL     1      -5.711  -4.472 132.061  0.00  0.00    +0.000 A 
ATOM     10  C   UNL     1      -5.368  -5.572 131.089  0.00  0.00    +0.000 C 
ATOM     11  C   UNL     1      -5.239  -4.730 133.375  0.00  0.00    +0.000 A 
BRANCH   3  13
ATOM     12  C   UNL     1      -3.476  -4.655 135.574  0.00  0.00    +0.000 C 
ATOM     13  O   UNL     1      -4.835  -4.214 135.627  0.00  0.00    +0.000 OA
ENDBRANCH   3  13
ENDBRANCH   1   8
BRANCH   2  14
ATOM     14  C   UNL     1      -8.274  -3.127 128.318  0.00  0.00    +0.000 C 
ATOM     15  C   UNL     1      -9.296  -4.032 127.699  0.00  0.00    +0.000 C 
ATOM     16  C   UNL     1      -7.847  -1.971 127.747  0.00  0.00    +0.000 C 
BRANCH  16  17
ATOM     17  C   UNL     1      -8.352  -1.505 126.486  0.00  0.00    +0.000 C 
ATOM     18  C   UNL     1      -7.875  -1.711 125.249  0.00  0.00    +0.000 C 
BRANCH  18  19
ATOM     19  C   UNL     1      -8.521  -1.149 124.052  0.00  0.00    +0.000 C 
ATOM     20  C   UNL     1      -8.456  -1.939 122.778  0.00  0.00    +0.000 C 
ATOM     21  C   UNL     1      -9.158   0.043 124.090  0.00  0.00    +0.000 C 
BRANCH  21  22
ATOM     22  C   UNL     1      -9.872   0.805 123.033  0.00  0.00    +0.000 C 
ATOM     23  O   UNL     1     -10.930   0.367 122.575  0.00  0.00    +0.000 OA
BRANCH  22  24
ATOM     24  O   UNL     1      -9.380   1.962 122.574  0.00  0.00    +0.000 OA
ATOM     25  H   UNL     1      -8.477   2.018 122.235  0.00  0.00    +0.000 HD
ENDBRANCH  22  24
ENDBRANCH  21  22
ENDBRANCH  18  19
ENDBRANCH  16  17
ENDBRANCH   2  14
TORSDOF 7
ENDMDL
MODEL 6
REMARK VINA RESULT:      -6.8      1.893      3.449
REMARK  Name = Acitretin
REMARK  13 active torsions:
REMARK  status: ('A' for Active; 'I' for Inactive)
REMARK    1  A    between atoms: C_1  and  O_2
REMARK    2  A    between atoms: O_2  and  C_3
REMARK    3  A    between atoms: C_4  and  C_5
REMARK    4  A    between atoms: C_6  and  C_7
REMARK    5  A    between atoms: C_8  and  C_9
REMARK    6  A    between atoms: C_10  and  C_11
REMARK    7  A    between atoms: C_11  and  C_12
REMARK    8  A    between atoms: C_13  and  C_14
REMARK    9  A    between atoms: C_15  and  C_16
REMARK   10  A    between atoms: C_16  and  C_17
REMARK   11  A    between atoms: C_18  and  C_19
REMARK   12  A    between atoms: C_19  and  O_20
REMARK   13  A    between atoms: C_22  and  C_23
REMARK                            x       y       z     vdW  Elec       q    Type
REMARK                         _______ _______ _______ _____ _____    ______ ____
ROOT
ATOM      1  C   UNL     1      -4.293   4.057 128.651  0.00  0.00    +0.000 C 
ATOM      2  C   UNL     1      -4.032   3.307 127.571  0.00  0.00    +0.000 C 
ENDROOT
BRANCH   1   8
ATOM      3  C   UNL     1      -1.640   5.940 131.583  0.00  0.00    +0.000 A 
ATOM      4  C   UNL     1      -2.393   4.814 131.918  0.00  0.00    +0.000 A 
ATOM      5  C   UNL     1      -2.378   4.259 133.313  0.00  0.00    +0.000 C 
ATOM      6  C   UNL     1      -3.223   4.196 130.928  0.00  0.00    +0.000 A 
ATOM      7  C   UNL     1      -3.988   2.942 131.334  0.00  0.00    +0.000 C 
ATOM      8  C   UNL     1      -3.357   4.748 129.599  0.00  0.00    +0.000 A 
ATOM      9  C   UNL     1      -2.598   5.905 129.294  0.00  0.00    +0.000 A 
ATOM     10  C   UNL     1      -2.546   6.664 127.992  0.00  0.00    +0.000 C 
ATOM     11  C   UNL     1      -1.776   6.479 130.300  0.00  0.00    +0.000 A 
BRANCH   3  13
ATOM     12  C   UNL     1      -1.401   7.950 132.882  0.00  0.00    +0.000 C 
ATOM     13  O   UNL     1      -0.896   6.680 132.464  0.00  0.00    +0.000 OA
ENDBRANCH   3  13
ENDBRANCH   1   8
BRANCH   2  14
ATOM     14  C   UNL     1      -4.887   2.603 126.648  0.00  0.00    +0.000 C 
ATOM     15  C   UNL     1      -4.995   1.114 126.777  0.00  0.00    +0.000 C 
ATOM     16  C   UNL     1      -5.560   3.330 125.720  0.00  0.00    +0.000 C 
BRANCH  16  17
ATOM     17  C   UNL     1      -6.454   2.726 124.772  0.00  0.00    +0.000 C 
ATOM     18  C   UNL     1      -7.692   3.099 124.411  0.00  0.00    +0.000 C 
BRANCH  18  19
ATOM     19  C   UNL     1      -8.480   2.355 123.415  0.00  0.00    +0.000 C 
ATOM     20  C   UNL     1      -8.732   3.004 122.086  0.00  0.00    +0.000 C 
ATOM     21  C   UNL     1      -8.967   1.122 123.682  0.00  0.00    +0.000 C 
BRANCH  21  22
ATOM     22  C   UNL     1      -9.775   0.189 122.855  0.00  0.00    +0.000 C 
ATOM     23  O   UNL     1      -9.272  -0.863 122.454  0.00  0.00    +0.000 OA
BRANCH  22  24
ATOM     24  O   UNL     1     -11.044   0.479 122.541  0.00  0.00    +0.000 OA
ATOM     25  H   UNL     1     -11.777   0.119 123.057  0.00  0.00    +0.000 HD
ENDBRANCH  22  24
ENDBRANCH  21  22
ENDBRANCH  18  19
ENDBRANCH  16  17
ENDBRANCH   2  14
TORSDOF 7
ENDMDL
MODEL 7
REMARK VINA RESULT:      -6.8      9.654     11.091
REMARK  Name = Acitretin
REMARK  13 active torsions:
REMARK  status: ('A' for Active; 'I' for Inactive)
REMARK    1  A    between atoms: C_1  and  O_2
REMARK    2  A    between atoms: O_2  and  C_3
REMARK    3  A    between atoms: C_4  and  C_5
REMARK    4  A    between atoms: C_6  and  C_7
REMARK    5  A    between atoms: C_8  and  C_9
REMARK    6  A    between atoms: C_10  and  C_11
REMARK    7  A    between atoms: C_11  and  C_12
REMARK    8  A    between atoms: C_13  and  C_14
REMARK    9  A    between atoms: C_15  and  C_16
REMARK   10  A    between atoms: C_16  and  C_17
REMARK   11  A    between atoms: C_18  and  C_19
REMARK   12  A    between atoms: C_19  and  O_20
REMARK   13  A    between atoms: C_22  and  C_23
REMARK                            x       y       z     vdW  Elec       q    Type
REMARK                         _______ _______ _______ _____ _____    ______ ____
ROOT
ATOM      1  C   UNL     1      -6.017  -4.113 132.784  0.00  0.00    +0.000 C 
ATOM      2  C   UNL     1      -5.838  -4.556 131.531  0.00  0.00    +0.000 C 
ENDROOT
BRANCH   1   8
ATOM      3  C   UNL     1      -5.718  -6.095 136.677  0.00  0.00    +0.000 A 
ATOM      4  C   UNL     1      -6.878  -5.413 136.309  0.00  0.00    +0.000 A 
ATOM      5  C   UNL     1      -8.030  -5.269 137.262  0.00  0.00    +0.000 C 
ATOM      6  C   UNL     1      -6.962  -4.807 135.014  0.00  0.00    +0.000 A 
ATOM      7  C   UNL     1      -8.268  -4.113 134.645  0.00  0.00    +0.000 C 
ATOM      8  C   UNL     1      -5.847  -4.823 134.094  0.00  0.00    +0.000 A 
ATOM      9  C   UNL     1      -4.674  -5.504 134.505  0.00  0.00    +0.000 A 
ATOM     10  C   UNL     1      -3.387  -5.680 133.739  0.00  0.00    +0.000 C 
ATOM     11  C   UNL     1      -4.636  -6.105 135.791  0.00  0.00    +0.000 A 
BRANCH   3  13
ATOM     12  C   UNL     1      -4.195  -6.402 138.514  0.00  0.00    +0.000 C 
ATOM     13  O   UNL     1      -5.477  -6.622 137.919  0.00  0.00    +0.000 OA
ENDBRANCH   3  13
ENDBRANCH   1   8
BRANCH   2  14
ATOM     14  C   UNL     1      -6.012  -3.928 130.245  0.00  0.00    +0.000 C 
ATOM     15  C   UNL     1      -4.786  -3.543 129.474  0.00  0.00    +0.000 C 
ATOM     16  C   UNL     1      -7.278  -3.731 129.796  0.00  0.00    +0.000 C 
BRANCH  16  17
ATOM     17  C   UNL     1      -7.556  -3.136 128.518  0.00  0.00    +0.000 C 
ATOM     18  C   UNL     1      -8.485  -3.468 127.608  0.00  0.00    +0.000 C 
BRANCH  18  19
ATOM     19  C   UNL     1      -8.631  -2.746 126.334  0.00  0.00    +0.000 C 
ATOM     20  C   UNL     1      -8.595  -1.246 126.364  0.00  0.00    +0.000 C 
ATOM     21  C   UNL     1      -8.795  -3.407 125.166  0.00  0.00    +0.000 C 
BRANCH  21  22
ATOM     22  C   UNL     1      -8.962  -2.910 123.775  0.00  0.00    +0.000 C 
ATOM     23  O   UNL     1      -7.979  -2.500 123.152  0.00  0.00    +0.000 OA
BRANCH  22  24
ATOM     24  O   UNL     1     -10.166  -2.903 123.192  0.00  0.00    +0.000 OA
ATOM     25  H   UNL     1     -10.972  -2.817 123.719  0.00  0.00    +0.000 HD
ENDBRANCH  22  24
ENDBRANCH  21  22
ENDBRANCH  18  19
ENDBRANCH  16  17
ENDBRANCH   2  14
TORSDOF 7
ENDMDL
MODEL 8
REMARK VINA RESULT:      -6.7      2.862     10.724
REMARK  Name = Acitretin
REMARK  13 active torsions:
REMARK  status: ('A' for Active; 'I' for Inactive)
REMARK    1  A    between atoms: C_1  and  O_2
REMARK    2  A    between atoms: O_2  and  C_3
REMARK    3  A    between atoms: C_4  and  C_5
REMARK    4  A    between atoms: C_6  and  C_7
REMARK    5  A    between atoms: C_8  and  C_9
REMARK    6  A    between atoms: C_10  and  C_11
REMARK    7  A    between atoms: C_11  and  C_12
REMARK    8  A    between atoms: C_13  and  C_14
REMARK    9  A    between atoms: C_15  and  C_16
REMARK   10  A    between atoms: C_16  and  C_17
REMARK   11  A    between atoms: C_18  and  C_19
REMARK   12  A    between atoms: C_19  and  O_20
REMARK   13  A    between atoms: C_22  and  C_23
REMARK                            x       y       z     vdW  Elec       q    Type
REMARK                         _______ _______ _______ _____ _____    ______ ____
ROOT
ATOM      1  C   UNL     1      -5.759   1.608 126.316  0.00  0.00    +0.000 C 
ATOM      2  C   UNL     1      -4.464   1.956 126.283  0.00  0.00    +0.000 C 
ENDROOT
BRANCH   1   8
ATOM      3  C   UNL     1      -8.263  -0.528 123.428  0.00  0.00    +0.000 A 
ATOM      4  C   UNL     1      -8.433   0.838 123.649  0.00  0.00    +0.000 A 
ATOM      5  C   UNL     1      -9.528   1.605 122.964  0.00  0.00    +0.000 C 
ATOM      6  C   UNL     1      -7.574   1.519 124.571  0.00  0.00    +0.000 A 
ATOM      7  C   UNL     1      -7.773   3.020 124.741  0.00  0.00    +0.000 C 
ATOM      8  C   UNL     1      -6.571   0.813 125.336  0.00  0.00    +0.000 A 
ATOM      9  C   UNL     1      -6.437  -0.579 125.107  0.00  0.00    +0.000 A 
ATOM     10  C   UNL     1      -5.470  -1.537 125.757  0.00  0.00    +0.000 C 
ATOM     11  C   UNL     1      -7.299  -1.213 124.174  0.00  0.00    +0.000 A 
BRANCH   3  13
ATOM     12  C   UNL     1      -9.329  -2.655 123.070  0.00  0.00    +0.000 C 
ATOM     13  O   UNL     1      -9.084  -1.309 122.656  0.00  0.00    +0.000 OA
ENDBRANCH   3  13
ENDBRANCH   1   8
BRANCH   2  14
ATOM     14  C   UNL     1      -3.646   2.735 127.178  0.00  0.00    +0.000 C 
ATOM     15  C   UNL     1      -2.441   3.427 126.616  0.00  0.00    +0.000 C 
ATOM     16  C   UNL     1      -4.020   2.813 128.481  0.00  0.00    +0.000 C 
BRANCH  16  17
ATOM     17  C   UNL     1      -3.286   3.583 129.447  0.00  0.00    +0.000 C 
ATOM     18  C   UNL     1      -3.575   3.835 130.733  0.00  0.00    +0.000 C 
BRANCH  18  19
ATOM     19  C   UNL     1      -2.705   4.657 131.589  0.00  0.00    +0.000 C 
ATOM     20  C   UNL     1      -2.243   4.075 132.893  0.00  0.00    +0.000 C 
ATOM     21  C   UNL     1      -2.327   5.901 131.219  0.00  0.00    +0.000 C 
BRANCH  21  22
ATOM     22  C   UNL     1      -1.470   6.907 131.900  0.00  0.00    +0.000 C 
ATOM     23  O   UNL     1      -1.984   7.916 132.388  0.00  0.00    +0.000 OA
BRANCH  22  24
ATOM     24  O   UNL     1      -0.147   6.727 131.991  0.00  0.00    +0.000 OA
ATOM     25  H   UNL     1       0.404   7.343 132.493  0.00  0.00    +0.000 HD
ENDBRANCH  22  24
ENDBRANCH  21  22
ENDBRANCH  18  19
ENDBRANCH  16  17
ENDBRANCH   2  14
TORSDOF 7
ENDMDL
MODEL 9
REMARK VINA RESULT:      -6.7      8.106     13.117
REMARK  Name = Acitretin
REMARK  13 active torsions:
REMARK  status: ('A' for Active; 'I' for Inactive)
REMARK    1  A    between atoms: C_1  and  O_2
REMARK    2  A    between atoms: O_2  and  C_3
REMARK    3  A    between atoms: C_4  and  C_5
REMARK    4  A    between atoms: C_6  and  C_7
REMARK    5  A    between atoms: C_8  and  C_9
REMARK    6  A    between atoms: C_10  and  C_11
REMARK    7  A    between atoms: C_11  and  C_12
REMARK    8  A    between atoms: C_13  and  C_14
REMARK    9  A    between atoms: C_15  and  C_16
REMARK   10  A    between atoms: C_16  and  C_17
REMARK   11  A    between atoms: C_18  and  C_19
REMARK   12  A    between atoms: C_19  and  O_20
REMARK   13  A    between atoms: C_22  and  C_23
REMARK                            x       y       z     vdW  Elec       q    Type
REMARK                         _______ _______ _______ _____ _____    ______ ____
ROOT
ATOM      1  C   UNL     1      -7.315  -1.925 127.625  0.00  0.00    +0.000 C 
ATOM      2  C   UNL     1      -7.717  -1.937 128.904  0.00  0.00    +0.000 C 
ENDROOT
BRANCH   1   8
ATOM      3  C   UNL     1      -9.421  -0.869 123.934  0.00  0.00    +0.000 A 
ATOM      4  C   UNL     1      -9.117  -2.198 124.229  0.00  0.00    +0.000 A 
ATOM      5  C   UNL     1      -9.432  -3.300 123.258  0.00  0.00    +0.000 C 
ATOM      6  C   UNL     1      -8.462  -2.518 125.462  0.00  0.00    +0.000 A 
ATOM      7  C   UNL     1      -8.195  -3.989 125.756  0.00  0.00    +0.000 C 
ATOM      8  C   UNL     1      -8.042  -1.490 126.387  0.00  0.00    +0.000 A 
ATOM      9  C   UNL     1      -8.344  -0.147 126.050  0.00  0.00    +0.000 A 
ATOM     10  C   UNL     1      -8.032   1.100 126.838  0.00  0.00    +0.000 C 
ATOM     11  C   UNL     1      -9.008   0.127 124.825  0.00  0.00    +0.000 A 
BRANCH   3  13
ATOM     12  C   UNL     1     -10.206   0.971 122.598  0.00  0.00    +0.000 C 
ATOM     13  O   UNL     1      -9.946  -0.427 122.747  0.00  0.00    +0.000 OA
ENDBRANCH   3  13
ENDBRANCH   1   8
BRANCH   2  14
ATOM     14  C   UNL     1      -7.073  -2.366 130.120  0.00  0.00    +0.000 C 
ATOM     15  C   UNL     1      -7.577  -1.818 131.421  0.00  0.00    +0.000 C 
ATOM     16  C   UNL     1      -6.052  -3.256 130.022  0.00  0.00    +0.000 C 
BRANCH  16  17
ATOM     17  C   UNL     1      -5.362  -3.763 131.176  0.00  0.00    +0.000 C 
ATOM     18  C   UNL     1      -5.718  -4.746 132.017  0.00  0.00    +0.000 C 
BRANCH  18  19
ATOM     19  C   UNL     1      -4.885  -5.141 133.165  0.00  0.00    +0.000 C 
ATOM     20  C   UNL     1      -5.569  -5.731 134.363  0.00  0.00    +0.000 C 
ATOM     21  C   UNL     1      -3.543  -4.980 133.148  0.00  0.00    +0.000 C 
BRANCH  21  22
ATOM     22  C   UNL     1      -2.507  -5.295 134.166  0.00  0.00    +0.000 C 
ATOM     23  O   UNL     1      -2.221  -4.457 135.025  0.00  0.00    +0.000 OA
BRANCH  22  24
ATOM     24  O   UNL     1      -1.883  -6.479 134.162  0.00  0.00    +0.000 OA
ATOM     25  H   UNL     1      -1.311  -6.736 133.427  0.00  0.00    +0.000 HD
ENDBRANCH  22  24
ENDBRANCH  21  22
ENDBRANCH  18  19
ENDBRANCH  16  17
ENDBRANCH   2  14
TORSDOF 7
ENDMDL
