MODEL 1
REMARK VINA RESULT:      -7.9      0.000      0.000
REMARK  Name = Aclidinium
REMARK  11 active torsions:
REMARK  status: ('A' for Active; 'I' for Inactive)
REMARK    1  A    between atoms: O_1  and  C_2
REMARK    2  A    between atoms: C_2  and  C_3
REMARK    3  A    between atoms: C_2  and  C_24
REMARK    4  A    between atoms: C_2  and  C_29
REMARK    5  A    between atoms: C_3  and  O_5
REMARK    6  A    between atoms: O_5  and  C_6
REMARK    7  A    between atoms: N_8  and  C_9
REMARK    8  A    between atoms: C_9  and  C_10
REMARK    9  A    between atoms: C_10  and  C_11
REMARK   10  A    between atoms: C_11  and  O_12
REMARK   11  A    between atoms: O_12  and  C_13
REMARK                            x       y       z     vdW  Elec       q    Type
REMARK                         _______ _______ _______ _____ _____    ______ ____
ROOT
ATOM      1  C   UNL     1      -7.651   4.166 128.731  0.00  0.00    +0.000 C 
ATOM      2  C   UNL     1      -8.633   4.966 129.563  0.00  0.00    +0.000 C 
ATOM      3  N   UNL     1      -8.947   4.200 130.849  0.00  0.00    +0.000 N 
ATOM      4  C   UNL     1      -9.616   2.858 130.459  0.00  0.00    +0.000 C 
ATOM      5  C   UNL     1      -8.656   2.039 129.606  0.00  0.00    +0.000 C 
ATOM      6  C   UNL     1      -7.358   2.803 129.392  0.00  0.00    +0.000 C 
ATOM      7  C   UNL     1      -6.705   3.083 130.744  0.00  0.00    +0.000 C 
ATOM      8  C   UNL     1      -7.642   3.905 131.619  0.00  0.00    +0.000 C 
ENDROOT
BRANCH   1   9
ATOM      9  O   UNL     1      -8.212   3.990 127.423  0.00  0.00    +0.000 OA
BRANCH   9  10
ATOM     10  C   UNL     1      -7.599   4.371 126.257  0.00  0.00    +0.000 C 
ATOM     11  O   UNL     1      -7.968   5.453 125.792  0.00  0.00    +0.000 OA
BRANCH  10  12
ATOM     12  C   UNL     1      -6.458   3.461 125.659  0.00  0.00    +0.000 C 
BRANCH  12  13
ATOM     13  C   UNL     1      -5.074   3.572 126.314  0.00  0.00    +0.000 A 
ATOM     14  C   UNL     1      -4.136   2.549 126.425  0.00  0.00    +0.000 A 
ATOM     15  C   UNL     1      -2.887   2.969 126.944  0.00  0.00    +0.000 A 
ATOM     16  C   UNL     1      -2.942   4.269 127.377  0.00  0.00    +0.000 A 
ATOM     17  S   UNL     1      -4.441   4.996 127.028  0.00  0.00    +0.000 S 
ENDBRANCH  12  13
BRANCH  12  18
ATOM     18  C   UNL     1      -6.329   3.618 124.110  0.00  0.00    +0.000 A 
ATOM     19  C   UNL     1      -5.402   4.341 123.365  0.00  0.00    +0.000 A 
ATOM     20  C   UNL     1      -5.510   4.165 121.958  0.00  0.00    +0.000 A 
ATOM     21  C   UNL     1      -6.496   3.271 121.639  0.00  0.00    +0.000 A 
ATOM     22  S   UNL     1      -7.517   3.053 122.981  0.00  0.00    +0.000 S 
ENDBRANCH  12  18
BRANCH  12  23
ATOM     23  O   UNL     1      -6.860   2.088 125.934  0.00  0.00    +0.000 OA
ATOM     24  H   UNL     1      -6.197   1.737 126.565  0.00  0.00    +0.000 HD
ENDBRANCH  12  23
ENDBRANCH  10  12
ENDBRANCH   9  10
ENDBRANCH   1   9
BRANCH   3  25
ATOM     25  C   UNL     1      -9.912   5.023 131.691  0.00  0.00    +0.000 C 
BRANCH  25  26
ATOM     26  C   UNL     1     -11.210   5.290 130.944  0.00  0.00    +0.000 C 
BRANCH  26  27
ATOM     27  C   UNL     1     -11.825   6.589 131.401  0.00  0.00    +0.000 C 
BRANCH  27  28
ATOM     28  O   UNL     1     -12.781   6.939 130.409  0.00  0.00    +0.000 OA
BRANCH  28  29
ATOM     29  C   UNL     1     -12.247   7.196 129.178  0.00  0.00    +0.000 A 
ATOM     30  C   UNL     1     -11.103   7.994 129.165  0.00  0.00    +0.000 A 
ATOM     31  C   UNL     1     -10.563   8.413 127.950  0.00  0.00    +0.000 A 
ATOM     32  C   UNL     1     -11.130   7.983 126.750  0.00  0.00    +0.000 A 
ATOM     33  C   UNL     1     -12.264   7.175 126.766  0.00  0.00    +0.000 A 
ATOM     34  C   UNL     1     -12.832   6.795 127.978  0.00  0.00    +0.000 A 
ENDBRANCH  28  29
ENDBRANCH  27  28
ENDBRANCH  26  27
ENDBRANCH  25  26
ENDBRANCH   3  25
TORSDOF 11
ENDMDL
MODEL 2
REMARK VINA RESULT:      -7.9      5.359      8.767
REMARK  Name = Aclidinium
REMARK  11 active torsions:
REMARK  status: ('A' for Active; 'I' for Inactive)
REMARK    1  A    between atoms: O_1  and  C_2
REMARK    2  A    between atoms: C_2  and  C_3
REMARK    3  A    between atoms: C_2  and  C_24
REMARK    4  A    between atoms: C_2  and  C_29
REMARK    5  A    between atoms: C_3  and  O_5
REMARK    6  A    between atoms: O_5  and  C_6
REMARK    7  A    between atoms: N_8  and  C_9
REMARK    8  A    between atoms: C_9  and  C_10
REMARK    9  A    between atoms: C_10  and  C_11
REMARK   10  A    between atoms: C_11  and  O_12
REMARK   11  A    between atoms: O_12  and  C_13
REMARK                            x       y       z     vdW  Elec       q    Type
REMARK                         _______ _______ _______ _____ _____    ______ ____
ROOT
ATOM      1  C   UNL     1      -8.294  -2.537 125.996  0.00  0.00    +0.000 C 
ATOM      2  C   UNL     1      -8.030  -1.088 125.638  0.00  0.00    +0.000 C 
ATOM      3  N   UNL     1      -7.836  -0.969 124.125  0.00  0.00    +0.000 N 
ATOM      4  C   UNL     1      -6.592  -1.805 123.731  0.00  0.00    +0.000 C 
ATOM      5  C   UNL     1      -6.824  -3.266 124.097  0.00  0.00    +0.000 C 
ATOM      6  C   UNL     1      -8.188  -3.437 124.747  0.00  0.00    +0.000 C 
ATOM      7  C   UNL     1      -9.275  -2.991 123.770  0.00  0.00    +0.000 C 
ATOM      8  C   UNL     1      -9.071  -1.531 123.390  0.00  0.00    +0.000 C 
ENDROOT
BRANCH   1   9
ATOM      9  O   UNL     1      -7.343  -2.932 126.993  0.00  0.00    +0.000 OA
BRANCH   9  10
ATOM     10  C   UNL     1      -7.596  -2.962 128.340  0.00  0.00    +0.000 C 
ATOM     11  O   UNL     1      -8.691  -3.430 128.665  0.00  0.00    +0.000 OA
BRANCH  10  12
ATOM     12  C   UNL     1      -6.477  -2.477 129.340  0.00  0.00    +0.000 C 
BRANCH  12  13
ATOM     13  C   UNL     1      -6.234  -3.351 130.579  0.00  0.00    +0.000 A 
ATOM     14  C   UNL     1      -5.567  -4.572 130.602  0.00  0.00    +0.000 A 
ATOM     15  C   UNL     1      -5.360  -5.089 131.905  0.00  0.00    +0.000 A 
ATOM     16  C   UNL     1      -6.018  -4.340 132.845  0.00  0.00    +0.000 A 
ATOM     17  S   UNL     1      -6.751  -2.962 132.167  0.00  0.00    +0.000 S 
ENDBRANCH  12  13
BRANCH  12  18
ATOM     18  C   UNL     1      -6.673  -0.988 129.768  0.00  0.00    +0.000 A 
ATOM     19  C   UNL     1      -7.827  -0.209 129.772  0.00  0.00    +0.000 A 
ATOM     20  C   UNL     1      -7.664   1.084 130.341  0.00  0.00    +0.000 A 
ATOM     21  C   UNL     1      -6.392   1.269 130.810  0.00  0.00    +0.000 A 
ATOM     22  S   UNL     1      -5.367   0.089 130.140  0.00  0.00    +0.000 S 
ENDBRANCH  12  18
BRANCH  12  23
ATOM     23  O   UNL     1      -5.222  -2.566 128.605  0.00  0.00    +0.000 OA
ATOM     24  H   UNL     1      -5.463  -2.838 127.695  0.00  0.00    +0.000 HD
ENDBRANCH  12  23
ENDBRANCH  10  12
ENDBRANCH   9  10
ENDBRANCH   1   9
BRANCH   3  25
ATOM     25  C   UNL     1      -7.599   0.492 123.770  0.00  0.00    +0.000 C 
BRANCH  25  26
ATOM     26  C   UNL     1      -8.784   1.359 124.169  0.00  0.00    +0.000 C 
BRANCH  26  27
ATOM     27  C   UNL     1      -8.609   2.765 123.650  0.00  0.00    +0.000 C 
BRANCH  27  28
ATOM     28  O   UNL     1      -8.999   2.727 122.284  0.00  0.00    +0.000 OA
BRANCH  28  29
ATOM     29  C   UNL     1      -8.138   3.360 121.434  0.00  0.00    +0.000 A 
ATOM     30  C   UNL     1      -8.705   3.891 120.276  0.00  0.00    +0.000 A 
ATOM     31  C   UNL     1      -7.887   4.442 119.292  0.00  0.00    +0.000 A 
ATOM     32  C   UNL     1      -6.509   4.518 119.494  0.00  0.00    +0.000 A 
ATOM     33  C   UNL     1      -5.946   4.000 120.656  0.00  0.00    +0.000 A 
ATOM     34  C   UNL     1      -6.757   3.407 121.619  0.00  0.00    +0.000 A 
ENDBRANCH  28  29
ENDBRANCH  27  28
ENDBRANCH  26  27
ENDBRANCH  25  26
ENDBRANCH   3  25
TORSDOF 11
ENDMDL
MODEL 3
REMARK VINA RESULT:      -7.9      4.859      8.501
REMARK  Name = Aclidinium
REMARK  11 active torsions:
REMARK  status: ('A' for Active; 'I' for Inactive)
REMARK    1  A    between atoms: O_1  and  C_2
REMARK    2  A    between atoms: C_2  and  C_3
REMARK    3  A    between atoms: C_2  and  C_24
REMARK    4  A    between atoms: C_2  and  C_29
REMARK    5  A    between atoms: C_3  and  O_5
REMARK    6  A    between atoms: O_5  and  C_6
REMARK    7  A    between atoms: N_8  and  C_9
REMARK    8  A    between atoms: C_9  and  C_10
REMARK    9  A    between atoms: C_10  and  C_11
REMARK   10  A    between atoms: C_11  and  O_12
REMARK   11  A    between atoms: O_12  and  C_13
REMARK                            x       y       z     vdW  Elec       q    Type
REMARK                         _______ _______ _______ _____ _____    ______ ____
ROOT
ATOM      1  C   UNL     1      -8.368  -2.357 125.745  0.00  0.00    +0.000 C 
ATOM      2  C   UNL     1      -8.112  -0.950 125.242  0.00  0.00    +0.000 C 
ATOM      3  N   UNL     1      -7.845  -0.993 123.736  0.00  0.00    +0.000 N 
ATOM      4  C   UNL     1      -6.568  -1.838 123.497  0.00  0.00    +0.000 C 
ATOM      5  C   UNL     1      -6.792  -3.255 124.011  0.00  0.00    +0.000 C 
ATOM      6  C   UNL     1      -8.184  -3.385 124.609  0.00  0.00    +0.000 C 
ATOM      7  C   UNL     1      -9.227  -3.074 123.538  0.00  0.00    +0.000 C 
ATOM      8  C   UNL     1      -9.030  -1.660 123.009  0.00  0.00    +0.000 C 
ENDROOT
BRANCH   1   9
ATOM      9  O   UNL     1      -7.461  -2.619 126.823  0.00  0.00    +0.000 OA
BRANCH   9  10
ATOM     10  C   UNL     1      -7.814  -2.636 128.149  0.00  0.00    +0.000 C 
ATOM     11  O   UNL     1      -8.621  -3.513 128.472  0.00  0.00    +0.000 OA
BRANCH  10  12
ATOM     12  C   UNL     1      -7.132  -1.614 129.135  0.00  0.00    +0.000 C 
BRANCH  12  13
ATOM     13  C   UNL     1      -7.086  -0.147 128.685  0.00  0.00    +0.000 A 
ATOM     14  C   UNL     1      -8.107   0.787 128.830  0.00  0.00    +0.000 A 
ATOM     15  C   UNL     1      -7.739   2.103 128.458  0.00  0.00    +0.000 A 
ATOM     16  C   UNL     1      -6.498   2.126 127.878  0.00  0.00    +0.000 A 
ATOM     17  S   UNL     1      -5.747   0.599 127.916  0.00  0.00    +0.000 S 
ENDBRANCH  12  13
BRANCH  12  18
ATOM     18  C   UNL     1      -5.708  -2.081 129.577  0.00  0.00    +0.000 A 
ATOM     19  C   UNL     1      -4.850  -3.000 128.980  0.00  0.00    +0.000 A 
ATOM     20  C   UNL     1      -3.570  -3.097 129.593  0.00  0.00    +0.000 A 
ATOM     21  C   UNL     1      -3.444  -2.215 130.632  0.00  0.00    +0.000 A 
ATOM     22  S   UNL     1      -4.985  -1.666 131.097  0.00  0.00    +0.000 S 
ENDBRANCH  12  18
BRANCH  12  23
ATOM     23  O   UNL     1      -7.976  -1.582 130.323  0.00  0.00    +0.000 OA
ATOM     24  H   UNL     1      -8.674  -2.253 130.172  0.00  0.00    +0.000 HD
ENDBRANCH  12  23
ENDBRANCH  10  12
ENDBRANCH   9  10
ENDBRANCH   1   9
BRANCH   3  25
ATOM     25  C   UNL     1      -7.615   0.426 123.234  0.00  0.00    +0.000 C 
BRANCH  25  26
ATOM     26  C   UNL     1      -7.051   1.318 124.331  0.00  0.00    +0.000 C 
BRANCH  26  27
ATOM     27  C   UNL     1      -6.796   2.707 123.803  0.00  0.00    +0.000 C 
BRANCH  27  28
ATOM     28  O   UNL     1      -7.586   2.829 122.629  0.00  0.00    +0.000 OA
BRANCH  28  29
ATOM     29  C   UNL     1      -6.971   3.483 121.600  0.00  0.00    +0.000 A 
ATOM     30  C   UNL     1      -5.661   3.898 121.838  0.00  0.00    +0.000 A 
ATOM     31  C   UNL     1      -4.998   4.681 120.894  0.00  0.00    +0.000 A 
ATOM     32  C   UNL     1      -5.623   4.995 119.687  0.00  0.00    +0.000 A 
ATOM     33  C   UNL     1      -6.926   4.568 119.445  0.00  0.00    +0.000 A 
ATOM     34  C   UNL     1      -7.606   3.826 120.406  0.00  0.00    +0.000 A 
ENDBRANCH  28  29
ENDBRANCH  27  28
ENDBRANCH  26  27
ENDBRANCH  25  26
ENDBRANCH   3  25
TORSDOF 11
ENDMDL
MODEL 4
REMARK VINA RESULT:      -7.7      2.961      8.208
REMARK  Name = Aclidinium
REMARK  11 active torsions:
REMARK  status: ('A' for Active; 'I' for Inactive)
REMARK    1  A    between atoms: O_1  and  C_2
REMARK    2  A    between atoms: C_2  and  C_3
REMARK    3  A    between atoms: C_2  and  C_24
REMARK    4  A    between atoms: C_2  and  C_29
REMARK    5  A    between atoms: C_3  and  O_5
REMARK    6  A    between atoms: O_5  and  C_6
REMARK    7  A    between atoms: N_8  and  C_9
REMARK    8  A    between atoms: C_9  and  C_10
REMARK    9  A    between atoms: C_10  and  C_11
REMARK   10  A    between atoms: C_11  and  O_12
REMARK   11  A    between atoms: O_12  and  C_13
REMARK                            x       y       z     vdW  Elec       q    Type
REMARK                         _______ _______ _______ _____ _____    ______ ____
ROOT
ATOM      1  C   UNL     1      -6.808   3.539 127.785  0.00  0.00    +0.000 C 
ATOM      2  C   UNL     1      -7.563   2.877 126.650  0.00  0.00    +0.000 C 
ATOM      3  N   UNL     1      -6.643   2.755 125.434  0.00  0.00    +0.000 N 
ATOM      4  C   UNL     1      -6.242   4.183 124.987  0.00  0.00    +0.000 C 
ATOM      5  C   UNL     1      -5.495   4.880 126.118  0.00  0.00    +0.000 C 
ATOM      6  C   UNL     1      -5.396   3.963 127.327  0.00  0.00    +0.000 C 
ATOM      7  C   UNL     1      -4.641   2.693 126.941  0.00  0.00    +0.000 C 
ATOM      8  C   UNL     1      -5.369   1.972 125.814  0.00  0.00    +0.000 C 
ENDROOT
BRANCH   1   9
ATOM      9  O   UNL     1      -7.565   4.674 128.225  0.00  0.00    +0.000 OA
BRANCH   9  10
ATOM     10  C   UNL     1      -7.721   5.043 129.536  0.00  0.00    +0.000 C 
ATOM     11  O   UNL     1      -6.741   5.583 130.057  0.00  0.00    +0.000 OA
BRANCH  10  12
ATOM     12  C   UNL     1      -9.118   4.820 130.232  0.00  0.00    +0.000 C 
BRANCH  12  13
ATOM     13  C   UNL     1     -10.166   5.926 130.045  0.00  0.00    +0.000 A 
ATOM     14  C   UNL     1      -9.910   7.242 129.669  0.00  0.00    +0.000 A 
ATOM     15  C   UNL     1     -11.078   8.008 129.429  0.00  0.00    +0.000 A 
ATOM     16  C   UNL     1     -12.206   7.316 129.786  0.00  0.00    +0.000 A 
ATOM     17  S   UNL     1     -11.854   5.722 130.268  0.00  0.00    +0.000 S 
ENDBRANCH  12  13
BRANCH  12  18
ATOM     18  C   UNL     1      -8.973   4.475 131.749  0.00  0.00    +0.000 A 
ATOM     19  C   UNL     1      -9.049   3.242 132.391  0.00  0.00    +0.000 A 
ATOM     20  C   UNL     1      -8.750   3.280 133.780  0.00  0.00    +0.000 A 
ATOM     21  C   UNL     1      -8.403   4.542 134.184  0.00  0.00    +0.000 A 
ATOM     22  S   UNL     1      -8.894   5.666 133.006  0.00  0.00    +0.000 S 
ENDBRANCH  12  18
BRANCH  12  23
ATOM     23  O   UNL     1      -9.713   3.667 129.569  0.00  0.00    +0.000 OA
ATOM     24  H   UNL     1     -10.464   4.017 129.047  0.00  0.00    +0.000 HD
ENDBRANCH  12  23
ENDBRANCH  10  12
ENDBRANCH   9  10
ENDBRANCH   1   9
BRANCH   3  25
ATOM     25  C   UNL     1      -7.401   2.065 124.308  0.00  0.00    +0.000 C 
BRANCH  25  26
ATOM     26  C   UNL     1      -8.524   2.943 123.776  0.00  0.00    +0.000 C 
BRANCH  26  27
ATOM     27  C   UNL     1      -8.468   3.019 122.271  0.00  0.00    +0.000 C 
BRANCH  27  28
ATOM     28  O   UNL     1      -7.110   2.793 121.920  0.00  0.00    +0.000 OA
BRANCH  28  29
ATOM     29  C   UNL     1      -6.626   3.640 120.964  0.00  0.00    +0.000 A 
ATOM     30  C   UNL     1      -5.387   4.219 121.234  0.00  0.00    +0.000 A 
ATOM     31  C   UNL     1      -4.873   5.191 120.377  0.00  0.00    +0.000 A 
ATOM     32  C   UNL     1      -5.569   5.537 119.219  0.00  0.00    +0.000 A 
ATOM     33  C   UNL     1      -6.800   4.947 118.944  0.00  0.00    +0.000 A 
ATOM     34  C   UNL     1      -7.336   4.011 119.823  0.00  0.00    +0.000 A 
ENDBRANCH  28  29
ENDBRANCH  27  28
ENDBRANCH  26  27
ENDBRANCH  25  26
ENDBRANCH   3  25
TORSDOF 11
ENDMDL
MODEL 5
REMARK VINA RESULT:      -7.6      3.342      6.796
REMARK  Name = Aclidinium
REMARK  11 active torsions:
REMARK  status: ('A' for Active; 'I' for Inactive)
REMARK    1  A    between atoms: O_1  and  C_2
REMARK    2  A    between atoms: C_2  and  C_3
REMARK    3  A    between atoms: C_2  and  C_24
REMARK    4  A    between atoms: C_2  and  C_29
REMARK    5  A    between atoms: C_3  and  O_5
REMARK    6  A    between atoms: O_5  and  C_6
REMARK    7  A    between atoms: N_8  and  C_9
REMARK    8  A    between atoms: C_9  and  C_10
REMARK    9  A    between atoms: C_10  and  C_11
REMARK   10  A    between atoms: C_11  and  O_12
REMARK   11  A    between atoms: O_12  and  C_13
REMARK                            x       y       z     vdW  Elec       q    Type
REMARK                         _______ _______ _______ _____ _____    ______ ____
ROOT
ATOM      1  C   UNL     1      -8.236   2.454 127.571  0.00  0.00    +0.000 C 
ATOM      2  C   UNL     1      -8.237   0.964 127.846  0.00  0.00    +0.000 C 
ATOM      3  N   UNL     1      -7.710   0.711 129.259  0.00  0.00    +0.000 N 
ATOM      4  C   UNL     1      -6.248   1.220 129.328  0.00  0.00    +0.000 C 
ATOM      5  C   UNL     1      -6.215   2.715 129.037  0.00  0.00    +0.000 C 
ATOM      6  C   UNL     1      -7.619   3.228 128.755  0.00  0.00    +0.000 C 
ATOM      7  C   UNL     1      -8.505   2.978 129.974  0.00  0.00    +0.000 C 
ATOM      8  C   UNL     1      -8.560   1.489 130.286  0.00  0.00    +0.000 C 
ENDROOT
BRANCH   1   9
ATOM      9  O   UNL     1      -7.493   2.687 126.366  0.00  0.00    +0.000 OA
BRANCH   9  10
ATOM     10  C   UNL     1      -7.587   3.822 125.603  0.00  0.00    +0.000 C 
ATOM     11  O   UNL     1      -8.715   4.315 125.520  0.00  0.00    +0.000 OA
BRANCH  10  12
ATOM     12  C   UNL     1      -6.276   4.429 124.970  0.00  0.00    +0.000 C 
BRANCH  12  13
ATOM     13  C   UNL     1      -6.008   4.101 123.494  0.00  0.00    +0.000 A 
ATOM     14  C   UNL     1      -5.011   4.659 122.699  0.00  0.00    +0.000 A 
ATOM     15  C   UNL     1      -4.899   4.067 121.418  0.00  0.00    +0.000 A 
ATOM     16  C   UNL     1      -5.920   3.180 121.191  0.00  0.00    +0.000 A 
ATOM     17  S   UNL     1      -6.906   2.976 122.563  0.00  0.00    +0.000 S 
ENDBRANCH  12  13
BRANCH  12  18
ATOM     18  C   UNL     1      -5.008   4.112 125.825  0.00  0.00    +0.000 A 
ATOM     19  C   UNL     1      -4.260   2.941 125.906  0.00  0.00    +0.000 A 
ATOM     20  C   UNL     1      -3.088   3.043 126.704  0.00  0.00    +0.000 A 
ATOM     21  C   UNL     1      -2.924   4.310 127.195  0.00  0.00    +0.000 A 
ATOM     22  S   UNL     1      -4.389   5.162 127.058  0.00  0.00    +0.000 S 
ENDBRANCH  12  18
BRANCH  12  23
ATOM     23  O   UNL     1      -6.465   5.874 124.973  0.00  0.00    +0.000 OA
ATOM     24  H   UNL     1      -7.229   6.043 125.562  0.00  0.00    +0.000 HD
ENDBRANCH  12  23
ENDBRANCH  10  12
ENDBRANCH   9  10
ENDBRANCH   1   9
BRANCH   3  25
ATOM     25  C   UNL     1      -7.740  -0.785 129.538  0.00  0.00    +0.000 C 
BRANCH  25  26
ATOM     26  C   UNL     1      -6.360  -1.407 129.377  0.00  0.00    +0.000 C 
BRANCH  26  27
ATOM     27  C   UNL     1      -6.380  -2.468 128.305  0.00  0.00    +0.000 C 
BRANCH  27  28
ATOM     28  O   UNL     1      -7.720  -2.523 127.837  0.00  0.00    +0.000 OA
BRANCH  28  29
ATOM     29  C   UNL     1      -7.840  -2.632 126.481  0.00  0.00    +0.000 A 
ATOM     30  C   UNL     1      -9.108  -2.962 126.005  0.00  0.00    +0.000 A 
ATOM     31  C   UNL     1      -9.297  -3.218 124.648  0.00  0.00    +0.000 A 
ATOM     32  C   UNL     1      -8.230  -3.082 123.759  0.00  0.00    +0.000 A 
ATOM     33  C   UNL     1      -6.968  -2.739 124.234  0.00  0.00    +0.000 A 
ATOM     34  C   UNL     1      -6.768  -2.529 125.595  0.00  0.00    +0.000 A 
ENDBRANCH  28  29
ENDBRANCH  27  28
ENDBRANCH  26  27
ENDBRANCH  25  26
ENDBRANCH   3  25
TORSDOF 11
ENDMDL
MODEL 6
REMARK VINA RESULT:      -7.5      4.595      7.277
REMARK  Name = Aclidinium
REMARK  11 active torsions:
REMARK  status: ('A' for Active; 'I' for Inactive)
REMARK    1  A    between atoms: O_1  and  C_2
REMARK    2  A    between atoms: C_2  and  C_3
REMARK    3  A    between atoms: C_2  and  C_24
REMARK    4  A    between atoms: C_2  and  C_29
REMARK    5  A    between atoms: C_3  and  O_5
REMARK    6  A    between atoms: O_5  and  C_6
REMARK    7  A    between atoms: N_8  and  C_9
REMARK    8  A    between atoms: C_9  and  C_10
REMARK    9  A    between atoms: C_10  and  C_11
REMARK   10  A    between atoms: C_11  and  O_12
REMARK   11  A    between atoms: O_12  and  C_13
REMARK                            x       y       z     vdW  Elec       q    Type
REMARK                         _______ _______ _______ _____ _____    ______ ____
ROOT
ATOM      1  C   UNL     1      -7.938   1.973 125.647  0.00  0.00    +0.000 C 
ATOM      2  C   UNL     1      -6.517   2.186 126.130  0.00  0.00    +0.000 C 
ATOM      3  N   UNL     1      -5.980   3.498 125.555  0.00  0.00    +0.000 N 
ATOM      4  C   UNL     1      -5.959   3.375 124.011  0.00  0.00    +0.000 C 
ATOM      5  C   UNL     1      -7.375   3.142 123.499  0.00  0.00    +0.000 C 
ATOM      6  C   UNL     1      -8.353   3.086 124.662  0.00  0.00    +0.000 C 
ATOM      7  C   UNL     1      -8.312   4.409 125.424  0.00  0.00    +0.000 C 
ATOM      8  C   UNL     1      -6.907   4.666 125.952  0.00  0.00    +0.000 C 
ENDROOT
BRANCH   1   9
ATOM      9  O   UNL     1      -8.010   0.684 125.023  0.00  0.00    +0.000 OA
BRANCH   9  10
ATOM     10  C   UNL     1      -8.978  -0.252 125.284  0.00  0.00    +0.000 C 
ATOM     11  O   UNL     1     -10.126   0.187 125.397  0.00  0.00    +0.000 OA
BRANCH  10  12
ATOM     12  C   UNL     1      -8.571  -1.774 125.347  0.00  0.00    +0.000 C 
BRANCH  12  13
ATOM     13  C   UNL     1      -8.479  -2.405 126.743  0.00  0.00    +0.000 A 
ATOM     14  C   UNL     1      -9.011  -3.634 127.124  0.00  0.00    +0.000 A 
ATOM     15  C   UNL     1      -8.649  -4.036 128.433  0.00  0.00    +0.000 A 
ATOM     16  C   UNL     1      -7.985  -3.035 129.094  0.00  0.00    +0.000 A 
ATOM     17  S   UNL     1      -7.690  -1.693 128.089  0.00  0.00    +0.000 S 
ENDBRANCH  12  13
BRANCH  12  18
ATOM     18  C   UNL     1      -7.267  -2.070 124.540  0.00  0.00    +0.000 A 
ATOM     19  C   UNL     1      -6.015  -2.476 124.993  0.00  0.00    +0.000 A 
ATOM     20  C   UNL     1      -5.080  -2.769 123.962  0.00  0.00    +0.000 A 
ATOM     21  C   UNL     1      -5.642  -2.627 122.722  0.00  0.00    +0.000 A 
ATOM     22  S   UNL     1      -7.077  -1.725 122.852  0.00  0.00    +0.000 S 
ENDBRANCH  12  18
BRANCH  12  23
ATOM     23  O   UNL     1      -9.662  -2.504 124.712  0.00  0.00    +0.000 OA
ATOM     24  H   UNL     1     -10.441  -2.378 125.292  0.00  0.00    +0.000 HD
ENDBRANCH  12  23
ENDBRANCH  10  12
ENDBRANCH   9  10
ENDBRANCH   1   9
BRANCH   3  25
ATOM     25  C   UNL     1      -4.563   3.718 126.066  0.00  0.00    +0.000 C 
BRANCH  25  26
ATOM     26  C   UNL     1      -4.564   4.409 127.423  0.00  0.00    +0.000 C 
BRANCH  26  27
ATOM     27  C   UNL     1      -3.533   5.508 127.457  0.00  0.00    +0.000 C 
BRANCH  27  28
ATOM     28  O   UNL     1      -4.130   6.580 128.175  0.00  0.00    +0.000 OA
BRANCH  28  29
ATOM     29  C   UNL     1      -3.518   6.876 129.359  0.00  0.00    +0.000 A 
ATOM     30  C   UNL     1      -2.253   6.320 129.548  0.00  0.00    +0.000 A 
ATOM     31  C   UNL     1      -1.607   6.463 130.775  0.00  0.00    +0.000 A 
ATOM     32  C   UNL     1      -2.199   7.214 131.790  0.00  0.00    +0.000 A 
ATOM     33  C   UNL     1      -3.456   7.779 131.596  0.00  0.00    +0.000 A 
ATOM     34  C   UNL     1      -4.123   7.598 130.387  0.00  0.00    +0.000 A 
ENDBRANCH  28  29
ENDBRANCH  27  28
ENDBRANCH  26  27
ENDBRANCH  25  26
ENDBRANCH   3  25
TORSDOF 11
ENDMDL
MODEL 7
REMARK VINA RESULT:      -7.5      4.993      8.252
REMARK  Name = Aclidinium
REMARK  11 active torsions:
REMARK  status: ('A' for Active; 'I' for Inactive)
REMARK    1  A    between atoms: O_1  and  C_2
REMARK    2  A    between atoms: C_2  and  C_3
REMARK    3  A    between atoms: C_2  and  C_24
REMARK    4  A    between atoms: C_2  and  C_29
REMARK    5  A    between atoms: C_3  and  O_5
REMARK    6  A    between atoms: O_5  and  C_6
REMARK    7  A    between atoms: N_8  and  C_9
REMARK    8  A    between atoms: C_9  and  C_10
REMARK    9  A    between atoms: C_10  and  C_11
REMARK   10  A    between atoms: C_11  and  O_12
REMARK   11  A    between atoms: O_12  and  C_13
REMARK                            x       y       z     vdW  Elec       q    Type
REMARK                         _______ _______ _______ _____ _____    ______ ____
ROOT
ATOM      1  C   UNL     1      -8.596  -2.315 125.670  0.00  0.00    +0.000 C 
ATOM      2  C   UNL     1      -8.746  -0.867 125.247  0.00  0.00    +0.000 C 
ATOM      3  N   UNL     1      -8.456  -0.746 123.750  0.00  0.00    +0.000 N 
ATOM      4  C   UNL     1      -6.988  -1.177 123.507  0.00  0.00    +0.000 C 
ATOM      5  C   UNL     1      -6.804  -2.626 123.940  0.00  0.00    +0.000 C 
ATOM      6  C   UNL     1      -8.109  -3.181 124.489  0.00  0.00    +0.000 C 
ATOM      7  C   UNL     1      -9.183  -3.119 123.405  0.00  0.00    +0.000 C 
ATOM      8  C   UNL     1      -9.391  -1.680 122.954  0.00  0.00    +0.000 C 
ENDROOT
BRANCH   1   9
ATOM      9  O   UNL     1      -7.667  -2.369 126.761  0.00  0.00    +0.000 OA
BRANCH   9  10
ATOM     10  C   UNL     1      -7.998  -2.712 128.047  0.00  0.00    +0.000 C 
ATOM     11  O   UNL     1      -8.872  -3.576 128.157  0.00  0.00    +0.000 OA
BRANCH  10  12
ATOM     12  C   UNL     1      -7.212  -2.049 129.241  0.00  0.00    +0.000 C 
BRANCH  12  13
ATOM     13  C   UNL     1      -7.102  -0.517 129.228  0.00  0.00    +0.000 A 
ATOM     14  C   UNL     1      -7.945   0.359 128.551  0.00  0.00    +0.000 A 
ATOM     15  C   UNL     1      -7.699   1.725 128.833  0.00  0.00    +0.000 A 
ATOM     16  C   UNL     1      -6.568   1.880 129.591  0.00  0.00    +0.000 A 
ATOM     17  S   UNL     1      -5.904   0.384 130.061  0.00  0.00    +0.000 S 
ENDBRANCH  12  13
BRANCH  12  18
ATOM     18  C   UNL     1      -5.799  -2.683 129.443  0.00  0.00    +0.000 A 
ATOM     19  C   UNL     1      -4.734  -2.781 128.552  0.00  0.00    +0.000 A 
ATOM     20  C   UNL     1      -3.544  -3.322 129.112  0.00  0.00    +0.000 A 
ATOM     21  C   UNL     1      -3.696  -3.594 130.445  0.00  0.00    +0.000 A 
ATOM     22  S   UNL     1      -5.352  -3.622 130.830  0.00  0.00    +0.000 S 
ENDBRANCH  12  18
BRANCH  12  23
ATOM     23  O   UNL     1      -7.998  -2.326 130.437  0.00  0.00    +0.000 OA
ATOM     24  H   UNL     1      -7.769  -3.241 130.701  0.00  0.00    +0.000 HD
ENDBRANCH  12  23
ENDBRANCH  10  12
ENDBRANCH   9  10
ENDBRANCH   1   9
BRANCH   3  25
ATOM     25  C   UNL     1      -8.635   0.706 123.327  0.00  0.00    +0.000 C 
BRANCH  25  26
ATOM     26  C   UNL     1      -9.330   1.517 124.411  0.00  0.00    +0.000 C 
BRANCH  26  27
ATOM     27  C   UNL     1      -8.555   2.776 124.709  0.00  0.00    +0.000 C 
BRANCH  27  28
ATOM     28  O   UNL     1      -7.286   2.607 124.093  0.00  0.00    +0.000 OA
BRANCH  28  29
ATOM     29  C   UNL     1      -6.231   2.627 124.960  0.00  0.00    +0.000 A 
ATOM     30  C   UNL     1      -5.514   3.822 125.020  0.00  0.00    +0.000 A 
ATOM     31  C   UNL     1      -4.348   3.895 125.781  0.00  0.00    +0.000 A 
ATOM     32  C   UNL     1      -3.936   2.794 126.531  0.00  0.00    +0.000 A 
ATOM     33  C   UNL     1      -4.660   1.607 126.481  0.00  0.00    +0.000 A 
ATOM     34  C   UNL     1      -5.798   1.517 125.685  0.00  0.00    +0.000 A 
ENDBRANCH  28  29
ENDBRANCH  27  28
ENDBRANCH  26  27
ENDBRANCH  25  26
ENDBRANCH   3  25
TORSDOF 11
ENDMDL
MODEL 8
REMARK VINA RESULT:      -7.4      2.269      3.925
REMARK  Name = Aclidinium
REMARK  11 active torsions:
REMARK  status: ('A' for Active; 'I' for Inactive)
REMARK    1  A    between atoms: O_1  and  C_2
REMARK    2  A    between atoms: C_2  and  C_3
REMARK    3  A    between atoms: C_2  and  C_24
REMARK    4  A    between atoms: C_2  and  C_29
REMARK    5  A    between atoms: C_3  and  O_5
REMARK    6  A    between atoms: O_5  and  C_6
REMARK    7  A    between atoms: N_8  and  C_9
REMARK    8  A    between atoms: C_9  and  C_10
REMARK    9  A    between atoms: C_10  and  C_11
REMARK   10  A    between atoms: C_11  and  O_12
REMARK   11  A    between atoms: O_12  and  C_13
REMARK                            x       y       z     vdW  Elec       q    Type
REMARK                         _______ _______ _______ _____ _____    ______ ____
ROOT
ATOM      1  C   UNL     1      -4.216   5.343 127.374  0.00  0.00    +0.000 C 
ATOM      2  C   UNL     1      -5.182   5.514 128.529  0.00  0.00    +0.000 C 
ATOM      3  N   UNL     1      -4.542   4.972 129.808  0.00  0.00    +0.000 N 
ATOM      4  C   UNL     1      -4.278   3.458 129.611  0.00  0.00    +0.000 C 
ATOM      5  C   UNL     1      -3.321   3.256 128.443  0.00  0.00    +0.000 C 
ATOM      6  C   UNL     1      -2.945   4.597 127.832  0.00  0.00    +0.000 C 
ATOM      7  C   UNL     1      -2.262   5.463 128.889  0.00  0.00    +0.000 C 
ATOM      8  C   UNL     1      -3.199   5.686 130.069  0.00  0.00    +0.000 C 
ENDROOT
BRANCH   1   9
ATOM      9  O   UNL     1      -4.885   4.621 126.333  0.00  0.00    +0.000 OA
BRANCH   9  10
ATOM     10  C   UNL     1      -6.065   5.011 125.751  0.00  0.00    +0.000 C 
ATOM     11  O   UNL     1      -6.014   6.057 125.097  0.00  0.00    +0.000 OA
BRANCH  10  12
ATOM     12  C   UNL     1      -7.333   4.087 125.900  0.00  0.00    +0.000 C 
BRANCH  12  13
ATOM     13  C   UNL     1      -7.279   3.014 126.997  0.00  0.00    +0.000 A 
ATOM     14  C   UNL     1      -7.887   3.088 128.247  0.00  0.00    +0.000 A 
ATOM     15  C   UNL     1      -7.796   1.893 129.002  0.00  0.00    +0.000 A 
ATOM     16  C   UNL     1      -6.977   0.981 128.389  0.00  0.00    +0.000 A 
ATOM     17  S   UNL     1      -6.449   1.520 126.863  0.00  0.00    +0.000 S 
ENDBRANCH  12  13
BRANCH  12  18
ATOM     18  C   UNL     1      -7.756   3.441 124.542  0.00  0.00    +0.000 A 
ATOM     19  C   UNL     1      -8.897   2.711 124.223  0.00  0.00    +0.000 A 
ATOM     20  C   UNL     1      -9.014   2.371 122.847  0.00  0.00    +0.000 A 
ATOM     21  C   UNL     1      -7.977   2.883 122.114  0.00  0.00    +0.000 A 
ATOM     22  S   UNL     1      -6.715   3.333 123.160  0.00  0.00    +0.000 S 
ENDBRANCH  12  18
BRANCH  12  23
ATOM     23  O   UNL     1      -8.416   4.963 126.331  0.00  0.00    +0.000 OA
ATOM     24  H   UNL     1      -7.995   5.821 126.548  0.00  0.00    +0.000 HD
ENDBRANCH  12  23
ENDBRANCH  10  12
ENDBRANCH   9  10
ENDBRANCH   1   9
BRANCH   3  25
ATOM     25  C   UNL     1      -5.508   5.172 130.968  0.00  0.00    +0.000 C 
BRANCH  25  26
ATOM     26  C   UNL     1      -6.213   6.518 130.876  0.00  0.00    +0.000 C 
BRANCH  26  27
ATOM     27  C   UNL     1      -7.676   6.372 131.214  0.00  0.00    +0.000 C 
BRANCH  27  28
ATOM     28  O   UNL     1      -8.370   7.226 130.314  0.00  0.00    +0.000 OA
BRANCH  28  29
ATOM     29  C   UNL     1      -9.730   7.120 130.372  0.00  0.00    +0.000 A 
ATOM     30  C   UNL     1     -10.438   7.807 129.386  0.00  0.00    +0.000 A 
ATOM     31  C   UNL     1     -11.830   7.860 129.439  0.00  0.00    +0.000 A 
ATOM     32  C   UNL     1     -12.515   7.174 130.442  0.00  0.00    +0.000 A 
ATOM     33  C   UNL     1     -11.808   6.478 131.418  0.00  0.00    +0.000 A 
ATOM     34  C   UNL     1     -10.416   6.463 131.393  0.00  0.00    +0.000 A 
ENDBRANCH  28  29
ENDBRANCH  27  28
ENDBRANCH  26  27
ENDBRANCH  25  26
ENDBRANCH   3  25
TORSDOF 11
ENDMDL
MODEL 9
REMARK VINA RESULT:      -7.4      1.679      3.036
REMARK  Name = Aclidinium
REMARK  11 active torsions:
REMARK  status: ('A' for Active; 'I' for Inactive)
REMARK    1  A    between atoms: O_1  and  C_2
REMARK    2  A    between atoms: C_2  and  C_3
REMARK    3  A    between atoms: C_2  and  C_24
REMARK    4  A    between atoms: C_2  and  C_29
REMARK    5  A    between atoms: C_3  and  O_5
REMARK    6  A    between atoms: O_5  and  C_6
REMARK    7  A    between atoms: N_8  and  C_9
REMARK    8  A    between atoms: C_9  and  C_10
REMARK    9  A    between atoms: C_10  and  C_11
REMARK   10  A    between atoms: C_11  and  O_12
REMARK   11  A    between atoms: O_12  and  C_13
REMARK                            x       y       z     vdW  Elec       q    Type
REMARK                         _______ _______ _______ _____ _____    ______ ____
ROOT
ATOM      1  C   UNL     1      -7.527   4.068 128.592  0.00  0.00    +0.000 C 
ATOM      2  C   UNL     1      -8.123   5.233 129.356  0.00  0.00    +0.000 C 
ATOM      3  N   UNL     1      -8.330   4.826 130.816  0.00  0.00    +0.000 N 
ATOM      4  C   UNL     1      -9.340   3.651 130.850  0.00  0.00    +0.000 C 
ATOM      5  C   UNL     1      -8.774   2.470 130.072  0.00  0.00    +0.000 C 
ATOM      6  C   UNL     1      -7.411   2.823 129.496  0.00  0.00    +0.000 C 
ATOM      7  C   UNL     1      -6.454   3.174 130.634  0.00  0.00    +0.000 C 
ATOM      8  C   UNL     1      -6.994   4.356 131.427  0.00  0.00    +0.000 C 
ENDROOT
BRANCH   1   9
ATOM      9  O   UNL     1      -8.364   3.800 127.459  0.00  0.00    +0.000 OA
BRANCH   9  10
ATOM     10  C   UNL     1      -8.140   4.284 126.195  0.00  0.00    +0.000 C 
ATOM     11  O   UNL     1      -8.655   5.377 125.946  0.00  0.00    +0.000 OA
BRANCH  10  12
ATOM     12  C   UNL     1      -7.214   3.465 125.217  0.00  0.00    +0.000 C 
BRANCH  12  13
ATOM     13  C   UNL     1      -7.751   2.112 124.729  0.00  0.00    +0.000 A 
ATOM     14  C   UNL     1      -7.362   1.445 123.571  0.00  0.00    +0.000 A 
ATOM     15  C   UNL     1      -7.913   0.147 123.443  0.00  0.00    +0.000 A 
ATOM     16  C   UNL     1      -8.844  -0.095 124.420  0.00  0.00    +0.000 A 
ATOM     17  S   UNL     1      -8.938   1.180 125.543  0.00  0.00    +0.000 S 
ENDBRANCH  12  13
BRANCH  12  18
ATOM     18  C   UNL     1      -5.767   3.293 125.780  0.00  0.00    +0.000 A 
ATOM     19  C   UNL     1      -4.659   4.126 125.652  0.00  0.00    +0.000 A 
ATOM     20  C   UNL     1      -3.522   3.713 126.399  0.00  0.00    +0.000 A 
ATOM     21  C   UNL     1      -3.784   2.586 127.129  0.00  0.00    +0.000 A 
ATOM     22  S   UNL     1      -5.192   1.842 126.534  0.00  0.00    +0.000 S 
ENDBRANCH  12  18
BRANCH  12  23
ATOM     23  O   UNL     1      -7.124   4.259 123.997  0.00  0.00    +0.000 OA
ATOM     24  H   UNL     1      -6.748   5.122 124.267  0.00  0.00    +0.000 HD
ENDBRANCH  12  23
ENDBRANCH  10  12
ENDBRANCH   9  10
ENDBRANCH   1   9
BRANCH   3  25
ATOM     25  C   UNL     1      -8.903   6.010 131.582  0.00  0.00    +0.000 C 
BRANCH  25  26
ATOM     26  C   UNL     1     -10.247   5.667 132.209  0.00  0.00    +0.000 C 
BRANCH  26  27
ATOM     27  C   UNL     1     -11.338   6.529 131.626  0.00  0.00    +0.000 C 
BRANCH  27  28
ATOM     28  O   UNL     1     -10.764   7.174 130.497  0.00  0.00    +0.000 OA
BRANCH  28  29
ATOM     29  C   UNL     1     -11.521   7.107 129.363  0.00  0.00    +0.000 A 
ATOM     30  C   UNL     1     -10.848   7.349 128.166  0.00  0.00    +0.000 A 
ATOM     31  C   UNL     1     -11.562   7.426 126.971  0.00  0.00    +0.000 A 
ATOM     32  C   UNL     1     -12.938   7.199 126.966  0.00  0.00    +0.000 A 
ATOM     33  C   UNL     1     -13.606   6.943 128.160  0.00  0.00    +0.000 A 
ATOM     34  C   UNL     1     -12.902   6.913 129.360  0.00  0.00    +0.000 A 
ENDBRANCH  28  29
ENDBRANCH  27  28
ENDBRANCH  26  27
ENDBRANCH  25  26
ENDBRANCH   3  25
TORSDOF 11
ENDMDL
