MODEL 1
REMARK VINA RESULT:      -8.2      0.000      0.000
REMARK  Name = Acrivastine
REMARK  8 active torsions:
REMARK  status: ('A' for Active; 'I' for Inactive)
REMARK    1  A    between atoms: C_2  and  C_3
REMARK    2  A    between atoms: C_3  and  N_4
REMARK    3  A    between atoms: C_9  and  C_10
REMARK    4  A    between atoms: C_9  and  C_17
REMARK    5  A    between atoms: C_13  and  C_14
REMARK    6  A    between atoms: C_21  and  C_23
REMARK    7  A    between atoms: C_25  and  C_27
REMARK    8  A    between atoms: C_27  and  O_28
REMARK                            x       y       z     vdW  Elec       q    Type
REMARK                         _______ _______ _______ _____ _____    ______ ____
ROOT
ATOM      1  C   UNL     1      -8.259   2.206 124.609  0.00  0.00    +0.000 C 
ATOM      2  C   UNL     1      -8.035   1.703 123.363  0.00  0.00    +0.000 C 
ENDROOT
BRANCH   2   3
ATOM      3  C   UNL     1      -7.653   2.600 122.183  0.00  0.00    +0.000 A 
ATOM      4  C   UNL     1      -8.633   3.235 121.408  0.00  0.00    +0.000 A 
ATOM      5  C   UNL     1      -8.294   4.026 120.296  0.00  0.00    +0.000 A 
ATOM      6  C   UNL     1      -6.962   4.228 119.937  0.00  0.00    +0.000 A 
ATOM      7  C   UNL     1      -6.522   5.051 118.780  0.00  0.00    +0.000 C 
ATOM      8  C   UNL     1      -5.978   3.645 120.691  0.00  0.00    +0.000 A 
ATOM      9  C   UNL     1      -6.334   2.865 121.770  0.00  0.00    +0.000 A 
ENDBRANCH   2   3
BRANCH   2  10
ATOM     10  C   UNL     1      -8.045   0.191 123.253  0.00  0.00    +0.000 A 
ATOM     11  C   UNL     1      -9.273  -0.454 123.406  0.00  0.00    +0.000 A 
ATOM     12  C   UNL     1      -9.309  -1.832 123.541  0.00  0.00    +0.000 A 
ATOM     13  C   UNL     1      -8.126  -2.545 123.456  0.00  0.00    +0.000 A 
ATOM     14  C   UNL     1      -6.931  -1.865 123.228  0.00  0.00    +0.000 A 
ATOM     15  N   UNL     1      -6.871  -0.502 123.136  0.00  0.00    +0.000 NA
BRANCH  14  16
ATOM     16  C   UNL     1      -5.648  -2.600 123.085  0.00  0.00    +0.000 C 
ATOM     17  C   UNL     1      -5.407  -3.830 123.581  0.00  0.00    +0.000 C 
BRANCH  17  18
ATOM     18  C   UNL     1      -4.190  -4.657 123.492  0.00  0.00    +0.000 C 
ATOM     19  O   UNL     1      -3.122  -4.245 123.936  0.00  0.00    +0.000 OA
BRANCH  18  20
ATOM     20  O   UNL     1      -4.317  -5.857 122.913  0.00  0.00    +0.000 OA
ATOM     21  H   UNL     1      -3.882  -5.961 122.050  0.00  0.00    +0.000 HD
ENDBRANCH  18  20
ENDBRANCH  17  18
ENDBRANCH  14  16
ENDBRANCH   2  10
BRANCH   1  22
ATOM     22  C   UNL     1      -8.215   3.666 124.975  0.00  0.00    +0.000 C 
BRANCH  22  23
ATOM     23  N   UNL     1      -7.233   4.136 125.943  0.00  0.00    +0.000 NA
ATOM     24  C   UNL     1      -6.351   5.094 125.247  0.00  0.00    +0.000 C 
ATOM     25  C   UNL     1      -5.218   4.266 124.662  0.00  0.00    +0.000 C 
ATOM     26  C   UNL     1      -4.969   3.250 125.752  0.00  0.00    +0.000 C 
ATOM     27  C   UNL     1      -6.346   3.010 126.361  0.00  0.00    +0.000 C 
ENDBRANCH  22  23
ENDBRANCH   1  22
TORSDOF 7
ENDMDL
MODEL 2
REMARK VINA RESULT:      -7.7      4.034      7.956
REMARK  Name = Acrivastine
REMARK  8 active torsions:
REMARK  status: ('A' for Active; 'I' for Inactive)
REMARK    1  A    between atoms: C_2  and  C_3
REMARK    2  A    between atoms: C_3  and  N_4
REMARK    3  A    between atoms: C_9  and  C_10
REMARK    4  A    between atoms: C_9  and  C_17
REMARK    5  A    between atoms: C_13  and  C_14
REMARK    6  A    between atoms: C_21  and  C_23
REMARK    7  A    between atoms: C_25  and  C_27
REMARK    8  A    between atoms: C_27  and  O_28
REMARK                            x       y       z     vdW  Elec       q    Type
REMARK                         _______ _______ _______ _____ _____    ______ ____
ROOT
ATOM      1  C   UNL     1      -7.551   0.215 124.492  0.00  0.00    +0.000 C 
ATOM      2  C   UNL     1      -6.814   0.451 125.613  0.00  0.00    +0.000 C 
ENDROOT
BRANCH   2   3
ATOM      3  C   UNL     1      -6.684  -0.587 126.730  0.00  0.00    +0.000 A 
ATOM      4  C   UNL     1      -5.519  -1.350 126.880  0.00  0.00    +0.000 A 
ATOM      5  C   UNL     1      -5.406  -2.336 127.876  0.00  0.00    +0.000 A 
ATOM      6  C   UNL     1      -6.448  -2.574 128.772  0.00  0.00    +0.000 A 
ATOM      7  C   UNL     1      -6.406  -3.594 129.852  0.00  0.00    +0.000 C 
ATOM      8  C   UNL     1      -7.590  -1.826 128.671  0.00  0.00    +0.000 A 
ATOM      9  C   UNL     1      -7.683  -0.873 127.680  0.00  0.00    +0.000 A 
ENDBRANCH   2   3
BRANCH   2  10
ATOM     10  C   UNL     1      -6.019   1.742 125.618  0.00  0.00    +0.000 A 
ATOM     11  C   UNL     1      -5.406   2.111 126.816  0.00  0.00    +0.000 A 
ATOM     12  C   UNL     1      -4.862   3.379 126.943  0.00  0.00    +0.000 A 
ATOM     13  C   UNL     1      -4.884   4.230 125.851  0.00  0.00    +0.000 A 
ATOM     14  C   UNL     1      -5.441   3.791 124.651  0.00  0.00    +0.000 A 
ATOM     15  N   UNL     1      -6.020   2.559 124.522  0.00  0.00    +0.000 NA
BRANCH  14  16
ATOM     16  C   UNL     1      -5.440   4.658 123.446  0.00  0.00    +0.000 C 
ATOM     17  C   UNL     1      -4.951   4.301 122.242  0.00  0.00    +0.000 C 
BRANCH  17  18
ATOM     18  C   UNL     1      -4.907   5.064 120.981  0.00  0.00    +0.000 C 
ATOM     19  O   UNL     1      -5.503   4.659 119.986  0.00  0.00    +0.000 OA
BRANCH  18  20
ATOM     20  O   UNL     1      -4.197   6.198 120.986  0.00  0.00    +0.000 OA
ATOM     21  H   UNL     1      -4.532   6.912 120.419  0.00  0.00    +0.000 HD
ENDBRANCH  18  20
ENDBRANCH  17  18
ENDBRANCH  14  16
ENDBRANCH   2  10
BRANCH   1  22
ATOM     22  C   UNL     1      -8.352  -1.032 124.227  0.00  0.00    +0.000 C 
BRANCH  22  23
ATOM     23  N   UNL     1      -7.932  -1.947 123.174  0.00  0.00    +0.000 NA
ATOM     24  C   UNL     1      -7.819  -3.290 123.776  0.00  0.00    +0.000 C 
ATOM     25  C   UNL     1      -6.391  -3.396 124.287  0.00  0.00    +0.000 C 
ATOM     26  C   UNL     1      -5.610  -2.689 123.205  0.00  0.00    +0.000 C 
ATOM     27  C   UNL     1      -6.556  -1.600 122.712  0.00  0.00    +0.000 C 
ENDBRANCH  22  23
ENDBRANCH   1  22
TORSDOF 7
ENDMDL
MODEL 3
REMARK VINA RESULT:      -7.6      3.790      7.518
REMARK  Name = Acrivastine
REMARK  8 active torsions:
REMARK  status: ('A' for Active; 'I' for Inactive)
REMARK    1  A    between atoms: C_2  and  C_3
REMARK    2  A    between atoms: C_3  and  N_4
REMARK    3  A    between atoms: C_9  and  C_10
REMARK    4  A    between atoms: C_9  and  C_17
REMARK    5  A    between atoms: C_13  and  C_14
REMARK    6  A    between atoms: C_21  and  C_23
REMARK    7  A    between atoms: C_25  and  C_27
REMARK    8  A    between atoms: C_27  and  O_28
REMARK                            x       y       z     vdW  Elec       q    Type
REMARK                         _______ _______ _______ _____ _____    ______ ____
ROOT
ATOM      1  C   UNL     1      -8.114   0.067 125.909  0.00  0.00    +0.000 C 
ATOM      2  C   UNL     1      -6.965   0.161 125.184  0.00  0.00    +0.000 C 
ENDROOT
BRANCH   2   3
ATOM      3  C   UNL     1      -6.209  -1.079 124.700  0.00  0.00    +0.000 A 
ATOM      4  C   UNL     1      -6.108  -1.381 123.335  0.00  0.00    +0.000 A 
ATOM      5  C   UNL     1      -5.453  -2.540 122.883  0.00  0.00    +0.000 A 
ATOM      6  C   UNL     1      -4.856  -3.424 123.781  0.00  0.00    +0.000 A 
ATOM      7  C   UNL     1      -4.144  -4.667 123.384  0.00  0.00    +0.000 C 
ATOM      8  C   UNL     1      -4.912  -3.144 125.121  0.00  0.00    +0.000 A 
ATOM      9  C   UNL     1      -5.569  -2.008 125.542  0.00  0.00    +0.000 A 
ENDBRANCH   2   3
BRANCH   2  10
ATOM     10  C   UNL     1      -6.564   1.561 124.765  0.00  0.00    +0.000 A 
ATOM     11  C   UNL     1      -7.049   2.027 123.542  0.00  0.00    +0.000 A 
ATOM     12  C   UNL     1      -6.537   3.198 123.006  0.00  0.00    +0.000 A 
ATOM     13  C   UNL     1      -5.599   3.913 123.730  0.00  0.00    +0.000 A 
ATOM     14  C   UNL     1      -5.199   3.448 124.982  0.00  0.00    +0.000 A 
ATOM     15  N   UNL     1      -5.661   2.273 125.506  0.00  0.00    +0.000 NA
BRANCH  14  16
ATOM     16  C   UNL     1      -4.230   4.212 125.808  0.00  0.00    +0.000 C 
ATOM     17  C   UNL     1      -4.560   4.986 126.861  0.00  0.00    +0.000 C 
BRANCH  17  18
ATOM     18  C   UNL     1      -3.694   5.774 127.756  0.00  0.00    +0.000 C 
ATOM     19  O   UNL     1      -4.163   6.680 128.439  0.00  0.00    +0.000 OA
BRANCH  18  20
ATOM     20  O   UNL     1      -2.395   5.449 127.780  0.00  0.00    +0.000 OA
ATOM     21  H   UNL     1      -2.040   5.058 126.965  0.00  0.00    +0.000 HD
ENDBRANCH  18  20
ENDBRANCH  17  18
ENDBRANCH  14  16
ENDBRANCH   2  10
BRANCH   1  22
ATOM     22  C   UNL     1      -8.750  -1.220 126.364  0.00  0.00    +0.000 C 
BRANCH  22  23
ATOM     23  N   UNL     1      -9.813  -1.819 125.567  0.00  0.00    +0.000 NA
ATOM     24  C   UNL     1      -9.723  -3.282 125.742  0.00  0.00    +0.000 C 
ATOM     25  C   UNL     1      -8.780  -3.772 124.655  0.00  0.00    +0.000 C 
ATOM     26  C   UNL     1      -9.163  -2.902 123.481  0.00  0.00    +0.000 C 
ATOM     27  C   UNL     1      -9.563  -1.575 124.116  0.00  0.00    +0.000 C 
ENDBRANCH  22  23
ENDBRANCH   1  22
TORSDOF 7
ENDMDL
MODEL 4
REMARK VINA RESULT:      -7.6      7.714     11.414
REMARK  Name = Acrivastine
REMARK  8 active torsions:
REMARK  status: ('A' for Active; 'I' for Inactive)
REMARK    1  A    between atoms: C_2  and  C_3
REMARK    2  A    between atoms: C_3  and  N_4
REMARK    3  A    between atoms: C_9  and  C_10
REMARK    4  A    between atoms: C_9  and  C_17
REMARK    5  A    between atoms: C_13  and  C_14
REMARK    6  A    between atoms: C_21  and  C_23
REMARK    7  A    between atoms: C_25  and  C_27
REMARK    8  A    between atoms: C_27  and  O_28
REMARK                            x       y       z     vdW  Elec       q    Type
REMARK                         _______ _______ _______ _____ _____    ______ ____
ROOT
ATOM      1  C   UNL     1      -6.417   4.809 129.761  0.00  0.00    +0.000 C 
ATOM      2  C   UNL     1      -6.533   5.788 130.700  0.00  0.00    +0.000 C 
ENDROOT
BRANCH   2   3
ATOM      3  C   UNL     1      -5.312   6.528 131.254  0.00  0.00    +0.000 A 
ATOM      4  C   UNL     1      -4.695   7.554 130.526  0.00  0.00    +0.000 A 
ATOM      5  C   UNL     1      -3.547   8.211 131.006  0.00  0.00    +0.000 A 
ATOM      6  C   UNL     1      -2.995   7.879 132.243  0.00  0.00    +0.000 A 
ATOM      7  C   UNL     1      -1.788   8.526 132.821  0.00  0.00    +0.000 C 
ATOM      8  C   UNL     1      -3.591   6.900 132.992  0.00  0.00    +0.000 A 
ATOM      9  C   UNL     1      -4.708   6.262 132.497  0.00  0.00    +0.000 A 
ENDBRANCH   2   3
BRANCH   2  10
ATOM     10  C   UNL     1      -7.949   6.196 131.054  0.00  0.00    +0.000 A 
ATOM     11  C   UNL     1      -8.420   5.843 132.320  0.00  0.00    +0.000 A 
ATOM     12  C   UNL     1      -9.766   5.986 132.612  0.00  0.00    +0.000 A 
ATOM     13  C   UNL     1     -10.605   6.538 131.659  0.00  0.00    +0.000 A 
ATOM     14  C   UNL     1     -10.076   6.947 130.435  0.00  0.00    +0.000 A 
ATOM     15  N   UNL     1      -8.758   6.772 130.114  0.00  0.00    +0.000 NA
BRANCH  14  16
ATOM     16  C   UNL     1     -10.934   7.586 129.406  0.00  0.00    +0.000 C 
ATOM     17  C   UNL     1     -12.029   8.327 129.671  0.00  0.00    +0.000 C 
BRANCH  17  18
ATOM     18  C   UNL     1     -12.945   9.016 128.743  0.00  0.00    +0.000 C 
ATOM     19  O   UNL     1     -13.578   8.380 127.906  0.00  0.00    +0.000 OA
BRANCH  18  20
ATOM     20  O   UNL     1     -13.041  10.345 128.867  0.00  0.00    +0.000 OA
ATOM     21  H   UNL     1     -13.809  10.671 129.365  0.00  0.00    +0.000 HD
ENDBRANCH  18  20
ENDBRANCH  17  18
ENDBRANCH  14  16
ENDBRANCH   2  10
BRANCH   1  22
ATOM     22  C   UNL     1      -5.118   4.300 129.194  0.00  0.00    +0.000 C 
BRANCH  22  23
ATOM     23  N   UNL     1      -4.547   4.940 128.016  0.00  0.00    +0.000 NA
ATOM     24  C   UNL     1      -4.763   4.031 126.873  0.00  0.00    +0.000 C 
ATOM     25  C   UNL     1      -3.547   3.119 126.832  0.00  0.00    +0.000 C 
ATOM     26  C   UNL     1      -2.425   4.064 127.192  0.00  0.00    +0.000 C 
ATOM     27  C   UNL     1      -3.066   5.052 128.161  0.00  0.00    +0.000 C 
ENDBRANCH  22  23
ENDBRANCH   1  22
TORSDOF 7
ENDMDL
MODEL 5
REMARK VINA RESULT:      -7.6      4.107      6.975
REMARK  Name = Acrivastine
REMARK  8 active torsions:
REMARK  status: ('A' for Active; 'I' for Inactive)
REMARK    1  A    between atoms: C_2  and  C_3
REMARK    2  A    between atoms: C_3  and  N_4
REMARK    3  A    between atoms: C_9  and  C_10
REMARK    4  A    between atoms: C_9  and  C_17
REMARK    5  A    between atoms: C_13  and  C_14
REMARK    6  A    between atoms: C_21  and  C_23
REMARK    7  A    between atoms: C_25  and  C_27
REMARK    8  A    between atoms: C_27  and  O_28
REMARK                            x       y       z     vdW  Elec       q    Type
REMARK                         _______ _______ _______ _____ _____    ______ ____
ROOT
ATOM      1  C   UNL     1      -8.216  -0.650 126.753  0.00  0.00    +0.000 C 
ATOM      2  C   UNL     1      -7.697  -0.598 125.495  0.00  0.00    +0.000 C 
ENDROOT
BRANCH   2   3
ATOM      3  C   UNL     1      -6.827  -1.724 124.931  0.00  0.00    +0.000 A 
ATOM      4  C   UNL     1      -7.362  -2.993 124.672  0.00  0.00    +0.000 A 
ATOM      5  C   UNL     1      -6.563  -4.047 124.195  0.00  0.00    +0.000 A 
ATOM      6  C   UNL     1      -5.205  -3.859 123.937  0.00  0.00    +0.000 A 
ATOM      7  C   UNL     1      -4.294  -4.918 123.431  0.00  0.00    +0.000 C 
ATOM      8  C   UNL     1      -4.657  -2.622 124.153  0.00  0.00    +0.000 A 
ATOM      9  C   UNL     1      -5.457  -1.607 124.632  0.00  0.00    +0.000 A 
ENDBRANCH   2   3
BRANCH   2  10
ATOM     10  C   UNL     1      -8.151   0.570 124.643  0.00  0.00    +0.000 A 
ATOM     11  C   UNL     1      -9.485   0.584 124.233  0.00  0.00    +0.000 A 
ATOM     12  C   UNL     1      -9.896   1.496 123.275  0.00  0.00    +0.000 A 
ATOM     13  C   UNL     1      -8.984   2.419 122.792  0.00  0.00    +0.000 A 
ATOM     14  C   UNL     1      -7.680   2.416 123.286  0.00  0.00    +0.000 A 
ATOM     15  N   UNL     1      -7.246   1.495 124.199  0.00  0.00    +0.000 NA
BRANCH  14  16
ATOM     16  C   UNL     1      -6.686   3.420 122.827  0.00  0.00    +0.000 C 
ATOM     17  C   UNL     1      -6.300   3.589 121.547  0.00  0.00    +0.000 C 
BRANCH  17  18
ATOM     18  C   UNL     1      -5.341   4.552 120.975  0.00  0.00    +0.000 C 
ATOM     19  O   UNL     1      -5.382   4.838 119.782  0.00  0.00    +0.000 OA
BRANCH  18  20
ATOM     20  O   UNL     1      -4.443   5.082 121.815  0.00  0.00    +0.000 OA
ATOM     21  H   UNL     1      -3.540   4.733 121.748  0.00  0.00    +0.000 HD
ENDBRANCH  18  20
ENDBRANCH  17  18
ENDBRANCH  14  16
ENDBRANCH   2  10
BRANCH   1  22
ATOM     22  C   UNL     1      -7.975  -1.755 127.747  0.00  0.00    +0.000 C 
BRANCH  22  23
ATOM     23  N   UNL     1      -7.227  -1.476 128.966  0.00  0.00    +0.000 NA
ATOM     24  C   UNL     1      -5.796  -1.440 128.606  0.00  0.00    +0.000 C 
ATOM     25  C   UNL     1      -5.294  -2.867 128.754  0.00  0.00    +0.000 C 
ATOM     26  C   UNL     1      -6.028  -3.339 129.986  0.00  0.00    +0.000 C 
ATOM     27  C   UNL     1      -7.368  -2.613 129.924  0.00  0.00    +0.000 C 
ENDBRANCH  22  23
ENDBRANCH   1  22
TORSDOF 7
ENDMDL
MODEL 6
REMARK VINA RESULT:      -7.5      3.828      6.668
REMARK  Name = Acrivastine
REMARK  8 active torsions:
REMARK  status: ('A' for Active; 'I' for Inactive)
REMARK    1  A    between atoms: C_2  and  C_3
REMARK    2  A    between atoms: C_3  and  N_4
REMARK    3  A    between atoms: C_9  and  C_10
REMARK    4  A    between atoms: C_9  and  C_17
REMARK    5  A    between atoms: C_13  and  C_14
REMARK    6  A    between atoms: C_21  and  C_23
REMARK    7  A    between atoms: C_25  and  C_27
REMARK    8  A    between atoms: C_27  and  O_28
REMARK                            x       y       z     vdW  Elec       q    Type
REMARK                         _______ _______ _______ _____ _____    ______ ____
ROOT
ATOM      1  C   UNL     1      -6.814   0.917 124.342  0.00  0.00    +0.000 C 
ATOM      2  C   UNL     1      -6.684   2.253 124.113  0.00  0.00    +0.000 C 
ENDROOT
BRANCH   2   3
ATOM      3  C   UNL     1      -6.955   2.869 122.738  0.00  0.00    +0.000 A 
ATOM      4  C   UNL     1      -8.262   3.115 122.298  0.00  0.00    +0.000 A 
ATOM      5  C   UNL     1      -8.524   3.640 121.020  0.00  0.00    +0.000 A 
ATOM      6  C   UNL     1      -7.484   3.959 120.148  0.00  0.00    +0.000 A 
ATOM      7  C   UNL     1      -7.676   4.519 118.785  0.00  0.00    +0.000 C 
ATOM      8  C   UNL     1      -6.192   3.758 120.558  0.00  0.00    +0.000 A 
ATOM      9  C   UNL     1      -5.960   3.232 121.810  0.00  0.00    +0.000 A 
ENDBRANCH   2   3
BRANCH   2  10
ATOM     10  C   UNL     1      -6.395   3.106 125.332  0.00  0.00    +0.000 A 
ATOM     11  C   UNL     1      -5.099   3.601 125.475  0.00  0.00    +0.000 A 
ATOM     12  C   UNL     1      -4.720   4.189 126.671  0.00  0.00    +0.000 A 
ATOM     13  C   UNL     1      -5.660   4.329 127.677  0.00  0.00    +0.000 A 
ATOM     14  C   UNL     1      -6.965   3.887 127.462  0.00  0.00    +0.000 A 
ATOM     15  N   UNL     1      -7.344   3.265 126.305  0.00  0.00    +0.000 NA
BRANCH  14  16
ATOM     16  C   UNL     1      -8.013   4.062 128.499  0.00  0.00    +0.000 C 
ATOM     17  C   UNL     1      -8.594   3.056 129.182  0.00  0.00    +0.000 C 
BRANCH  17  18
ATOM     18  C   UNL     1      -9.626   3.108 130.234  0.00  0.00    +0.000 C 
ATOM     19  O   UNL     1     -10.694   3.679 130.032  0.00  0.00    +0.000 OA
BRANCH  18  20
ATOM     20  O   UNL     1      -9.336   2.508 131.395  0.00  0.00    +0.000 OA
ATOM     21  H   UNL     1      -8.868   1.659 131.330  0.00  0.00    +0.000 HD
ENDBRANCH  18  20
ENDBRANCH  17  18
ENDBRANCH  14  16
ENDBRANCH   2  10
BRANCH   1  22
ATOM     22  C   UNL     1      -7.180  -0.110 123.304  0.00  0.00    +0.000 C 
BRANCH  22  23
ATOM     23  N   UNL     1      -8.518  -0.685 123.300  0.00  0.00    +0.000 NA
ATOM     24  C   UNL     1      -8.889  -0.947 124.704  0.00  0.00    +0.000 C 
ATOM     25  C   UNL     1      -8.403  -2.356 125.006  0.00  0.00    +0.000 C 
ATOM     26  C   UNL     1      -8.701  -3.081 123.715  0.00  0.00    +0.000 C 
ATOM     27  C   UNL     1      -8.499  -2.022 122.637  0.00  0.00    +0.000 C 
ENDBRANCH  22  23
ENDBRANCH   1  22
TORSDOF 7
ENDMDL
MODEL 7
REMARK VINA RESULT:      -7.2      5.039      8.005
REMARK  Name = Acrivastine
REMARK  8 active torsions:
REMARK  status: ('A' for Active; 'I' for Inactive)
REMARK    1  A    between atoms: C_2  and  C_3
REMARK    2  A    between atoms: C_3  and  N_4
REMARK    3  A    between atoms: C_9  and  C_10
REMARK    4  A    between atoms: C_9  and  C_17
REMARK    5  A    between atoms: C_13  and  C_14
REMARK    6  A    between atoms: C_21  and  C_23
REMARK    7  A    between atoms: C_25  and  C_27
REMARK    8  A    between atoms: C_27  and  O_28
REMARK                            x       y       z     vdW  Elec       q    Type
REMARK                         _______ _______ _______ _____ _____    ______ ____
ROOT
ATOM      1  C   UNL     1      -5.550   0.248 127.820  0.00  0.00    +0.000 C 
ATOM      2  C   UNL     1      -5.689  -1.052 127.435  0.00  0.00    +0.000 C 
ENDROOT
BRANCH   2   3
ATOM      3  C   UNL     1      -5.631  -2.204 128.441  0.00  0.00    +0.000 A 
ATOM      4  C   UNL     1      -6.802  -2.769 128.965  0.00  0.00    +0.000 A 
ATOM      5  C   UNL     1      -6.759  -3.799 129.922  0.00  0.00    +0.000 A 
ATOM      6  C   UNL     1      -5.542  -4.315 130.367  0.00  0.00    +0.000 A 
ATOM      7  C   UNL     1      -5.412  -5.402 131.371  0.00  0.00    +0.000 C 
ATOM      8  C   UNL     1      -4.379  -3.805 129.853  0.00  0.00    +0.000 A 
ATOM      9  C   UNL     1      -4.446  -2.788 128.925  0.00  0.00    +0.000 A 
ENDBRANCH   2   3
BRANCH   2  10
ATOM     10  C   UNL     1      -6.047  -1.272 125.979  0.00  0.00    +0.000 A 
ATOM     11  C   UNL     1      -5.689  -2.495 125.410  0.00  0.00    +0.000 A 
ATOM     12  C   UNL     1      -5.785  -2.665 124.039  0.00  0.00    +0.000 A 
ATOM     13  C   UNL     1      -6.296  -1.633 123.269  0.00  0.00    +0.000 A 
ATOM     14  C   UNL     1      -6.712  -0.456 123.890  0.00  0.00    +0.000 A 
ATOM     15  N   UNL     1      -6.584  -0.256 125.237  0.00  0.00    +0.000 NA
BRANCH  14  16
ATOM     16  C   UNL     1      -7.308   0.654 123.105  0.00  0.00    +0.000 C 
ATOM     17  C   UNL     1      -6.891   1.935 123.144  0.00  0.00    +0.000 C 
BRANCH  17  18
ATOM     18  C   UNL     1      -7.392   3.109 122.407  0.00  0.00    +0.000 C 
ATOM     19  O   UNL     1      -6.763   3.563 121.456  0.00  0.00    +0.000 OA
BRANCH  18  20
ATOM     20  O   UNL     1      -8.547   3.639 122.828  0.00  0.00    +0.000 OA
ATOM     21  H   UNL     1      -8.627   4.603 122.748  0.00  0.00    +0.000 HD
ENDBRANCH  18  20
ENDBRANCH  17  18
ENDBRANCH  14  16
ENDBRANCH   2  10
BRANCH   1  22
ATOM     22  C   UNL     1      -5.279   0.712 129.226  0.00  0.00    +0.000 C 
BRANCH  22  23
ATOM     23  N   UNL     1      -6.317   1.421 129.963  0.00  0.00    +0.000 NA
ATOM     24  C   UNL     1      -6.188   1.039 131.383  0.00  0.00    +0.000 C 
ATOM     25  C   UNL     1      -7.057  -0.195 131.561  0.00  0.00    +0.000 C 
ATOM     26  C   UNL     1      -8.249   0.124 130.690  0.00  0.00    +0.000 C 
ATOM     27  C   UNL     1      -7.665   0.938 129.541  0.00  0.00    +0.000 C 
ENDBRANCH  22  23
ENDBRANCH   1  22
TORSDOF 7
ENDMDL
MODEL 8
REMARK VINA RESULT:      -7.2      4.442      8.404
REMARK  Name = Acrivastine
REMARK  8 active torsions:
REMARK  status: ('A' for Active; 'I' for Inactive)
REMARK    1  A    between atoms: C_2  and  C_3
REMARK    2  A    between atoms: C_3  and  N_4
REMARK    3  A    between atoms: C_9  and  C_10
REMARK    4  A    between atoms: C_9  and  C_17
REMARK    5  A    between atoms: C_13  and  C_14
REMARK    6  A    between atoms: C_21  and  C_23
REMARK    7  A    between atoms: C_25  and  C_27
REMARK    8  A    between atoms: C_27  and  O_28
REMARK                            x       y       z     vdW  Elec       q    Type
REMARK                         _______ _______ _______ _____ _____    ______ ____
ROOT
ATOM      1  C   UNL     1      -8.273  -0.869 126.346  0.00  0.00    +0.000 C 
ATOM      2  C   UNL     1      -7.619  -0.624 127.516  0.00  0.00    +0.000 C 
ENDROOT
BRANCH   2   3
ATOM      3  C   UNL     1      -7.072  -1.755 128.391  0.00  0.00    +0.000 A 
ATOM      4  C   UNL     1      -7.879  -2.387 129.347  0.00  0.00    +0.000 A 
ATOM      5  C   UNL     1      -7.374  -3.397 130.185  0.00  0.00    +0.000 A 
ATOM      6  C   UNL     1      -6.051  -3.825 130.077  0.00  0.00    +0.000 A 
ATOM      7  C   UNL     1      -5.443  -4.886 130.921  0.00  0.00    +0.000 C 
ATOM      8  C   UNL     1      -5.244  -3.248 129.133  0.00  0.00    +0.000 A 
ATOM      9  C   UNL     1      -5.757  -2.252 128.330  0.00  0.00    +0.000 A 
ENDBRANCH   2   3
BRANCH   2  10
ATOM     10  C   UNL     1      -7.343   0.835 127.822  0.00  0.00    +0.000 A 
ATOM     11  C   UNL     1      -8.375   1.575 128.400  0.00  0.00    +0.000 A 
ATOM     12  C   UNL     1      -8.260   2.952 128.492  0.00  0.00    +0.000 A 
ATOM     13  C   UNL     1      -7.090   3.558 128.064  0.00  0.00    +0.000 A 
ATOM     14  C   UNL     1      -6.055   2.770 127.562  0.00  0.00    +0.000 A 
ATOM     15  N   UNL     1      -6.169   1.414 127.424  0.00  0.00    +0.000 NA
BRANCH  14  16
ATOM     16  C   UNL     1      -4.769   3.378 127.137  0.00  0.00    +0.000 C 
ATOM     17  C   UNL     1      -3.552   2.853 127.383  0.00  0.00    +0.000 C 
BRANCH  17  18
ATOM     18  C   UNL     1      -2.218   3.353 127.004  0.00  0.00    +0.000 C 
ATOM     19  O   UNL     1      -1.410   2.615 126.448  0.00  0.00    +0.000 OA
BRANCH  18  20
ATOM     20  O   UNL     1      -1.947   4.632 127.296  0.00  0.00    +0.000 OA
ATOM     21  H   UNL     1      -1.472   4.786 128.128  0.00  0.00    +0.000 HD
ENDBRANCH  18  20
ENDBRANCH  17  18
ENDBRANCH  14  16
ENDBRANCH   2  10
BRANCH   1  22
ATOM     22  C   UNL     1      -8.583  -2.236 125.796  0.00  0.00    +0.000 C 
BRANCH  22  23
ATOM     23  N   UNL     1      -8.300  -2.529 124.397  0.00  0.00    +0.000 NA
ATOM     24  C   UNL     1      -7.413  -3.708 124.365  0.00  0.00    +0.000 C 
ATOM     25  C   UNL     1      -5.995  -3.163 124.424  0.00  0.00    +0.000 C 
ATOM     26  C   UNL     1      -6.091  -1.929 123.558  0.00  0.00    +0.000 C 
ATOM     27  C   UNL     1      -7.509  -1.418 123.791  0.00  0.00    +0.000 C 
ENDBRANCH  22  23
ENDBRANCH   1  22
TORSDOF 7
ENDMDL
MODEL 9
REMARK VINA RESULT:      -7.2      4.274      8.187
REMARK  Name = Acrivastine
REMARK  8 active torsions:
REMARK  status: ('A' for Active; 'I' for Inactive)
REMARK    1  A    between atoms: C_2  and  C_3
REMARK    2  A    between atoms: C_3  and  N_4
REMARK    3  A    between atoms: C_9  and  C_10
REMARK    4  A    between atoms: C_9  and  C_17
REMARK    5  A    between atoms: C_13  and  C_14
REMARK    6  A    between atoms: C_21  and  C_23
REMARK    7  A    between atoms: C_25  and  C_27
REMARK    8  A    between atoms: C_27  and  O_28
REMARK                            x       y       z     vdW  Elec       q    Type
REMARK                         _______ _______ _______ _____ _____    ______ ____
ROOT
ATOM      1  C   UNL     1      -8.597  -1.222 125.673  0.00  0.00    +0.000 C 
ATOM      2  C   UNL     1      -7.950  -0.775 126.786  0.00  0.00    +0.000 C 
ENDROOT
BRANCH   2   3
ATOM      3  C   UNL     1      -7.343  -1.736 127.810  0.00  0.00    +0.000 A 
ATOM      4  C   UNL     1      -5.957  -1.926 127.894  0.00  0.00    +0.000 A 
ATOM      5  C   UNL     1      -5.391  -2.839 128.802  0.00  0.00    +0.000 A 
ATOM      6  C   UNL     1      -6.194  -3.575 129.674  0.00  0.00    +0.000 A 
ATOM      7  C   UNL     1      -5.675  -4.555 130.663  0.00  0.00    +0.000 C 
ATOM      8  C   UNL     1      -7.551  -3.392 129.637  0.00  0.00    +0.000 A 
ATOM      9  C   UNL     1      -8.083  -2.500 128.731  0.00  0.00    +0.000 A 
ENDBRANCH   2   3
BRANCH   2  10
ATOM     10  C   UNL     1      -7.746   0.725 126.871  0.00  0.00    +0.000 A 
ATOM     11  C   UNL     1      -7.931   1.327 128.116  0.00  0.00    +0.000 A 
ATOM     12  C   UNL     1      -7.980   2.708 128.206  0.00  0.00    +0.000 A 
ATOM     13  C   UNL     1      -7.781   3.463 127.063  0.00  0.00    +0.000 A 
ATOM     14  C   UNL     1      -7.524   2.819 125.853  0.00  0.00    +0.000 A 
ATOM     15  N   UNL     1      -7.515   1.456 125.738  0.00  0.00    +0.000 NA
BRANCH  14  16
ATOM     16  C   UNL     1      -7.259   3.595 124.615  0.00  0.00    +0.000 C 
ATOM     17  C   UNL     1      -6.368   3.246 123.666  0.00  0.00    +0.000 C 
BRANCH  17  18
ATOM     18  C   UNL     1      -6.029   3.923 122.400  0.00  0.00    +0.000 C 
ATOM     19  O   UNL     1      -6.635   3.652 121.367  0.00  0.00    +0.000 OA
BRANCH  18  20
ATOM     20  O   UNL     1      -5.046   4.830 122.445  0.00  0.00    +0.000 OA
ATOM     21  H   UNL     1      -4.776   5.207 121.591  0.00  0.00    +0.000 HD
ENDBRANCH  18  20
ENDBRANCH  17  18
ENDBRANCH  14  16
ENDBRANCH   2  10
BRANCH   1  22
ATOM     22  C   UNL     1      -8.841  -2.668 125.334  0.00  0.00    +0.000 C 
BRANCH  22  23
ATOM     23  N   UNL     1      -8.319  -3.212 124.086  0.00  0.00    +0.000 NA
ATOM     24  C   UNL     1      -7.096  -3.970 124.414  0.00  0.00    +0.000 C 
ATOM     25  C   UNL     1      -5.953  -2.971 124.328  0.00  0.00    +0.000 C 
ATOM     26  C   UNL     1      -6.350  -2.131 123.137  0.00  0.00    +0.000 C 
ATOM     27  C   UNL     1      -7.874  -2.104 123.191  0.00  0.00    +0.000 C 
ENDBRANCH  22  23
ENDBRANCH   1  22
TORSDOF 7
ENDMDL
