MODEL 1
REMARK VINA RESULT:      -5.5      0.000      0.000
REMARK  Name = Acyclovir
REMARK  5 active torsions:
REMARK  status: ('A' for Active; 'I' for Inactive)
REMARK    1  A    between atoms: N_9  and  C_10
REMARK    2  A    between atoms: C_10  and  O_11
REMARK    3  A    between atoms: O_11  and  C_12
REMARK    4  A    between atoms: C_12  and  C_13
REMARK    5  A    between atoms: C_13  and  O_14
REMARK                            x       y       z     vdW  Elec       q    Type
REMARK                         _______ _______ _______ _____ _____    ______ ____
ROOT
ATOM      1  N   UNL     1     -10.905   8.627 127.777  0.00  0.00    +0.000 N 
ATOM      2  C   UNL     1     -10.988   8.027 128.985  0.00  0.00    +0.000 A 
ATOM      3  N   UNL     1     -12.142   7.898 129.575  0.00  0.00    +0.000 NA
ATOM      4  C   UNL     1     -12.228   7.280 130.831  0.00  0.00    +0.000 A 
ATOM      5  O   UNL     1     -13.294   7.138 131.422  0.00  0.00    +0.000 OA
ATOM      6  C   UNL     1     -10.956   6.815 131.395  0.00  0.00    +0.000 A 
ATOM      7  C   UNL     1      -9.804   7.007 130.685  0.00  0.00    +0.000 A 
ATOM      8  N   UNL     1      -9.785   7.604 129.486  0.00  0.00    +0.000 N 
ATOM      9  N   UNL     1      -8.788   6.495 131.423  0.00  0.00    +0.000 N 
ATOM     10  C   UNL     1      -9.361   5.998 132.569  0.00  0.00    +0.000 A 
ATOM     11  N   UNL     1     -10.670   6.177 132.586  0.00  0.00    +0.000 NA
ATOM     12  H   UNL     1     -11.768   8.952 127.356  0.00  0.00    +0.000 HD
ATOM     13  H   UNL     1     -10.051   8.748 127.260  0.00  0.00    +0.000 HD
ATOM     14  H   UNL     1      -8.923   7.734 128.968  0.00  0.00    +0.000 HD
ENDROOT
BRANCH   9  15
ATOM     15  C   UNL     1      -7.371   6.451 131.129  0.00  0.00    +0.000 C 
BRANCH  15  16
ATOM     16  O   UNL     1      -7.175   5.933 129.813  0.00  0.00    +0.000 OA
BRANCH  16  17
ATOM     17  C   UNL     1      -7.235   4.515 129.814  0.00  0.00    +0.000 C 
BRANCH  17  18
ATOM     18  C   UNL     1      -8.114   4.053 128.662  0.00  0.00    +0.000 C 
BRANCH  18  19
ATOM     19  O   UNL     1      -8.622   5.169 127.949  0.00  0.00    +0.000 OA
ATOM     20  H   UNL     1      -9.356   4.857 127.391  0.00  0.00    +0.000 HD
ENDBRANCH  18  19
ENDBRANCH  17  18
ENDBRANCH  16  17
ENDBRANCH  15  16
ENDBRANCH   9  15
TORSDOF 5
ENDMDL
MODEL 2
REMARK VINA RESULT:      -5.5      9.182     10.944
REMARK  Name = Acyclovir
REMARK  5 active torsions:
REMARK  status: ('A' for Active; 'I' for Inactive)
REMARK    1  A    between atoms: N_9  and  C_10
REMARK    2  A    between atoms: C_10  and  O_11
REMARK    3  A    between atoms: O_11  and  C_12
REMARK    4  A    between atoms: C_12  and  C_13
REMARK    5  A    between atoms: C_13  and  O_14
REMARK                            x       y       z     vdW  Elec       q    Type
REMARK                         _______ _______ _______ _____ _____    ______ ____
ROOT
ATOM      1  N   UNL     1      -6.974   2.290 124.159  0.00  0.00    +0.000 N 
ATOM      2  C   UNL     1      -7.730   1.215 123.846  0.00  0.00    +0.000 A 
ATOM      3  N   UNL     1      -8.898   1.373 123.293  0.00  0.00    +0.000 NA
ATOM      4  C   UNL     1      -9.686   0.257 122.974  0.00  0.00    +0.000 A 
ATOM      5  O   UNL     1     -10.791   0.361 122.452  0.00  0.00    +0.000 OA
ATOM      6  C   UNL     1      -9.099  -1.046 123.306  0.00  0.00    +0.000 A 
ATOM      7  C   UNL     1      -7.863  -1.091 123.888  0.00  0.00    +0.000 A 
ATOM      8  N   UNL     1      -7.157   0.013 124.169  0.00  0.00    +0.000 N 
ATOM      9  N   UNL     1      -7.562  -2.397 124.090  0.00  0.00    +0.000 N 
ATOM     10  C   UNL     1      -8.635  -3.114 123.615  0.00  0.00    +0.000 A 
ATOM     11  N   UNL     1      -9.583  -2.329 123.137  0.00  0.00    +0.000 NA
ATOM     12  H   UNL     1      -7.347   3.205 123.934  0.00  0.00    +0.000 HD
ATOM     13  H   UNL     1      -6.059   2.240 124.575  0.00  0.00    +0.000 HD
ATOM     14  H   UNL     1      -6.238  -0.036 124.595  0.00  0.00    +0.000 HD
ENDROOT
BRANCH   9  15
ATOM     15  C   UNL     1      -6.379  -2.986 124.682  0.00  0.00    +0.000 C 
BRANCH  15  16
ATOM     16  O   UNL     1      -5.215  -2.378 124.121  0.00  0.00    +0.000 OA
BRANCH  16  17
ATOM     17  C   UNL     1      -4.532  -3.286 123.271  0.00  0.00    +0.000 C 
BRANCH  17  18
ATOM     18  C   UNL     1      -4.610  -4.682 123.869  0.00  0.00    +0.000 C 
BRANCH  18  19
ATOM     19  O   UNL     1      -4.152  -5.646 122.936  0.00  0.00    +0.000 OA
ATOM     20  H   UNL     1      -3.394  -5.264 122.459  0.00  0.00    +0.000 HD
ENDBRANCH  18  19
ENDBRANCH  17  18
ENDBRANCH  16  17
ENDBRANCH  15  16
ENDBRANCH   9  15
TORSDOF 5
ENDMDL
MODEL 3
REMARK VINA RESULT:      -5.3      1.932      2.219
REMARK  Name = Acyclovir
REMARK  5 active torsions:
REMARK  status: ('A' for Active; 'I' for Inactive)
REMARK    1  A    between atoms: N_9  and  C_10
REMARK    2  A    between atoms: C_10  and  O_11
REMARK    3  A    between atoms: O_11  and  C_12
REMARK    4  A    between atoms: C_12  and  C_13
REMARK    5  A    between atoms: C_13  and  O_14
REMARK                            x       y       z     vdW  Elec       q    Type
REMARK                         _______ _______ _______ _____ _____    ______ ____
ROOT
ATOM      1  N   UNL     1     -10.539   7.543 126.421  0.00  0.00    +0.000 N 
ATOM      2  C   UNL     1     -11.094   7.661 127.646  0.00  0.00    +0.000 A 
ATOM      3  N   UNL     1     -11.887   8.660 127.913  0.00  0.00    +0.000 NA
ATOM      4  C   UNL     1     -12.459   8.786 129.188  0.00  0.00    +0.000 A 
ATOM      5  O   UNL     1     -13.211   9.710 129.482  0.00  0.00    +0.000 OA
ATOM      6  C   UNL     1     -12.098   7.738 130.149  0.00  0.00    +0.000 A 
ATOM      7  C   UNL     1     -11.254   6.737 129.757  0.00  0.00    +0.000 A 
ATOM      8  N   UNL     1     -10.739   6.669 128.522  0.00  0.00    +0.000 N 
ATOM      9  N   UNL     1     -11.085   5.914 130.822  0.00  0.00    +0.000 N 
ATOM     10  C   UNL     1     -11.845   6.445 131.838  0.00  0.00    +0.000 A 
ATOM     11  N   UNL     1     -12.468   7.548 131.466  0.00  0.00    +0.000 NA
ATOM     12  H   UNL     1     -10.775   8.246 125.731  0.00  0.00    +0.000 HD
ATOM     13  H   UNL     1      -9.930   6.792 126.142  0.00  0.00    +0.000 HD
ATOM     14  H   UNL     1     -10.119   5.917 128.244  0.00  0.00    +0.000 HD
ENDROOT
BRANCH   9  15
ATOM     15  C   UNL     1     -10.284   4.714 130.937  0.00  0.00    +0.000 C 
BRANCH  15  16
ATOM     16  O   UNL     1     -10.020   4.193 129.634  0.00  0.00    +0.000 OA
BRANCH  16  17
ATOM     17  C   UNL     1      -8.748   3.565 129.590  0.00  0.00    +0.000 C 
BRANCH  17  18
ATOM     18  C   UNL     1      -7.859   4.312 128.607  0.00  0.00    +0.000 C 
BRANCH  18  19
ATOM     19  O   UNL     1      -8.648   5.015 127.662  0.00  0.00    +0.000 OA
ATOM     20  H   UNL     1      -8.185   4.984 126.806  0.00  0.00    +0.000 HD
ENDBRANCH  18  19
ENDBRANCH  17  18
ENDBRANCH  16  17
ENDBRANCH  15  16
ENDBRANCH   9  15
TORSDOF 5
ENDMDL
MODEL 4
REMARK VINA RESULT:      -5.1      2.359      3.626
REMARK  Name = Acyclovir
REMARK  5 active torsions:
REMARK  status: ('A' for Active; 'I' for Inactive)
REMARK    1  A    between atoms: N_9  and  C_10
REMARK    2  A    between atoms: C_10  and  O_11
REMARK    3  A    between atoms: O_11  and  C_12
REMARK    4  A    between atoms: C_12  and  C_13
REMARK    5  A    between atoms: C_13  and  O_14
REMARK                            x       y       z     vdW  Elec       q    Type
REMARK                         _______ _______ _______ _____ _____    ______ ____
ROOT
ATOM      1  N   UNL     1     -13.106   7.508 131.496  0.00  0.00    +0.000 N 
ATOM      2  C   UNL     1     -12.100   7.186 130.655  0.00  0.00    +0.000 A 
ATOM      3  N   UNL     1     -11.819   7.956 129.643  0.00  0.00    +0.000 NA
ATOM      4  C   UNL     1     -10.778   7.619 128.765  0.00  0.00    +0.000 A 
ATOM      5  O   UNL     1     -10.480   8.315 127.801  0.00  0.00    +0.000 OA
ATOM      6  C   UNL     1     -10.067   6.373 129.078  0.00  0.00    +0.000 A 
ATOM      7  C   UNL     1     -10.451   5.643 130.167  0.00  0.00    +0.000 A 
ATOM      8  N   UNL     1     -11.455   6.019 130.971  0.00  0.00    +0.000 N 
ATOM      9  N   UNL     1      -9.644   4.555 130.225  0.00  0.00    +0.000 N 
ATOM     10  C   UNL     1      -8.782   4.661 129.159  0.00  0.00    +0.000 A 
ATOM     11  N   UNL     1      -9.012   5.747 128.443  0.00  0.00    +0.000 NA
ATOM     12  H   UNL     1     -13.611   8.367 131.313  0.00  0.00    +0.000 HD
ATOM     13  H   UNL     1     -13.368   6.967 132.304  0.00  0.00    +0.000 HD
ATOM     14  H   UNL     1     -11.724   5.470 131.780  0.00  0.00    +0.000 HD
ENDROOT
BRANCH   9  15
ATOM     15  C   UNL     1      -9.639   3.466 131.179  0.00  0.00    +0.000 C 
BRANCH  15  16
ATOM     16  O   UNL     1      -9.598   3.996 132.504  0.00  0.00    +0.000 OA
BRANCH  16  17
ATOM     17  C   UNL     1      -8.278   4.386 132.851  0.00  0.00    +0.000 C 
BRANCH  17  18
ATOM     18  C   UNL     1      -8.320   5.762 133.498  0.00  0.00    +0.000 C 
BRANCH  18  19
ATOM     19  O   UNL     1      -9.642   6.277 133.481  0.00  0.00    +0.000 OA
ATOM     20  H   UNL     1      -9.924   6.341 132.551  0.00  0.00    +0.000 HD
ENDBRANCH  18  19
ENDBRANCH  17  18
ENDBRANCH  16  17
ENDBRANCH  15  16
ENDBRANCH   9  15
TORSDOF 5
ENDMDL
MODEL 5
REMARK VINA RESULT:      -5.0      6.391      7.832
REMARK  Name = Acyclovir
REMARK  5 active torsions:
REMARK  status: ('A' for Active; 'I' for Inactive)
REMARK    1  A    between atoms: N_9  and  C_10
REMARK    2  A    between atoms: C_10  and  O_11
REMARK    3  A    between atoms: O_11  and  C_12
REMARK    4  A    between atoms: C_12  and  C_13
REMARK    5  A    between atoms: C_13  and  O_14
REMARK                            x       y       z     vdW  Elec       q    Type
REMARK                         _______ _______ _______ _____ _____    ______ ____
ROOT
ATOM      1  N   UNL     1      -8.200   3.716 121.687  0.00  0.00    +0.000 N 
ATOM      2  C   UNL     1      -8.727   2.805 122.533  0.00  0.00    +0.000 A 
ATOM      3  N   UNL     1      -9.605   1.943 122.105  0.00  0.00    +0.000 NA
ATOM      4  C   UNL     1     -10.157   1.000 122.985  0.00  0.00    +0.000 A 
ATOM      5  O   UNL     1     -10.986   0.172 122.624  0.00  0.00    +0.000 OA
ATOM      6  C   UNL     1      -9.677   1.072 124.370  0.00  0.00    +0.000 A 
ATOM      7  C   UNL     1      -8.753   2.022 124.706  0.00  0.00    +0.000 A 
ATOM      8  N   UNL     1      -8.261   2.896 123.818  0.00  0.00    +0.000 N 
ATOM      9  N   UNL     1      -8.487   1.873 126.027  0.00  0.00    +0.000 N 
ATOM     10  C   UNL     1      -9.263   0.822 126.457  0.00  0.00    +0.000 A 
ATOM     11  N   UNL     1      -9.997   0.317 125.481  0.00  0.00    +0.000 NA
ATOM     12  H   UNL     1      -8.505   3.688 120.721  0.00  0.00    +0.000 HD
ATOM     13  H   UNL     1      -7.509   4.401 121.946  0.00  0.00    +0.000 HD
ATOM     14  H   UNL     1      -7.571   3.591 124.081  0.00  0.00    +0.000 HD
ENDROOT
BRANCH   9  15
ATOM     15  C   UNL     1      -7.589   2.630 126.874  0.00  0.00    +0.000 C 
BRANCH  15  16
ATOM     16  O   UNL     1      -7.514   3.975 126.403  0.00  0.00    +0.000 OA
BRANCH  16  17
ATOM     17  C   UNL     1      -6.164   4.398 126.296  0.00  0.00    +0.000 C 
BRANCH  17  18
ATOM     18  C   UNL     1      -6.055   5.441 125.194  0.00  0.00    +0.000 C 
BRANCH  18  19
ATOM     19  O   UNL     1      -6.200   4.833 123.921  0.00  0.00    +0.000 OA
ATOM     20  H   UNL     1      -5.425   4.262 123.774  0.00  0.00    +0.000 HD
ENDBRANCH  18  19
ENDBRANCH  17  18
ENDBRANCH  16  17
ENDBRANCH  15  16
ENDBRANCH   9  15
TORSDOF 5
ENDMDL
MODEL 6
REMARK VINA RESULT:      -5.0      2.179      4.148
REMARK  Name = Acyclovir
REMARK  5 active torsions:
REMARK  status: ('A' for Active; 'I' for Inactive)
REMARK    1  A    between atoms: N_9  and  C_10
REMARK    2  A    between atoms: C_10  and  O_11
REMARK    3  A    between atoms: O_11  and  C_12
REMARK    4  A    between atoms: C_12  and  C_13
REMARK    5  A    between atoms: C_13  and  O_14
REMARK                            x       y       z     vdW  Elec       q    Type
REMARK                         _______ _______ _______ _____ _____    ______ ____
ROOT
ATOM      1  N   UNL     1      -7.809   4.368 128.657  0.00  0.00    +0.000 N 
ATOM      2  C   UNL     1      -8.465   4.926 129.698  0.00  0.00    +0.000 A 
ATOM      3  N   UNL     1      -7.876   5.051 130.853  0.00  0.00    +0.000 NA
ATOM      4  C   UNL     1      -8.559   5.625 131.936  0.00  0.00    +0.000 A 
ATOM      5  O   UNL     1      -8.043   5.761 133.040  0.00  0.00    +0.000 OA
ATOM      6  C   UNL     1      -9.935   6.053 131.659  0.00  0.00    +0.000 A 
ATOM      7  C   UNL     1     -10.450   5.870 130.407  0.00  0.00    +0.000 A 
ATOM      8  N   UNL     1      -9.747   5.315 129.410  0.00  0.00    +0.000 N 
ATOM      9  N   UNL     1     -11.721   6.342 130.423  0.00  0.00    +0.000 N 
ATOM     10  C   UNL     1     -11.940   6.807 131.698  0.00  0.00    +0.000 A 
ATOM     11  N   UNL     1     -10.882   6.644 132.472  0.00  0.00    +0.000 NA
ATOM     12  H   UNL     1      -6.853   4.070 128.813  0.00  0.00    +0.000 HD
ATOM     13  H   UNL     1      -8.197   4.253 127.736  0.00  0.00    +0.000 HD
ATOM     14  H   UNL     1     -10.140   5.192 128.484  0.00  0.00    +0.000 HD
ENDROOT
BRANCH   9  15
ATOM     15  C   UNL     1     -12.701   6.377 129.358  0.00  0.00    +0.000 C 
BRANCH  15  16
ATOM     16  O   UNL     1     -12.041   6.231 128.100  0.00  0.00    +0.000 OA
BRANCH  16  17
ATOM     17  C   UNL     1     -12.049   7.454 127.381  0.00  0.00    +0.000 C 
BRANCH  17  18
ATOM     18  C   UNL     1     -10.780   7.548 126.547  0.00  0.00    +0.000 C 
BRANCH  18  19
ATOM     19  O   UNL     1     -10.231   6.258 126.334  0.00  0.00    +0.000 OA
ATOM     20  H   UNL     1     -10.963   5.617 126.351  0.00  0.00    +0.000 HD
ENDBRANCH  18  19
ENDBRANCH  17  18
ENDBRANCH  16  17
ENDBRANCH  15  16
ENDBRANCH   9  15
TORSDOF 5
ENDMDL
MODEL 7
REMARK VINA RESULT:      -5.0      2.095      3.411
REMARK  Name = Acyclovir
REMARK  5 active torsions:
REMARK  status: ('A' for Active; 'I' for Inactive)
REMARK    1  A    between atoms: N_9  and  C_10
REMARK    2  A    between atoms: C_10  and  O_11
REMARK    3  A    between atoms: O_11  and  C_12
REMARK    4  A    between atoms: C_12  and  C_13
REMARK    5  A    between atoms: C_13  and  O_14
REMARK                            x       y       z     vdW  Elec       q    Type
REMARK                         _______ _______ _______ _____ _____    ______ ____
ROOT
ATOM      1  N   UNL     1     -13.118   9.657 129.308  0.00  0.00    +0.000 N 
ATOM      2  C   UNL     1     -12.217   8.716 128.953  0.00  0.00    +0.000 A 
ATOM      3  N   UNL     1     -11.874   8.574 127.705  0.00  0.00    +0.000 NA
ATOM      4  C   UNL     1     -10.943   7.593 127.335  0.00  0.00    +0.000 A 
ATOM      5  O   UNL     1     -10.591   7.426 126.171  0.00  0.00    +0.000 OA
ATOM      6  C   UNL     1     -10.415   6.776 128.434  0.00  0.00    +0.000 A 
ATOM      7  C   UNL     1     -10.851   7.013 129.708  0.00  0.00    +0.000 A 
ATOM      8  N   UNL     1     -11.744   7.969 130.000  0.00  0.00    +0.000 N 
ATOM      9  N   UNL     1     -10.218   6.130 130.519  0.00  0.00    +0.000 N 
ATOM     10  C   UNL     1      -9.405   5.377 129.704  0.00  0.00    +0.000 A 
ATOM     11  N   UNL     1      -9.502   5.740 128.438  0.00  0.00    +0.000 NA
ATOM     12  H   UNL     1     -13.495  10.244 128.573  0.00  0.00    +0.000 HD
ATOM     13  H   UNL     1     -13.419   9.830 130.253  0.00  0.00    +0.000 HD
ATOM     14  H   UNL     1     -12.052   8.137 130.950  0.00  0.00    +0.000 HD
ENDROOT
BRANCH   9  15
ATOM     15  C   UNL     1     -10.331   5.955 131.952  0.00  0.00    +0.000 C 
BRANCH  15  16
ATOM     16  O   UNL     1      -9.221   6.582 132.595  0.00  0.00    +0.000 OA
BRANCH  16  17
ATOM     17  C   UNL     1      -8.457   5.632 133.321  0.00  0.00    +0.000 C 
BRANCH  17  18
ATOM     18  C   UNL     1      -7.053   5.573 132.738  0.00  0.00    +0.000 C 
BRANCH  18  19
ATOM     19  O   UNL     1      -6.860   6.625 131.807  0.00  0.00    +0.000 OA
ATOM     20  H   UNL     1      -7.698   7.115 131.733  0.00  0.00    +0.000 HD
ENDBRANCH  18  19
ENDBRANCH  17  18
ENDBRANCH  16  17
ENDBRANCH  15  16
ENDBRANCH   9  15
TORSDOF 5
ENDMDL
MODEL 8
REMARK VINA RESULT:      -4.9      9.076     10.572
REMARK  Name = Acyclovir
REMARK  5 active torsions:
REMARK  status: ('A' for Active; 'I' for Inactive)
REMARK    1  A    between atoms: N_9  and  C_10
REMARK    2  A    between atoms: C_10  and  O_11
REMARK    3  A    between atoms: O_11  and  C_12
REMARK    4  A    between atoms: C_12  and  C_13
REMARK    5  A    between atoms: C_13  and  O_14
REMARK                            x       y       z     vdW  Elec       q    Type
REMARK                         _______ _______ _______ _____ _____    ______ ____
ROOT
ATOM      1  N   UNL     1      -5.454  -1.942 124.289  0.00  0.00    +0.000 N 
ATOM      2  C   UNL     1      -6.706  -1.579 123.935  0.00  0.00    +0.000 A 
ATOM      3  N   UNL     1      -7.635  -2.480 123.792  0.00  0.00    +0.000 NA
ATOM      4  C   UNL     1      -8.934  -2.103 123.419  0.00  0.00    +0.000 A 
ATOM      5  O   UNL     1      -9.838  -2.919 123.273  0.00  0.00    +0.000 OA
ATOM      6  C   UNL     1      -9.140  -0.664 123.215  0.00  0.00    +0.000 A 
ATOM      7  C   UNL     1      -8.089   0.190 123.392  0.00  0.00    +0.000 A 
ATOM      8  N   UNL     1      -6.868  -0.230 123.751  0.00  0.00    +0.000 N 
ATOM      9  N   UNL     1      -8.543   1.443 123.141  0.00  0.00    +0.000 N 
ATOM     10  C   UNL     1      -9.873   1.309 122.818  0.00  0.00    +0.000 A 
ATOM     11  N   UNL     1     -10.266   0.048 122.851  0.00  0.00    +0.000 NA
ATOM     12  H   UNL     1      -5.281  -2.928 124.446  0.00  0.00    +0.000 HD
ATOM     13  H   UNL     1      -4.693  -1.299 124.430  0.00  0.00    +0.000 HD
ATOM     14  H   UNL     1      -6.099   0.417 123.885  0.00  0.00    +0.000 HD
ENDROOT
BRANCH   9  15
ATOM     15  C   UNL     1      -7.831   2.703 123.179  0.00  0.00    +0.000 C 
BRANCH  15  16
ATOM     16  O   UNL     1      -6.645   2.602 122.392  0.00  0.00    +0.000 OA
BRANCH  16  17
ATOM     17  C   UNL     1      -6.676   3.524 121.313  0.00  0.00    +0.000 C 
BRANCH  17  18
ATOM     18  C   UNL     1      -5.288   4.118 121.128  0.00  0.00    +0.000 C 
BRANCH  18  19
ATOM     19  O   UNL     1      -4.946   4.934 122.237  0.00  0.00    +0.000 OA
ATOM     20  H   UNL     1      -5.691   5.539 122.401  0.00  0.00    +0.000 HD
ENDBRANCH  18  19
ENDBRANCH  17  18
ENDBRANCH  16  17
ENDBRANCH  15  16
ENDBRANCH   9  15
TORSDOF 5
ENDMDL
MODEL 9
REMARK VINA RESULT:      -4.9      2.477      3.053
REMARK  Name = Acyclovir
REMARK  5 active torsions:
REMARK  status: ('A' for Active; 'I' for Inactive)
REMARK    1  A    between atoms: N_9  and  C_10
REMARK    2  A    between atoms: C_10  and  O_11
REMARK    3  A    between atoms: O_11  and  C_12
REMARK    4  A    between atoms: C_12  and  C_13
REMARK    5  A    between atoms: C_13  and  O_14
REMARK                            x       y       z     vdW  Elec       q    Type
REMARK                         _______ _______ _______ _____ _____    ______ ____
ROOT
ATOM      1  N   UNL     1     -10.899   7.775 126.334  0.00  0.00    +0.000 N 
ATOM      2  C   UNL     1     -11.319   7.790 127.617  0.00  0.00    +0.000 A 
ATOM      3  N   UNL     1     -11.998   8.803 128.073  0.00  0.00    +0.000 NA
ATOM      4  C   UNL     1     -12.429   8.822 129.408  0.00  0.00    +0.000 A 
ATOM      5  O   UNL     1     -13.071   9.756 129.877  0.00  0.00    +0.000 OA
ATOM      6  C   UNL     1     -12.061   7.648 130.207  0.00  0.00    +0.000 A 
ATOM      7  C   UNL     1     -11.343   6.643 129.622  0.00  0.00    +0.000 A 
ATOM      8  N   UNL     1     -10.960   6.682 128.339  0.00  0.00    +0.000 N 
ATOM      9  N   UNL     1     -11.136   5.694 130.569  0.00  0.00    +0.000 N 
ATOM     10  C   UNL     1     -11.746   6.156 131.711  0.00  0.00    +0.000 A 
ATOM     11  N   UNL     1     -12.312   7.335 131.529  0.00  0.00    +0.000 NA
ATOM     12  H   UNL     1     -11.145   8.567 125.752  0.00  0.00    +0.000 HD
ATOM     13  H   UNL     1     -10.383   7.020 125.913  0.00  0.00    +0.000 HD
ATOM     14  H   UNL     1     -10.433   5.926 127.917  0.00  0.00    +0.000 HD
ENDROOT
BRANCH   9  15
ATOM     15  C   UNL     1     -10.427   4.437 130.468  0.00  0.00    +0.000 C 
BRANCH  15  16
ATOM     16  O   UNL     1      -9.360   4.417 131.417  0.00  0.00    +0.000 OA
BRANCH  16  17
ATOM     17  C   UNL     1      -9.182   3.113 131.948  0.00  0.00    +0.000 C 
BRANCH  17  18
ATOM     18  C   UNL     1      -8.954   3.215 133.449  0.00  0.00    +0.000 C 
BRANCH  18  19
ATOM     19  O   UNL     1      -9.964   4.009 134.050  0.00  0.00    +0.000 OA
ATOM     20  H   UNL     1     -10.489   4.413 133.336  0.00  0.00    +0.000 HD
ENDBRANCH  18  19
ENDBRANCH  17  18
ENDBRANCH  16  17
ENDBRANCH  15  16
ENDBRANCH   9  15
TORSDOF 5
ENDMDL
