MODEL 1
REMARK VINA RESULT:     -10.0      0.000      0.000
REMARK  Name = Adagrasib
REMARK  8 active torsions:
REMARK  status: ('A' for Active; 'I' for Inactive)
REMARK    1  A    between atoms: C_2  and  C_3
REMARK    2  A    between atoms: C_3  and  O_4
REMARK    3  A    between atoms: O_4  and  C_5
REMARK    4  A    between atoms: N_11  and  C_13
REMARK    5  A    between atoms: C_30  and  C_32
REMARK    6  A    between atoms: C_35  and  C_37
REMARK    7  A    between atoms: C_37  and  C_38
REMARK    8  A    between atoms: N_44  and  C_45
REMARK                            x       y       z     vdW  Elec       q    Type
REMARK                         _______ _______ _______ _____ _____    ______ ____
ROOT
ATOM      1  C   UNL     1      -9.130   4.042 130.233  0.00  0.00    +0.000 A 
ATOM      2  N   UNL     1      -9.369   3.047 129.353  0.00  0.00    +0.000 NA
ATOM      3  C   UNL     1      -8.283   2.374 128.841  0.00  0.00    +0.000 A 
ATOM      4  C   UNL     1      -6.974   2.696 129.217  0.00  0.00    +0.000 A 
ATOM      5  C   UNL     1      -5.804   1.933 128.666  0.00  0.00    +0.000 C 
ATOM      6  C   UNL     1      -6.169   0.568 128.045  0.00  0.00    +0.000 C 
ATOM      7  N   UNL     1      -7.244   0.624 127.056  0.00  0.00    +0.000 N 
ATOM      8  C   UNL     1      -8.542   1.189 127.815  0.00  0.00    +0.000 C 
ATOM      9  C   UNL     1      -6.768   3.760 130.111  0.00  0.00    +0.000 A 
ATOM     10  N   UNL     1      -7.866   4.431 130.616  0.00  0.00    +0.000 NA
ATOM     11  N   UNL     1      -5.440   4.094 130.478  0.00  0.00    +0.000 N 
ATOM     12  C   UNL     1      -4.369   4.515 129.549  0.00  0.00    +0.000 C 
ATOM     13  C   UNL     1      -3.780   5.890 129.934  0.00  0.00    +0.000 C 
ATOM     14  N   UNL     1      -3.271   5.883 131.324  0.00  0.00    +0.000 N 
ATOM     15  C   UNL     1      -1.953   6.237 131.676  0.00  0.00    +0.000 C 
ATOM     16  O   UNL     1      -1.118   6.585 130.831  0.00  0.00    +0.000 OA
ATOM     17  C   UNL     1      -4.354   5.468 132.227  0.00  0.00    +0.000 C 
ATOM     18  C   UNL     1      -4.921   4.079 131.853  0.00  0.00    +0.000 C 
ENDROOT
BRANCH   7  19
ATOM     19  C   UNL     1      -7.049  -0.000 125.463  0.00  0.00    +0.000 A 
ATOM     20  C   UNL     1      -7.930   1.370 124.877  0.00  0.00    +0.000 A 
ATOM     21  C   UNL     1      -8.081   1.451 123.548  0.00  0.00    +0.000 A 
ATOM     22  C   UNL     1      -7.465   0.382 122.956  0.00  0.00    +0.000 A 
ATOM     23  C   UNL     1      -6.664  -0.827 123.632  0.00  0.00    +0.000 A 
ATOM     24  C   UNL     1      -6.176  -1.495 124.688  0.00  0.00    +0.000 A 
ATOM     25  C   UNL     1      -5.115  -3.258 124.134  0.00  0.00    +0.000 A 
ATOM     26 CL   UNL     1      -4.026  -5.104 123.513  0.00  0.00    +0.000 Cl
ATOM     27  C   UNL     1      -4.975  -3.649 122.931  0.00  0.00    +0.000 A 
ATOM     28  C   UNL     1      -5.470  -2.763 123.615  0.00  0.00    +0.000 A 
ATOM     29  C   UNL     1      -6.179  -1.708 122.876  0.00  0.00    +0.000 A 
ENDBRANCH   7  19
BRANCH  15  30
ATOM     30  C   UNL     1      -1.509   6.191 133.136  0.00  0.00    +0.000 C 
ATOM     31  F   UNL     1      -1.565   5.036 133.824  0.00  0.00    +0.000 F 
ATOM     32  C   UNL     1      -1.054   7.272 133.778  0.00  0.00    +0.000 C 
ENDBRANCH  15  30
BRANCH   1  33
ATOM     33  O   UNL     1     -10.234   4.707 130.795  0.00  0.00    +0.000 OA
BRANCH  33  34
ATOM     34  C   UNL     1     -10.202   6.154 130.770  0.00  0.00    +0.000 C 
BRANCH  34  35
ATOM     35  C   UNL     1     -11.160   6.703 129.693  0.00  0.00    +0.000 C 
ATOM     36  C   UNL     1     -10.441   7.207 128.435  0.00  0.00    +0.000 C 
ATOM     37  C   UNL     1     -11.260   8.397 127.941  0.00  0.00    +0.000 C 
ATOM     38  C   UNL     1     -12.443   8.456 128.887  0.00  0.00    +0.000 C 
ATOM     39  N   UNL     1     -11.912   7.892 130.123  0.00  0.00    +0.000 NA
ATOM     40  C   UNL     1     -12.966   7.584 131.074  0.00  0.00    +0.000 C 
ENDBRANCH  34  35
ENDBRANCH  33  34
ENDBRANCH   1  33
BRANCH  17  41
ATOM     41  C   UNL     1      -5.500   6.454 132.118  0.00  0.00    +0.000 C 
BRANCH  41  42
ATOM     42  C   UNL     1      -6.574   6.044 133.113  0.00  0.00    +0.000 C 
ATOM     43  N   UNL     1      -7.465   5.706 133.938  0.00  0.00    +0.000 NA
ENDBRANCH  41  42
ENDBRANCH  17  41
TORSDOF 7
ENDMDL
MODEL 2
REMARK VINA RESULT:     -10.0      3.617      4.748
REMARK  Name = Adagrasib
REMARK  8 active torsions:
REMARK  status: ('A' for Active; 'I' for Inactive)
REMARK    1  A    between atoms: C_2  and  C_3
REMARK    2  A    between atoms: C_3  and  O_4
REMARK    3  A    between atoms: O_4  and  C_5
REMARK    4  A    between atoms: N_11  and  C_13
REMARK    5  A    between atoms: C_30  and  C_32
REMARK    6  A    between atoms: C_35  and  C_37
REMARK    7  A    between atoms: C_37  and  C_38
REMARK    8  A    between atoms: N_44  and  C_45
REMARK                            x       y       z     vdW  Elec       q    Type
REMARK                         _______ _______ _______ _____ _____    ______ ____
ROOT
ATOM      1  C   UNL     1      -8.692   4.574 129.498  0.00  0.00    +0.000 A 
ATOM      2  N   UNL     1      -9.042   3.282 129.663  0.00  0.00    +0.000 NA
ATOM      3  C   UNL     1      -8.182   2.473 130.372  0.00  0.00    +0.000 A 
ATOM      4  C   UNL     1      -6.989   2.965 130.914  0.00  0.00    +0.000 A 
ATOM      5  C   UNL     1      -6.077   2.074 131.706  0.00  0.00    +0.000 C 
ATOM      6  C   UNL     1      -6.741   0.779 132.220  0.00  0.00    +0.000 C 
ATOM      7  N   UNL     1      -7.431   0.004 131.189  0.00  0.00    +0.000 N 
ATOM      8  C   UNL     1      -8.583   0.952 130.592  0.00  0.00    +0.000 C 
ATOM      9  C   UNL     1      -6.647   4.310 130.690  0.00  0.00    +0.000 A 
ATOM     10  N   UNL     1      -7.516   5.110 129.973  0.00  0.00    +0.000 NA
ATOM     11  N   UNL     1      -5.430   4.800 131.226  0.00  0.00    +0.000 N 
ATOM     12  C   UNL     1      -4.079   4.284 130.914  0.00  0.00    +0.000 C 
ATOM     13  C   UNL     1      -3.151   5.393 130.370  0.00  0.00    +0.000 C 
ATOM     14  N   UNL     1      -3.054   6.523 131.321  0.00  0.00    +0.000 N 
ATOM     15  C   UNL     1      -1.834   7.013 131.830  0.00  0.00    +0.000 C 
ATOM     16  O   UNL     1      -0.744   6.524 131.509  0.00  0.00    +0.000 OA
ATOM     17  C   UNL     1      -4.406   7.021 131.610  0.00  0.00    +0.000 C 
ATOM     18  C   UNL     1      -5.322   5.914 132.180  0.00  0.00    +0.000 C 
ENDROOT
BRANCH   7  19
ATOM     19  C   UNL     1      -7.075  -1.657 130.907  0.00  0.00    +0.000 A 
ATOM     20  C   UNL     1      -7.849  -1.504 129.366  0.00  0.00    +0.000 A 
ATOM     21  C   UNL     1      -7.847  -2.600 128.594  0.00  0.00    +0.000 A 
ATOM     22  C   UNL     1      -7.197  -3.612 129.245  0.00  0.00    +0.000 A 
ATOM     23  C   UNL     1      -6.509  -3.611 130.690  0.00  0.00    +0.000 A 
ATOM     24  C   UNL     1      -6.160  -3.027 131.846  0.00  0.00    +0.000 A 
ATOM     25  C   UNL     1      -5.091  -4.337 133.143  0.00  0.00    +0.000 A 
ATOM     26 CL   UNL     1      -3.987  -5.744 134.478  0.00  0.00    +0.000 Cl
ATOM     27  C   UNL     1      -4.826  -5.549 132.862  0.00  0.00    +0.000 A 
ATOM     28  C   UNL     1      -5.372  -4.545 132.423  0.00  0.00    +0.000 A 
ATOM     29  C   UNL     1      -5.965  -4.673 131.085  0.00  0.00    +0.000 A 
ENDBRANCH   7  19
BRANCH  15  30
ATOM     30  C   UNL     1      -1.828   8.178 132.817  0.00  0.00    +0.000 C 
ATOM     31  F   UNL     1      -2.245   9.396 132.428  0.00  0.00    +0.000 F 
ATOM     32  C   UNL     1      -1.419   8.038 134.082  0.00  0.00    +0.000 C 
ENDBRANCH  15  30
BRANCH   1  33
ATOM     33  O   UNL     1      -9.583   5.418 128.811  0.00  0.00    +0.000 OA
BRANCH  33  34
ATOM     34  C   UNL     1      -9.835   6.715 129.402  0.00  0.00    +0.000 C 
BRANCH  34  35
ATOM     35  C   UNL     1     -11.169   7.297 128.892  0.00  0.00    +0.000 C 
ATOM     36  C   UNL     1     -12.390   6.806 129.678  0.00  0.00    +0.000 C 
ATOM     37  C   UNL     1     -13.523   6.701 128.659  0.00  0.00    +0.000 C 
ATOM     38  C   UNL     1     -12.915   7.217 127.370  0.00  0.00    +0.000 C 
ATOM     39  N   UNL     1     -11.500   6.897 127.515  0.00  0.00    +0.000 NA
ATOM     40  C   UNL     1     -10.687   7.569 126.518  0.00  0.00    +0.000 C 
ENDBRANCH  34  35
ENDBRANCH  33  34
ENDBRANCH   1  33
BRANCH  17  41
ATOM     41  C   UNL     1      -5.046   7.502 130.323  0.00  0.00    +0.000 C 
BRANCH  41  42
ATOM     42  C   UNL     1      -4.304   8.746 129.861  0.00  0.00    +0.000 C 
ATOM     43  N   UNL     1      -3.690   9.778 129.478  0.00  0.00    +0.000 NA
ENDBRANCH  41  42
ENDBRANCH  17  41
TORSDOF 7
ENDMDL
MODEL 3
REMARK VINA RESULT:      -9.5      4.924      9.620
REMARK  Name = Adagrasib
REMARK  8 active torsions:
REMARK  status: ('A' for Active; 'I' for Inactive)
REMARK    1  A    between atoms: C_2  and  C_3
REMARK    2  A    between atoms: C_3  and  O_4
REMARK    3  A    between atoms: O_4  and  C_5
REMARK    4  A    between atoms: N_11  and  C_13
REMARK    5  A    between atoms: C_30  and  C_32
REMARK    6  A    between atoms: C_35  and  C_37
REMARK    7  A    between atoms: C_37  and  C_38
REMARK    8  A    between atoms: N_44  and  C_45
REMARK                            x       y       z     vdW  Elec       q    Type
REMARK                         _______ _______ _______ _____ _____    ______ ____
ROOT
ATOM      1  C   UNL     1      -7.806   4.496 129.677  0.00  0.00    +0.000 A 
ATOM      2  N   UNL     1      -7.226   5.650 130.069  0.00  0.00    +0.000 NA
ATOM      3  C   UNL     1      -5.918   5.594 130.494  0.00  0.00    +0.000 A 
ATOM      4  C   UNL     1      -5.203   4.392 130.516  0.00  0.00    +0.000 A 
ATOM      5  C   UNL     1      -3.769   4.356 130.960  0.00  0.00    +0.000 C 
ATOM      6  C   UNL     1      -3.067   5.731 130.956  0.00  0.00    +0.000 C 
ATOM      7  N   UNL     1      -3.790   6.779 131.675  0.00  0.00    +0.000 N 
ATOM      8  C   UNL     1      -5.211   6.944 130.945  0.00  0.00    +0.000 C 
ATOM      9  C   UNL     1      -5.855   3.208 130.131  0.00  0.00    +0.000 A 
ATOM     10  N   UNL     1      -7.170   3.276 129.709  0.00  0.00    +0.000 NA
ATOM     11  N   UNL     1      -5.132   1.989 130.170  0.00  0.00    +0.000 N 
ATOM     12  C   UNL     1      -4.512   1.393 131.373  0.00  0.00    +0.000 C 
ATOM     13  C   UNL     1      -5.028  -0.039 131.638  0.00  0.00    +0.000 C 
ATOM     14  N   UNL     1      -4.803  -0.913 130.465  0.00  0.00    +0.000 N 
ATOM     15  C   UNL     1      -4.099  -2.134 130.523  0.00  0.00    +0.000 C 
ATOM     16  O   UNL     1      -3.615  -2.564 131.578  0.00  0.00    +0.000 OA
ATOM     17  C   UNL     1      -5.433  -0.303 129.285  0.00  0.00    +0.000 C 
ATOM     18  C   UNL     1      -4.893   1.119 129.010  0.00  0.00    +0.000 C 
ENDROOT
BRANCH   7  19
ATOM     19  C   UNL     1      -3.053   7.694 132.934  0.00  0.00    +0.000 A 
ATOM     20  C   UNL     1      -3.742   6.583 134.069  0.00  0.00    +0.000 A 
ATOM     21  C   UNL     1      -3.445   6.796 135.359  0.00  0.00    +0.000 A 
ATOM     22  C   UNL     1      -2.627   7.888 135.461  0.00  0.00    +0.000 A 
ATOM     23  C   UNL     1      -2.051   8.834 134.305  0.00  0.00    +0.000 A 
ATOM     24  C   UNL     1      -1.916   9.209 133.024  0.00  0.00    +0.000 A 
ATOM     25  C   UNL     1      -0.665  10.918 132.790  0.00  0.00    +0.000 A 
ATOM     26 CL   UNL     1       0.639  12.718 132.590  0.00  0.00    +0.000 Cl
ATOM     27  C   UNL     1      -0.118  11.531 133.762  0.00  0.00    +0.000 A 
ATOM     28  C   UNL     1      -0.846  10.584 133.495  0.00  0.00    +0.000 A 
ATOM     29  C   UNL     1      -1.309   9.791 134.643  0.00  0.00    +0.000 A 
ENDBRANCH   7  19
BRANCH  15  30
ATOM     30  C   UNL     1      -3.904  -2.968 129.259  0.00  0.00    +0.000 C 
ATOM     31  F   UNL     1      -4.835  -2.954 128.289  0.00  0.00    +0.000 F 
ATOM     32  C   UNL     1      -2.821  -3.729 129.068  0.00  0.00    +0.000 C 
ENDBRANCH  15  30
BRANCH   1  33
ATOM     33  O   UNL     1      -9.129   4.549 129.201  0.00  0.00    +0.000 OA
BRANCH  33  34
ATOM     34  C   UNL     1      -9.740   5.859 129.124  0.00  0.00    +0.000 C 
BRANCH  34  35
ATOM     35  C   UNL     1     -11.046   5.900 129.945  0.00  0.00    +0.000 C 
ATOM     36  C   UNL     1     -12.202   6.597 129.218  0.00  0.00    +0.000 C 
ATOM     37  C   UNL     1     -13.005   7.307 130.307  0.00  0.00    +0.000 C 
ATOM     38  C   UNL     1     -12.317   6.909 131.598  0.00  0.00    +0.000 C 
ATOM     39  N   UNL     1     -10.937   6.681 131.186  0.00  0.00    +0.000 NA
ATOM     40  C   UNL     1     -10.169   6.006 132.217  0.00  0.00    +0.000 C 
ENDBRANCH  34  35
ENDBRANCH  33  34
ENDBRANCH   1  33
BRANCH  17  41
ATOM     41  C   UNL     1      -6.922  -0.166 129.530  0.00  0.00    +0.000 C 
BRANCH  41  42
ATOM     42  C   UNL     1      -7.553  -1.543 129.394  0.00  0.00    +0.000 C 
ATOM     43  N   UNL     1      -8.077  -2.685 129.281  0.00  0.00    +0.000 NA
ENDBRANCH  41  42
ENDBRANCH  17  41
TORSDOF 7
ENDMDL
MODEL 4
REMARK VINA RESULT:      -9.5      5.157      8.363
REMARK  Name = Adagrasib
REMARK  8 active torsions:
REMARK  status: ('A' for Active; 'I' for Inactive)
REMARK    1  A    between atoms: C_2  and  C_3
REMARK    2  A    between atoms: C_3  and  O_4
REMARK    3  A    between atoms: O_4  and  C_5
REMARK    4  A    between atoms: N_11  and  C_13
REMARK    5  A    between atoms: C_30  and  C_32
REMARK    6  A    between atoms: C_35  and  C_37
REMARK    7  A    between atoms: C_37  and  C_38
REMARK    8  A    between atoms: N_44  and  C_45
REMARK                            x       y       z     vdW  Elec       q    Type
REMARK                         _______ _______ _______ _____ _____    ______ ____
ROOT
ATOM      1  C   UNL     1      -7.435   0.330 126.588  0.00  0.00    +0.000 A 
ATOM      2  N   UNL     1      -7.840  -0.693 127.368  0.00  0.00    +0.000 NA
ATOM      3  C   UNL     1      -7.548  -0.626 128.711  0.00  0.00    +0.000 A 
ATOM      4  C   UNL     1      -6.864   0.464 129.261  0.00  0.00    +0.000 A 
ATOM      5  C   UNL     1      -6.578   0.531 130.734  0.00  0.00    +0.000 C 
ATOM      6  C   UNL     1      -7.439  -0.419 131.593  0.00  0.00    +0.000 C 
ATOM      7  N   UNL     1      -7.436  -1.810 131.143  0.00  0.00    +0.000 N 
ATOM      8  C   UNL     1      -8.030  -1.814 129.650  0.00  0.00    +0.000 C 
ATOM      9  C   UNL     1      -6.432   1.494 128.408  0.00  0.00    +0.000 A 
ATOM     10  N   UNL     1      -6.727   1.413 127.060  0.00  0.00    +0.000 NA
ATOM     11  N   UNL     1      -5.725   2.588 128.966  0.00  0.00    +0.000 N 
ATOM     12  C   UNL     1      -4.445   2.503 129.702  0.00  0.00    +0.000 C 
ATOM     13  C   UNL     1      -3.352   3.387 129.060  0.00  0.00    +0.000 C 
ATOM     14  N   UNL     1      -3.792   4.798 128.969  0.00  0.00    +0.000 N 
ATOM     15  C   UNL     1      -3.067   5.879 129.512  0.00  0.00    +0.000 C 
ATOM     16  O   UNL     1      -1.996   5.718 130.110  0.00  0.00    +0.000 OA
ATOM     17  C   UNL     1      -5.061   4.856 128.230  0.00  0.00    +0.000 C 
ATOM     18  C   UNL     1      -6.158   3.991 128.892  0.00  0.00    +0.000 C 
ENDROOT
BRANCH   7  19
ATOM     19  C   UNL     1      -7.012  -3.106 132.194  0.00  0.00    +0.000 A 
ATOM     20  C   UNL     1      -5.796  -3.564 131.049  0.00  0.00    +0.000 A 
ATOM     21  C   UNL     1      -5.033  -4.613 131.386  0.00  0.00    +0.000 A 
ATOM     22  C   UNL     1      -5.420  -5.079 132.613  0.00  0.00    +0.000 A 
ATOM     23  C   UNL     1      -6.575  -4.544 133.582  0.00  0.00    +0.000 A 
ATOM     24  C   UNL     1      -7.578  -3.711 133.900  0.00  0.00    +0.000 A 
ATOM     25  C   UNL     1      -8.438  -4.140 135.801  0.00  0.00    +0.000 A 
ATOM     26 CL   UNL     1      -9.320  -4.632 137.792  0.00  0.00    +0.000 Cl
ATOM     27  C   UNL     1      -8.056  -5.095 136.551  0.00  0.00    +0.000 A 
ATOM     28  C   UNL     1      -7.838  -4.556 135.474  0.00  0.00    +0.000 A 
ATOM     29  C   UNL     1      -6.751  -5.140 134.676  0.00  0.00    +0.000 A 
ENDBRANCH   7  19
BRANCH  15  30
ATOM     30  C   UNL     1      -3.601   7.303 129.381  0.00  0.00    +0.000 C 
ATOM     31  F   UNL     1      -3.349   8.020 128.271  0.00  0.00    +0.000 F 
ATOM     32  C   UNL     1      -4.329   7.883 130.341  0.00  0.00    +0.000 C 
ENDBRANCH  15  30
BRANCH   1  33
ATOM     33  O   UNL     1      -7.765   0.291 125.221  0.00  0.00    +0.000 OA
BRANCH  33  34
ATOM     34  C   UNL     1      -6.771  -0.264 124.328  0.00  0.00    +0.000 C 
BRANCH  34  35
ATOM     35  C   UNL     1      -7.208  -1.653 123.821  0.00  0.00    +0.000 C 
ATOM     36  C   UNL     1      -8.725  -1.789 123.640  0.00  0.00    +0.000 C 
ATOM     37  C   UNL     1      -9.056  -3.235 124.003  0.00  0.00    +0.000 C 
ATOM     38  C   UNL     1      -7.708  -3.868 124.287  0.00  0.00    +0.000 C 
ATOM     39  N   UNL     1      -6.904  -2.746 124.757  0.00  0.00    +0.000 NA
ATOM     40  C   UNL     1      -5.490  -3.076 124.805  0.00  0.00    +0.000 C 
ENDBRANCH  34  35
ENDBRANCH  33  34
ENDBRANCH   1  33
BRANCH  17  41
ATOM     41  C   UNL     1      -4.850   4.305 126.834  0.00  0.00    +0.000 C 
BRANCH  41  42
ATOM     42  C   UNL     1      -5.737   5.087 125.877  0.00  0.00    +0.000 C 
ATOM     43  N   UNL     1      -6.473   5.735 125.084  0.00  0.00    +0.000 NA
ENDBRANCH  41  42
ENDBRANCH  17  41
TORSDOF 7
ENDMDL
MODEL 5
REMARK VINA RESULT:      -9.4      5.410     10.723
REMARK  Name = Adagrasib
REMARK  8 active torsions:
REMARK  status: ('A' for Active; 'I' for Inactive)
REMARK    1  A    between atoms: C_2  and  C_3
REMARK    2  A    between atoms: C_3  and  O_4
REMARK    3  A    between atoms: O_4  and  C_5
REMARK    4  A    between atoms: N_11  and  C_13
REMARK    5  A    between atoms: C_30  and  C_32
REMARK    6  A    between atoms: C_35  and  C_37
REMARK    7  A    between atoms: C_37  and  C_38
REMARK    8  A    between atoms: N_44  and  C_45
REMARK                            x       y       z     vdW  Elec       q    Type
REMARK                         _______ _______ _______ _____ _____    ______ ____
ROOT
ATOM      1  C   UNL     1      -8.009  -1.206 129.731  0.00  0.00    +0.000 A 
ATOM      2  N   UNL     1      -8.086  -0.710 130.983  0.00  0.00    +0.000 NA
ATOM      3  C   UNL     1      -7.943   0.650 131.141  0.00  0.00    +0.000 A 
ATOM      4  C   UNL     1      -7.734   1.499 130.049  0.00  0.00    +0.000 A 
ATOM      5  C   UNL     1      -7.607   2.983 130.239  0.00  0.00    +0.000 C 
ATOM      6  C   UNL     1      -8.141   3.500 131.591  0.00  0.00    +0.000 C 
ATOM      7  N   UNL     1      -7.611   2.796 132.758  0.00  0.00    +0.000 N 
ATOM      8  C   UNL     1      -8.046   1.257 132.606  0.00  0.00    +0.000 C 
ATOM      9  C   UNL     1      -7.628   0.938 128.765  0.00  0.00    +0.000 A 
ATOM     10  N   UNL     1      -7.769  -0.429 128.619  0.00  0.00    +0.000 NA
ATOM     11  N   UNL     1      -7.400   1.799 127.662  0.00  0.00    +0.000 N 
ATOM     12  C   UNL     1      -6.234   2.694 127.493  0.00  0.00    +0.000 C 
ATOM     13  C   UNL     1      -5.478   2.412 126.176  0.00  0.00    +0.000 C 
ATOM     14  N   UNL     1      -6.379   2.527 125.007  0.00  0.00    +0.000 N 
ATOM     15  C   UNL     1      -6.128   3.374 123.908  0.00  0.00    +0.000 C 
ATOM     16  O   UNL     1      -5.120   4.088 123.845  0.00  0.00    +0.000 OA
ATOM     17  C   UNL     1      -7.525   1.626 125.196  0.00  0.00    +0.000 C 
ATOM     18  C   UNL     1      -8.293   1.930 126.502  0.00  0.00    +0.000 C 
ENDROOT
BRANCH   7  19
ATOM     19  C   UNL     1      -6.840   3.630 134.053  0.00  0.00    +0.000 A 
ATOM     20  C   UNL     1      -5.392   2.760 133.678  0.00  0.00    +0.000 A 
ATOM     21  C   UNL     1      -4.316   3.054 134.422  0.00  0.00    +0.000 A 
ATOM     22  C   UNL     1      -4.647   4.022 135.332  0.00  0.00    +0.000 A 
ATOM     23  C   UNL     1      -6.048   4.757 135.565  0.00  0.00    +0.000 A 
ATOM     24  C   UNL     1      -7.343   4.976 135.291  0.00  0.00    +0.000 A 
ATOM     25  C   UNL     1      -8.212   6.469 136.537  0.00  0.00    +0.000 A 
ATOM     26 CL   UNL     1      -9.087   8.028 137.873  0.00  0.00    +0.000 Cl
ATOM     27  C   UNL     1      -7.578   7.078 137.457  0.00  0.00    +0.000 A 
ATOM     28  C   UNL     1      -7.452   6.225 136.589  0.00  0.00    +0.000 A 
ATOM     29  C   UNL     1      -6.115   5.624 136.473  0.00  0.00    +0.000 A 
ENDBRANCH   7  19
BRANCH  15  30
ATOM     30  C   UNL     1      -7.119   3.438 122.748  0.00  0.00    +0.000 C 
ATOM     31  F   UNL     1      -8.443   3.461 122.990  0.00  0.00    +0.000 F 
ATOM     32  C   UNL     1      -6.722   3.478 121.472  0.00  0.00    +0.000 C 
ENDBRANCH  15  30
BRANCH   1  33
ATOM     33  O   UNL     1      -8.196  -2.588 129.554  0.00  0.00    +0.000 OA
BRANCH  33  34
ATOM     34  C   UNL     1      -7.110  -3.316 128.932  0.00  0.00    +0.000 C 
BRANCH  34  35
ATOM     35  C   UNL     1      -5.765  -2.965 129.599  0.00  0.00    +0.000 C 
ATOM     36  C   UNL     1      -4.601  -2.855 128.607  0.00  0.00    +0.000 C 
ATOM     37  C   UNL     1      -3.372  -3.370 129.354  0.00  0.00    +0.000 C 
ATOM     38  C   UNL     1      -3.880  -3.665 130.752  0.00  0.00    +0.000 C 
ATOM     39  N   UNL     1      -5.284  -3.993 130.535  0.00  0.00    +0.000 NA
ATOM     40  C   UNL     1      -6.032  -4.022 131.780  0.00  0.00    +0.000 C 
ENDBRANCH  34  35
ENDBRANCH  33  34
ENDBRANCH   1  33
BRANCH  17  41
ATOM     41  C   UNL     1      -7.024   0.199 125.304  0.00  0.00    +0.000 C 
BRANCH  41  42
ATOM     42  C   UNL     1      -8.211  -0.734 125.125  0.00  0.00    +0.000 C 
ATOM     43  N   UNL     1      -9.194  -1.509 124.976  0.00  0.00    +0.000 NA
ENDBRANCH  41  42
ENDBRANCH  17  41
TORSDOF 7
ENDMDL
MODEL 6
REMARK VINA RESULT:      -9.4      2.552      3.514
REMARK  Name = Adagrasib
REMARK  8 active torsions:
REMARK  status: ('A' for Active; 'I' for Inactive)
REMARK    1  A    between atoms: C_2  and  C_3
REMARK    2  A    between atoms: C_3  and  O_4
REMARK    3  A    between atoms: O_4  and  C_5
REMARK    4  A    between atoms: N_11  and  C_13
REMARK    5  A    between atoms: C_30  and  C_32
REMARK    6  A    between atoms: C_35  and  C_37
REMARK    7  A    between atoms: C_37  and  C_38
REMARK    8  A    between atoms: N_44  and  C_45
REMARK                            x       y       z     vdW  Elec       q    Type
REMARK                         _______ _______ _______ _____ _____    ______ ____
ROOT
ATOM      1  C   UNL     1      -9.078   4.995 130.376  0.00  0.00    +0.000 A 
ATOM      2  N   UNL     1      -9.480   3.709 130.304  0.00  0.00    +0.000 NA
ATOM      3  C   UNL     1      -8.529   2.732 130.493  0.00  0.00    +0.000 A 
ATOM      4  C   UNL     1      -7.192   3.049 130.760  0.00  0.00    +0.000 A 
ATOM      5  C   UNL     1      -6.174   1.969 130.988  0.00  0.00    +0.000 C 
ATOM      6  C   UNL     1      -6.776   0.590 131.331  0.00  0.00    +0.000 C 
ATOM      7  N   UNL     1      -7.797   0.128 130.392  0.00  0.00    +0.000 N 
ATOM      8  C   UNL     1      -8.983   1.211 130.429  0.00  0.00    +0.000 C 
ATOM      9  C   UNL     1      -6.810   4.401 130.793  0.00  0.00    +0.000 A 
ATOM     10  N   UNL     1      -7.773   5.373 130.598  0.00  0.00    +0.000 NA
ATOM     11  N   UNL     1      -5.452   4.719 131.047  0.00  0.00    +0.000 N 
ATOM     12  C   UNL     1      -4.299   4.294 130.224  0.00  0.00    +0.000 C 
ATOM     13  C   UNL     1      -3.470   5.499 129.727  0.00  0.00    +0.000 C 
ATOM     14  N   UNL     1      -3.005   6.331 130.860  0.00  0.00    +0.000 N 
ATOM     15  C   UNL     1      -1.652   6.655 131.088  0.00  0.00    +0.000 C 
ATOM     16  O   UNL     1      -0.747   6.260 130.342  0.00  0.00    +0.000 OA
ATOM     17  C   UNL     1      -4.168   6.745 131.658  0.00  0.00    +0.000 C 
ATOM     18  C   UNL     1      -4.978   5.533 132.174  0.00  0.00    +0.000 C 
ENDROOT
BRANCH   7  19
ATOM     19  C   UNL     1      -7.686  -1.399 129.604  0.00  0.00    +0.000 A 
ATOM     20  C   UNL     1      -7.058  -2.053 131.078  0.00  0.00    +0.000 A 
ATOM     21  C   UNL     1      -6.788  -3.366 131.075  0.00  0.00    +0.000 A 
ATOM     22  C   UNL     1      -7.097  -3.889 129.849  0.00  0.00    +0.000 A 
ATOM     23  C   UNL     1      -7.690  -3.156 128.555  0.00  0.00    +0.000 A 
ATOM     24  C   UNL     1      -8.136  -2.079 127.891  0.00  0.00    +0.000 A 
ATOM     25  C   UNL     1      -8.734  -2.527 125.896  0.00  0.00    +0.000 A 
ATOM     26 CL   UNL     1      -9.336  -3.035 123.808  0.00  0.00    +0.000 Cl
ATOM     27  C   UNL     1      -8.660  -3.688 125.380  0.00  0.00    +0.000 A 
ATOM     28  C   UNL     1      -8.439  -3.065 126.410  0.00  0.00    +0.000 A 
ATOM     29  C   UNL     1      -7.896  -3.850 127.527  0.00  0.00    +0.000 A 
ENDBRANCH   7  19
BRANCH  15  30
ATOM     30  C   UNL     1      -1.260   7.511 132.290  0.00  0.00    +0.000 C 
ATOM     31  F   UNL     1      -1.820   8.721 132.470  0.00  0.00    +0.000 F 
ATOM     32  C   UNL     1      -0.366   7.101 133.196  0.00  0.00    +0.000 C 
ENDBRANCH  15  30
BRANCH   1  33
ATOM     33  O   UNL     1     -10.050   6.001 130.226  0.00  0.00    +0.000 OA
BRANCH  33  34
ATOM     34  C   UNL     1     -11.428   5.565 130.142  0.00  0.00    +0.000 C 
BRANCH  34  35
ATOM     35  C   UNL     1     -12.314   6.673 129.535  0.00  0.00    +0.000 C 
ATOM     36  C   UNL     1     -11.866   7.116 128.137  0.00  0.00    +0.000 C 
ATOM     37  C   UNL     1     -12.170   8.611 128.061  0.00  0.00    +0.000 C 
ATOM     38  C   UNL     1     -12.850   8.922 129.380  0.00  0.00    +0.000 C 
ATOM     39  N   UNL     1     -12.282   7.934 130.291  0.00  0.00    +0.000 NA
ATOM     40  C   UNL     1     -13.016   7.866 131.542  0.00  0.00    +0.000 C 
ENDBRANCH  34  35
ENDBRANCH  33  34
ENDBRANCH   1  33
BRANCH  17  41
ATOM     41  C   UNL     1      -5.104   7.560 130.789  0.00  0.00    +0.000 C 
BRANCH  41  42
ATOM     42  C   UNL     1      -4.307   8.699 130.173  0.00  0.00    +0.000 C 
ATOM     43  N   UNL     1      -3.647   9.645 129.663  0.00  0.00    +0.000 NA
ENDBRANCH  41  42
ENDBRANCH  17  41
TORSDOF 7
ENDMDL
MODEL 7
REMARK VINA RESULT:      -9.3      5.879      8.871
REMARK  Name = Adagrasib
REMARK  8 active torsions:
REMARK  status: ('A' for Active; 'I' for Inactive)
REMARK    1  A    between atoms: C_2  and  C_3
REMARK    2  A    between atoms: C_3  and  O_4
REMARK    3  A    between atoms: O_4  and  C_5
REMARK    4  A    between atoms: N_11  and  C_13
REMARK    5  A    between atoms: C_30  and  C_32
REMARK    6  A    between atoms: C_35  and  C_37
REMARK    7  A    between atoms: C_37  and  C_38
REMARK    8  A    between atoms: N_44  and  C_45
REMARK                            x       y       z     vdW  Elec       q    Type
REMARK                         _______ _______ _______ _____ _____    ______ ____
ROOT
ATOM      1  C   UNL     1      -6.293  -0.754 127.856  0.00  0.00    +0.000 A 
ATOM      2  N   UNL     1      -6.739  -1.815 128.559  0.00  0.00    +0.000 NA
ATOM      3  C   UNL     1      -6.952  -1.644 129.909  0.00  0.00    +0.000 A 
ATOM      4  C   UNL     1      -6.724  -0.414 130.538  0.00  0.00    +0.000 A 
ATOM      5  C   UNL     1      -6.986  -0.240 132.006  0.00  0.00    +0.000 C 
ATOM      6  C   UNL     1      -7.894  -1.325 132.624  0.00  0.00    +0.000 C 
ATOM      7  N   UNL     1      -7.468  -2.696 132.348  0.00  0.00    +0.000 N 
ATOM      8  C   UNL     1      -7.494  -2.876 130.752  0.00  0.00    +0.000 C 
ATOM      9  C   UNL     1      -6.227   0.656 129.775  0.00  0.00    +0.000 A 
ATOM     10  N   UNL     1      -6.014   0.470 128.422  0.00  0.00    +0.000 NA
ATOM     11  N   UNL     1      -5.982   1.894 130.419  0.00  0.00    +0.000 N 
ATOM     12  C   UNL     1      -5.046   2.111 131.544  0.00  0.00    +0.000 C 
ATOM     13  C   UNL     1      -3.989   3.189 131.215  0.00  0.00    +0.000 C 
ATOM     14  N   UNL     1      -4.630   4.468 130.836  0.00  0.00    +0.000 N 
ATOM     15  C   UNL     1      -4.361   5.696 131.473  0.00  0.00    +0.000 C 
ATOM     16  O   UNL     1      -3.555   5.789 132.407  0.00  0.00    +0.000 OA
ATOM     17  C   UNL     1      -5.549   4.228 129.714  0.00  0.00    +0.000 C 
ATOM     18  C   UNL     1      -6.621   3.168 130.059  0.00  0.00    +0.000 C 
ENDROOT
BRANCH   7  19
ATOM     19  C   UNL     1      -7.197  -3.837 133.610  0.00  0.00    +0.000 A 
ATOM     20  C   UNL     1      -5.505  -3.745 133.254  0.00  0.00    +0.000 A 
ATOM     21  C   UNL     1      -4.698  -4.479 134.032  0.00  0.00    +0.000 A 
ATOM     22  C   UNL     1      -5.448  -5.146 134.963  0.00  0.00    +0.000 A 
ATOM     23  C   UNL     1      -7.032  -5.130 135.186  0.00  0.00    +0.000 A 
ATOM     24  C   UNL     1      -8.278  -4.734 134.884  0.00  0.00    +0.000 A 
ATOM     25  C   UNL     1      -9.750  -5.585 136.167  0.00  0.00    +0.000 A 
ATOM     26 CL   UNL     1     -11.263  -6.510 137.523  0.00  0.00    +0.000 Cl
ATOM     27  C   UNL     1      -9.482  -6.398 137.109  0.00  0.00    +0.000 A 
ATOM     28  C   UNL     1      -8.966  -5.735 136.219  0.00  0.00    +0.000 A 
ATOM     29  C   UNL     1      -7.503  -5.833 136.117  0.00  0.00    +0.000 A 
ENDBRANCH   7  19
BRANCH  15  30
ATOM     30  C   UNL     1      -5.078   6.967 131.023  0.00  0.00    +0.000 C 
ATOM     31  F   UNL     1      -6.339   7.210 131.424  0.00  0.00    +0.000 F 
ATOM     32  C   UNL     1      -4.493   7.873 130.232  0.00  0.00    +0.000 C 
ENDBRANCH  15  30
BRANCH   1  33
ATOM     33  O   UNL     1      -6.112  -0.907 126.470  0.00  0.00    +0.000 OA
BRANCH  33  34
ATOM     34  C   UNL     1      -6.496  -2.182 125.902  0.00  0.00    +0.000 C 
BRANCH  34  35
ATOM     35  C   UNL     1      -7.738  -2.025 124.999  0.00  0.00    +0.000 C 
ATOM     36  C   UNL     1      -8.784  -3.127 125.202  0.00  0.00    +0.000 C 
ATOM     37  C   UNL     1      -9.402  -3.369 123.826  0.00  0.00    +0.000 C 
ATOM     38  C   UNL     1      -8.740  -2.337 122.933  0.00  0.00    +0.000 C 
ATOM     39  N   UNL     1      -7.440  -2.134 123.563  0.00  0.00    +0.000 NA
ATOM     40  C   UNL     1      -6.759  -0.965 123.034  0.00  0.00    +0.000 C 
ENDBRANCH  34  35
ENDBRANCH  33  34
ENDBRANCH   1  33
BRANCH  17  41
ATOM     41  C   UNL     1      -4.765   3.690 128.534  0.00  0.00    +0.000 C 
BRANCH  41  42
ATOM     42  C   UNL     1      -5.166   4.482 127.299  0.00  0.00    +0.000 C 
ATOM     43  N   UNL     1      -5.498   5.137 126.274  0.00  0.00    +0.000 NA
ENDBRANCH  41  42
ENDBRANCH  17  41
TORSDOF 7
ENDMDL
MODEL 8
REMARK VINA RESULT:      -9.1      5.275     10.320
REMARK  Name = Adagrasib
REMARK  8 active torsions:
REMARK  status: ('A' for Active; 'I' for Inactive)
REMARK    1  A    between atoms: C_2  and  C_3
REMARK    2  A    between atoms: C_3  and  O_4
REMARK    3  A    between atoms: O_4  and  C_5
REMARK    4  A    between atoms: N_11  and  C_13
REMARK    5  A    between atoms: C_30  and  C_32
REMARK    6  A    between atoms: C_35  and  C_37
REMARK    7  A    between atoms: C_37  and  C_38
REMARK    8  A    between atoms: N_44  and  C_45
REMARK                            x       y       z     vdW  Elec       q    Type
REMARK                         _______ _______ _______ _____ _____    ______ ____
ROOT
ATOM      1  C   UNL     1      -5.148   4.963 127.205  0.00  0.00    +0.000 A 
ATOM      2  N   UNL     1      -4.357   5.865 127.821  0.00  0.00    +0.000 NA
ATOM      3  C   UNL     1      -3.864   5.539 129.065  0.00  0.00    +0.000 A 
ATOM      4  C   UNL     1      -4.161   4.315 129.675  0.00  0.00    +0.000 A 
ATOM      5  C   UNL     1      -3.593   3.967 131.021  0.00  0.00    +0.000 C 
ATOM      6  C   UNL     1      -2.379   4.822 131.440  0.00  0.00    +0.000 C 
ATOM      7  N   UNL     1      -2.595   6.265 131.343  0.00  0.00    +0.000 N 
ATOM      8  C   UNL     1      -2.918   6.581 129.801  0.00  0.00    +0.000 C 
ATOM      9  C   UNL     1      -5.015   3.417 129.013  0.00  0.00    +0.000 A 
ATOM     10  N   UNL     1      -5.507   3.757 127.767  0.00  0.00    +0.000 NA
ATOM     11  N   UNL     1      -5.326   2.185 129.640  0.00  0.00    +0.000 N 
ATOM     12  C   UNL     1      -5.990   2.029 130.953  0.00  0.00    +0.000 C 
ATOM     13  C   UNL     1      -7.277   1.180 130.851  0.00  0.00    +0.000 C 
ATOM     14  N   UNL     1      -6.994  -0.149 130.265  0.00  0.00    +0.000 N 
ATOM     15  C   UNL     1      -7.328  -1.367 130.893  0.00  0.00    +0.000 C 
ATOM     16  O   UNL     1      -7.891  -1.406 131.994  0.00  0.00    +0.000 OA
ATOM     17  C   UNL     1      -6.341   0.032 128.961  0.00  0.00    +0.000 C 
ATOM     18  C   UNL     1      -5.040   0.860 129.074  0.00  0.00    +0.000 C 
ENDROOT
BRANCH   7  19
ATOM     19  C   UNL     1      -2.340   7.316 132.683  0.00  0.00    +0.000 A 
ATOM     20  C   UNL     1      -3.656   6.526 133.482  0.00  0.00    +0.000 A 
ATOM     21  C   UNL     1      -3.932   6.948 134.724  0.00  0.00    +0.000 A 
ATOM     22  C   UNL     1      -3.057   7.942 135.070  0.00  0.00    +0.000 A 
ATOM     23  C   UNL     1      -1.861   8.579 134.219  0.00  0.00    +0.000 A 
ATOM     24  C   UNL     1      -1.101   8.685 133.118  0.00  0.00    +0.000 A 
ATOM     25  C   UNL     1       0.418  10.168 133.300  0.00  0.00    +0.000 A 
ATOM     26 CL   UNL     1       1.985  11.741 133.526  0.00  0.00    +0.000 Cl
ATOM     27  C   UNL     1       0.578  10.892 134.335  0.00  0.00    +0.000 A 
ATOM     28  C   UNL     1      -0.117   9.998 133.871  0.00  0.00    +0.000 A 
ATOM     29  C   UNL     1      -1.182   9.495 134.750  0.00  0.00    +0.000 A 
ENDBRANCH   7  19
BRANCH  15  30
ATOM     30  C   UNL     1      -6.989  -2.695 130.220  0.00  0.00    +0.000 C 
ATOM     31  F   UNL     1      -5.811  -3.297 130.467  0.00  0.00    +0.000 F 
ATOM     32  C   UNL     1      -7.831  -3.303 129.378  0.00  0.00    +0.000 C 
ENDBRANCH  15  30
BRANCH   1  33
ATOM     33  O   UNL     1      -5.622   5.269 125.917  0.00  0.00    +0.000 OA
BRANCH  33  34
ATOM     34  C   UNL     1      -6.911   4.721 125.552  0.00  0.00    +0.000 C 
BRANCH  34  35
ATOM     35  C   UNL     1      -6.766   3.709 124.396  0.00  0.00    +0.000 C 
ATOM     36  C   UNL     1      -5.803   4.171 123.296  0.00  0.00    +0.000 C 
ATOM     37  C   UNL     1      -6.381   3.634 121.989  0.00  0.00    +0.000 C 
ATOM     38  C   UNL     1      -7.589   2.825 122.419  0.00  0.00    +0.000 C 
ATOM     39  N   UNL     1      -8.012   3.484 123.649  0.00  0.00    +0.000 NA
ATOM     40  C   UNL     1      -8.980   2.688 124.385  0.00  0.00    +0.000 C 
ENDBRANCH  34  35
ENDBRANCH  33  34
ENDBRANCH   1  33
BRANCH  17  41
ATOM     41  C   UNL     1      -7.270   0.798 128.041  0.00  0.00    +0.000 C 
BRANCH  41  42
ATOM     42  C   UNL     1      -6.858   0.511 126.605  0.00  0.00    +0.000 C 
ATOM     43  N   UNL     1      -6.517   0.274 125.415  0.00  0.00    +0.000 NA
ENDBRANCH  41  42
ENDBRANCH  17  41
TORSDOF 7
ENDMDL
MODEL 9
REMARK VINA RESULT:      -9.1      5.730      8.979
REMARK  Name = Adagrasib
REMARK  8 active torsions:
REMARK  status: ('A' for Active; 'I' for Inactive)
REMARK    1  A    between atoms: C_2  and  C_3
REMARK    2  A    between atoms: C_3  and  O_4
REMARK    3  A    between atoms: O_4  and  C_5
REMARK    4  A    between atoms: N_11  and  C_13
REMARK    5  A    between atoms: C_30  and  C_32
REMARK    6  A    between atoms: C_35  and  C_37
REMARK    7  A    between atoms: C_37  and  C_38
REMARK    8  A    between atoms: N_44  and  C_45
REMARK                            x       y       z     vdW  Elec       q    Type
REMARK                         _______ _______ _______ _____ _____    ______ ____
ROOT
ATOM      1  C   UNL     1      -6.190  -0.429 127.502  0.00  0.00    +0.000 A 
ATOM      2  N   UNL     1      -6.115  -1.647 128.077  0.00  0.00    +0.000 NA
ATOM      3  C   UNL     1      -6.557  -1.768 129.375  0.00  0.00    +0.000 A 
ATOM      4  C   UNL     1      -7.076  -0.676 130.080  0.00  0.00    +0.000 A 
ATOM      5  C   UNL     1      -7.577  -0.834 131.486  0.00  0.00    +0.000 C 
ATOM      6  C   UNL     1      -7.870  -2.293 131.898  0.00  0.00    +0.000 C 
ATOM      7  N   UNL     1      -6.769  -3.223 131.648  0.00  0.00    +0.000 N 
ATOM      8  C   UNL     1      -6.493  -3.198 130.066  0.00  0.00    +0.000 C 
ATOM      9  C   UNL     1      -7.105   0.582 129.455  0.00  0.00    +0.000 A 
ATOM     10  N   UNL     1      -6.655   0.692 128.153  0.00  0.00    +0.000 NA
ATOM     11  N   UNL     1      -7.616   1.689 130.177  0.00  0.00    +0.000 N 
ATOM     12  C   UNL     1      -7.078   2.208 131.454  0.00  0.00    +0.000 C 
ATOM     13  C   UNL     1      -6.692   3.700 131.352  0.00  0.00    +0.000 C 
ATOM     14  N   UNL     1      -7.844   4.522 130.916  0.00  0.00    +0.000 N 
ATOM     15  C   UNL     1      -8.328   5.633 131.636  0.00  0.00    +0.000 C 
ATOM     16  O   UNL     1      -7.812   6.004 132.698  0.00  0.00    +0.000 OA
ATOM     17  C   UNL     1      -8.356   3.991 129.645  0.00  0.00    +0.000 C 
ATOM     18  C   UNL     1      -8.765   2.505 129.760  0.00  0.00    +0.000 C 
ENDROOT
BRANCH   7  19
ATOM     19  C   UNL     1      -6.116  -4.216 132.894  0.00  0.00    +0.000 A 
ATOM     20  C   UNL     1      -4.575  -4.084 132.116  0.00  0.00    +0.000 A 
ATOM     21  C   UNL     1      -3.552  -4.699 132.725  0.00  0.00    +0.000 A 
ATOM     22  C   UNL     1      -4.001  -5.301 133.869  0.00  0.00    +0.000 A 
ATOM     23  C   UNL     1      -5.478  -5.335 134.483  0.00  0.00    +0.000 A 
ATOM     24  C   UNL     1      -6.784  -5.028 134.473  0.00  0.00    +0.000 A 
ATOM     25  C   UNL     1      -7.831  -5.811 136.155  0.00  0.00    +0.000 A 
ATOM     26 CL   UNL     1      -8.894  -6.662 137.923  0.00  0.00    +0.000 Cl
ATOM     27  C   UNL     1      -7.283  -6.512 137.065  0.00  0.00    +0.000 A 
ATOM     28  C   UNL     1      -7.050  -5.920 136.019  0.00  0.00    +0.000 A 
ATOM     29  C   UNL     1      -5.655  -5.961 135.560  0.00  0.00    +0.000 A 
ENDBRANCH   7  19
BRANCH  15  30
ATOM     30  C   UNL     1      -9.530   6.418 131.118  0.00  0.00    +0.000 C 
ATOM     31  F   UNL     1      -9.364   7.371 130.183  0.00  0.00    +0.000 F 
ATOM     32  C   UNL     1     -10.772   6.194 131.559  0.00  0.00    +0.000 C 
ENDBRANCH  15  30
BRANCH   1  33
ATOM     33  O   UNL     1      -5.780  -0.304 126.162  0.00  0.00    +0.000 OA
BRANCH  33  34
ATOM     34  C   UNL     1      -6.007  -1.447 125.303  0.00  0.00    +0.000 C 
BRANCH  34  35
ATOM     35  C   UNL     1      -7.470  -1.483 124.819  0.00  0.00    +0.000 C 
ATOM     36  C   UNL     1      -8.078  -2.890 124.812  0.00  0.00    +0.000 C 
ATOM     37  C   UNL     1      -9.027  -2.925 123.616  0.00  0.00    +0.000 C 
ATOM     38  C   UNL     1      -8.976  -1.516 123.057  0.00  0.00    +0.000 C 
ATOM     39  N   UNL     1      -7.639  -1.060 123.420  0.00  0.00    +0.000 NA
ATOM     40  C   UNL     1      -7.487   0.372 123.236  0.00  0.00    +0.000 C 
ENDBRANCH  34  35
ENDBRANCH  33  34
ENDBRANCH   1  33
BRANCH  17  41
ATOM     41  C   UNL     1      -7.262   4.065 128.598  0.00  0.00    +0.000 C 
BRANCH  41  42
ATOM     42  C   UNL     1      -7.881   4.559 127.300  0.00  0.00    +0.000 C 
ATOM     43  N   UNL     1      -8.395   4.970 126.225  0.00  0.00    +0.000 NA
ENDBRANCH  41  42
ENDBRANCH  17  41
TORSDOF 7
ENDMDL
