MODEL 1
REMARK VINA RESULT:      -9.0      0.000      0.000
REMARK  Name = Adapalene
REMARK  6 active torsions:
REMARK  status: ('A' for Active; 'I' for Inactive)
REMARK    1  A    between atoms: C_1  and  O_2
REMARK    2  A    between atoms: O_2  and  C_3
REMARK    3  A    between atoms: C_4  and  C_22
REMARK    4  A    between atoms: C_6  and  C_9
REMARK    5  A    between atoms: C_16  and  C_19
REMARK    6  A    between atoms: C_19  and  O_20
REMARK                            x       y       z     vdW  Elec       q    Type
REMARK                         _______ _______ _______ _____ _____    ______ ____
ROOT
ATOM      1  C   UNL     1      -8.994  -1.751 125.154  0.00  0.00    +0.000 A 
ATOM      2  C   UNL     1      -7.938  -0.949 125.637  0.00  0.00    +0.000 A 
ATOM      3  C   UNL     1      -7.198  -1.415 126.741  0.00  0.00    +0.000 A 
ATOM      4  C   UNL     1      -7.593  -2.524 127.479  0.00  0.00    +0.000 A 
ATOM      5  C   UNL     1      -8.664  -3.284 126.989  0.00  0.00    +0.000 A 
ATOM      6  C   UNL     1      -9.347  -2.916 125.830  0.00  0.00    +0.000 A 
ENDROOT
BRANCH   4   7
ATOM      7  C   UNL     1      -6.888  -2.905 128.710  0.00  0.00    +0.000 A 
ATOM      8  C   UNL     1      -7.470  -3.301 129.925  0.00  0.00    +0.000 A 
ATOM      9  C   UNL     1      -6.626  -3.597 131.085  0.00  0.00    +0.000 A 
ATOM     10  C   UNL     1      -5.477  -4.245 130.859  0.00  0.00    +0.000 A 
ATOM     11  C   UNL     1      -4.833  -3.557 129.759  0.00  0.00    +0.000 A 
ATOM     12  C   UNL     1      -5.514  -2.872 128.731  0.00  0.00    +0.000 A 
ATOM     13  C   UNL     1      -4.892  -4.806 132.101  0.00  0.00    +0.000 A 
ATOM     14  C   UNL     1      -4.140  -3.908 132.808  0.00  0.00    +0.000 A 
ATOM     15  C   UNL     1      -4.740  -2.672 132.645  0.00  0.00    +0.000 A 
ATOM     16  C   UNL     1      -6.187  -2.689 132.131  0.00  0.00    +0.000 A 
BRANCH  14  17
ATOM     17  C   UNL     1      -3.124  -4.226 133.879  0.00  0.00    +0.000 C 
ATOM     18  O   UNL     1      -3.185  -3.843 135.017  0.00  0.00    +0.000 OA
BRANCH  17  19
ATOM     19  O   UNL     1      -2.106  -5.002 133.423  0.00  0.00    +0.000 OA
ATOM     20  H   UNL     1      -1.336  -5.043 134.011  0.00  0.00    +0.000 HD
ENDBRANCH  17  19
ENDBRANCH  14  17
ENDBRANCH   4   7
BRANCH   2  21
ATOM     21  C   UNL     1      -7.721   0.491 125.156  0.00  0.00    +0.000 C 
ATOM     22  C   UNL     1      -9.103   1.209 125.193  0.00  0.00    +0.000 C 
ATOM     23  C   UNL     1      -8.982   2.669 124.754  0.00  0.00    +0.000 C 
ATOM     24  C   UNL     1      -8.043   3.403 125.715  0.00  0.00    +0.000 C 
ATOM     25  C   UNL     1      -6.651   2.759 125.680  0.00  0.00    +0.000 C 
ATOM     26  C   UNL     1      -6.083   2.806 124.257  0.00  0.00    +0.000 C 
ATOM     27  C   UNL     1      -7.015   2.056 123.295  0.00  0.00    +0.000 C 
ATOM     28  C   UNL     1      -8.408   2.710 123.330  0.00  0.00    +0.000 C 
ATOM     29  C   UNL     1      -7.129   0.584 123.730  0.00  0.00    +0.000 C 
ATOM     30  C   UNL     1      -6.774   1.298 126.106  0.00  0.00    +0.000 C 
ENDBRANCH   2  21
BRANCH   1  32
ATOM     31  C   UNL     1      -9.330  -2.248 122.860  0.00  0.00    +0.000 C 
ATOM     32  O   UNL     1      -9.583  -1.396 123.970  0.00  0.00    +0.000 OA
ENDBRANCH   1  32
TORSDOF 5
ENDMDL
MODEL 2
REMARK VINA RESULT:      -9.0      6.076      9.915
REMARK  Name = Adapalene
REMARK  6 active torsions:
REMARK  status: ('A' for Active; 'I' for Inactive)
REMARK    1  A    between atoms: C_1  and  O_2
REMARK    2  A    between atoms: O_2  and  C_3
REMARK    3  A    between atoms: C_4  and  C_22
REMARK    4  A    between atoms: C_6  and  C_9
REMARK    5  A    between atoms: C_16  and  C_19
REMARK    6  A    between atoms: C_19  and  O_20
REMARK                            x       y       z     vdW  Elec       q    Type
REMARK                         _______ _______ _______ _____ _____    ______ ____
ROOT
ATOM      1  C   UNL     1      -7.773   0.886 130.952  0.00  0.00    +0.000 A 
ATOM      2  C   UNL     1      -7.931   1.489 129.687  0.00  0.00    +0.000 A 
ATOM      3  C   UNL     1      -8.626   2.712 129.612  0.00  0.00    +0.000 A 
ATOM      4  C   UNL     1      -9.320   3.234 130.697  0.00  0.00    +0.000 A 
ATOM      5  C   UNL     1      -9.166   2.595 131.935  0.00  0.00    +0.000 A 
ATOM      6  C   UNL     1      -8.388   1.445 132.070  0.00  0.00    +0.000 A 
ENDROOT
BRANCH   4   7
ATOM      7  C   UNL     1     -10.155   4.434 130.555  0.00  0.00    +0.000 A 
ATOM      8  C   UNL     1     -11.532   4.473 130.282  0.00  0.00    +0.000 A 
ATOM      9  C   UNL     1     -12.214   5.758 130.114  0.00  0.00    +0.000 A 
ATOM     10  C   UNL     1     -11.848   6.757 130.926  0.00  0.00    +0.000 A 
ATOM     11  C   UNL     1     -10.400   6.793 130.897  0.00  0.00    +0.000 A 
ATOM     12  C   UNL     1      -9.573   5.672 130.680  0.00  0.00    +0.000 A 
ATOM     13  C   UNL     1     -12.826   7.873 130.923  0.00  0.00    +0.000 A 
ATOM     14  C   UNL     1     -12.645   8.760 129.899  0.00  0.00    +0.000 A 
ATOM     15  C   UNL     1     -12.204   8.027 128.811  0.00  0.00    +0.000 A 
ATOM     16  C   UNL     1     -12.425   6.509 128.889  0.00  0.00    +0.000 A 
BRANCH  14  17
ATOM     17  C   UNL     1     -13.194  10.164 129.812  0.00  0.00    +0.000 C 
ATOM     18  O   UNL     1     -13.336  10.903 130.752  0.00  0.00    +0.000 OA
BRANCH  17  19
ATOM     19  O   UNL     1     -13.523  10.523 128.544  0.00  0.00    +0.000 OA
ATOM     20  H   UNL     1     -14.297  11.104 128.478  0.00  0.00    +0.000 HD
ENDBRANCH  17  19
ENDBRANCH  14  17
ENDBRANCH   4   7
BRANCH   2  21
ATOM     21  C   UNL     1      -7.579   0.758 128.385  0.00  0.00    +0.000 C 
ATOM     22  C   UNL     1      -8.492   1.338 127.263  0.00  0.00    +0.000 C 
ATOM     23  C   UNL     1      -8.193   0.687 125.912  0.00  0.00    +0.000 C 
ATOM     24  C   UNL     1      -6.737   0.972 125.531  0.00  0.00    +0.000 C 
ATOM     25  C   UNL     1      -5.795   0.378 126.586  0.00  0.00    +0.000 C 
ATOM     26  C   UNL     1      -6.017  -1.133 126.703  0.00  0.00    +0.000 C 
ATOM     27  C   UNL     1      -7.471  -1.421 127.100  0.00  0.00    +0.000 C 
ATOM     28  C   UNL     1      -8.412  -0.828 126.035  0.00  0.00    +0.000 C 
ATOM     29  C   UNL     1      -7.770  -0.775 128.465  0.00  0.00    +0.000 C 
ATOM     30  C   UNL     1      -6.102   1.019 127.938  0.00  0.00    +0.000 C 
ENDBRANCH   2  21
BRANCH   1  32
ATOM     31  C   UNL     1      -5.686   0.036 131.692  0.00  0.00    +0.000 C 
ATOM     32  O   UNL     1      -6.936  -0.192 131.053  0.00  0.00    +0.000 OA
ENDBRANCH   1  32
TORSDOF 5
ENDMDL
MODEL 3
REMARK VINA RESULT:      -8.9      4.716      7.446
REMARK  Name = Adapalene
REMARK  6 active torsions:
REMARK  status: ('A' for Active; 'I' for Inactive)
REMARK    1  A    between atoms: C_1  and  O_2
REMARK    2  A    between atoms: O_2  and  C_3
REMARK    3  A    between atoms: C_4  and  C_22
REMARK    4  A    between atoms: C_6  and  C_9
REMARK    5  A    between atoms: C_16  and  C_19
REMARK    6  A    between atoms: C_19  and  O_20
REMARK                            x       y       z     vdW  Elec       q    Type
REMARK                         _______ _______ _______ _____ _____    ______ ____
ROOT
ATOM      1  C   UNL     1      -7.134   2.168 123.425  0.00  0.00    +0.000 A 
ATOM      2  C   UNL     1      -6.755   1.391 124.540  0.00  0.00    +0.000 A 
ATOM      3  C   UNL     1      -6.071   2.028 125.594  0.00  0.00    +0.000 A 
ATOM      4  C   UNL     1      -5.591   3.327 125.485  0.00  0.00    +0.000 A 
ATOM      5  C   UNL     1      -5.961   4.063 124.350  0.00  0.00    +0.000 A 
ATOM      6  C   UNL     1      -6.739   3.500 123.339  0.00  0.00    +0.000 A 
ENDROOT
BRANCH   4   7
ATOM      7  C   UNL     1      -4.757   3.918 126.539  0.00  0.00    +0.000 A 
ATOM      8  C   UNL     1      -3.518   3.442 126.997  0.00  0.00    +0.000 A 
ATOM      9  C   UNL     1      -2.831   4.115 128.101  0.00  0.00    +0.000 A 
ATOM     10  C   UNL     1      -2.883   5.452 128.132  0.00  0.00    +0.000 A 
ATOM     11  C   UNL     1      -4.273   5.808 127.931  0.00  0.00    +0.000 A 
ATOM     12  C   UNL     1      -5.198   5.047 127.187  0.00  0.00    +0.000 A 
ATOM     13  C   UNL     1      -1.878   6.035 129.054  0.00  0.00    +0.000 A 
ATOM     14  C   UNL     1      -2.288   6.079 130.358  0.00  0.00    +0.000 A 
ATOM     15  C   UNL     1      -3.070   4.957 130.567  0.00  0.00    +0.000 A 
ATOM     16  C   UNL     1      -2.934   3.838 129.524  0.00  0.00    +0.000 A 
BRANCH  14  17
ATOM     17  C   UNL     1      -1.698   6.924 131.462  0.00  0.00    +0.000 C 
ATOM     18  O   UNL     1      -2.289   7.791 132.051  0.00  0.00    +0.000 OA
BRANCH  17  19
ATOM     19  O   UNL     1      -0.405   6.607 131.733  0.00  0.00    +0.000 OA
ATOM     20  H   UNL     1       0.186   6.637 130.965  0.00  0.00    +0.000 HD
ENDBRANCH  17  19
ENDBRANCH  14  17
ENDBRANCH   4   7
BRANCH   2  21
ATOM     21  C   UNL     1      -6.857  -0.139 124.543  0.00  0.00    +0.000 C 
ATOM     22  C   UNL     1      -5.794  -0.676 125.547  0.00  0.00    +0.000 C 
ATOM     23  C   UNL     1      -5.839  -2.201 125.640  0.00  0.00    +0.000 C 
ATOM     24  C   UNL     1      -7.221  -2.631 126.141  0.00  0.00    +0.000 C 
ATOM     25  C   UNL     1      -8.301  -2.163 125.157  0.00  0.00    +0.000 C 
ATOM     26  C   UNL     1      -8.043  -2.754 123.767  0.00  0.00    +0.000 C 
ATOM     27  C   UNL     1      -6.665  -2.312 123.256  0.00  0.00    +0.000 C 
ATOM     28  C   UNL     1      -5.584  -2.789 124.244  0.00  0.00    +0.000 C 
ATOM     29  C   UNL     1      -6.622  -0.776 123.153  0.00  0.00    +0.000 C 
ATOM     30  C   UNL     1      -8.248  -0.641 125.055  0.00  0.00    +0.000 C 
ENDBRANCH   2  21
BRANCH   1  32
ATOM     31  C   UNL     1      -9.348   1.908 122.614  0.00  0.00    +0.000 C 
ATOM     32  O   UNL     1      -7.964   1.600 122.496  0.00  0.00    +0.000 OA
ENDBRANCH   1  32
TORSDOF 5
ENDMDL
MODEL 4
REMARK VINA RESULT:      -8.5     10.744     13.683
REMARK  Name = Adapalene
REMARK  6 active torsions:
REMARK  status: ('A' for Active; 'I' for Inactive)
REMARK    1  A    between atoms: C_1  and  O_2
REMARK    2  A    between atoms: O_2  and  C_3
REMARK    3  A    between atoms: C_4  and  C_22
REMARK    4  A    between atoms: C_6  and  C_9
REMARK    5  A    between atoms: C_16  and  C_19
REMARK    6  A    between atoms: C_19  and  O_20
REMARK                            x       y       z     vdW  Elec       q    Type
REMARK                         _______ _______ _______ _____ _____    ______ ____
ROOT
ATOM      1  C   UNL     1      -0.089   8.331 134.282  0.00  0.00    +0.000 A 
ATOM      2  C   UNL     1      -1.010   9.276 133.785  0.00  0.00    +0.000 A 
ATOM      3  C   UNL     1      -2.266   8.814 133.341  0.00  0.00    +0.000 A 
ATOM      4  C   UNL     1      -2.545   7.461 133.197  0.00  0.00    +0.000 A 
ATOM      5  C   UNL     1      -1.596   6.546 133.674  0.00  0.00    +0.000 A 
ATOM      6  C   UNL     1      -0.389   6.972 134.228  0.00  0.00    +0.000 A 
ENDROOT
BRANCH   4   7
ATOM      7  C   UNL     1      -3.807   7.009 132.597  0.00  0.00    +0.000 A 
ATOM      8  C   UNL     1      -4.862   6.353 133.252  0.00  0.00    +0.000 A 
ATOM      9  C   UNL     1      -6.038   5.914 132.499  0.00  0.00    +0.000 A 
ATOM     10  C   UNL     1      -6.491   6.728 131.537  0.00  0.00    +0.000 A 
ATOM     11  C   UNL     1      -5.334   7.109 130.752  0.00  0.00    +0.000 A 
ATOM     12  C   UNL     1      -4.021   7.212 131.255  0.00  0.00    +0.000 A 
ATOM     13  C   UNL     1      -7.862   6.373 131.097  0.00  0.00    +0.000 A 
ATOM     14  C   UNL     1      -7.898   5.386 130.151  0.00  0.00    +0.000 A 
ATOM     15  C   UNL     1      -6.859   4.520 130.441  0.00  0.00    +0.000 A 
ATOM     16  C   UNL     1      -6.264   4.632 131.853  0.00  0.00    +0.000 A 
BRANCH  14  17
ATOM     17  C   UNL     1      -9.052   5.054 129.235  0.00  0.00    +0.000 C 
ATOM     18  O   UNL     1      -9.382   5.712 128.284  0.00  0.00    +0.000 OA
BRANCH  17  19
ATOM     19  O   UNL     1      -9.701   3.917 129.597  0.00  0.00    +0.000 OA
ATOM     20  H   UNL     1     -10.627   4.046 129.854  0.00  0.00    +0.000 HD
ENDBRANCH  17  19
ENDBRANCH  14  17
ENDBRANCH   4   7
BRANCH   2  21
ATOM     21  C   UNL     1      -0.615  10.730 133.501  0.00  0.00    +0.000 C 
ATOM     22  C   UNL     1      -1.617  11.288 132.446  0.00  0.00    +0.000 C 
ATOM     23  C   UNL     1      -1.319  12.752 132.117  0.00  0.00    +0.000 C 
ATOM     24  C   UNL     1      -1.461  13.589 133.392  0.00  0.00    +0.000 C 
ATOM     25  C   UNL     1      -0.459  13.105 134.449  0.00  0.00    +0.000 C 
ATOM     26  C   UNL     1       0.971  13.213 133.909  0.00  0.00    +0.000 C 
ATOM     27  C   UNL     1       1.120  12.362 132.641  0.00  0.00    +0.000 C 
ATOM     28  C   UNL     1       0.117  12.855 131.582  0.00  0.00    +0.000 C 
ATOM     29  C   UNL     1       0.830  10.887 132.973  0.00  0.00    +0.000 C 
ATOM     30  C   UNL     1      -0.748  11.640 134.767  0.00  0.00    +0.000 C 
ENDBRANCH   2  21
BRANCH   1  32
ATOM     31  C   UNL     1       1.121   8.626 136.301  0.00  0.00    +0.000 C 
ATOM     32  O   UNL     1       1.046   8.795 134.891  0.00  0.00    +0.000 OA
ENDBRANCH   1  32
TORSDOF 5
ENDMDL
MODEL 5
REMARK VINA RESULT:      -8.5      4.756      7.833
REMARK  Name = Adapalene
REMARK  6 active torsions:
REMARK  status: ('A' for Active; 'I' for Inactive)
REMARK    1  A    between atoms: C_1  and  O_2
REMARK    2  A    between atoms: O_2  and  C_3
REMARK    3  A    between atoms: C_4  and  C_22
REMARK    4  A    between atoms: C_6  and  C_9
REMARK    5  A    between atoms: C_16  and  C_19
REMARK    6  A    between atoms: C_19  and  O_20
REMARK                            x       y       z     vdW  Elec       q    Type
REMARK                         _______ _______ _______ _____ _____    ______ ____
ROOT
ATOM      1  C   UNL     1      -5.772  -1.559 128.474  0.00  0.00    +0.000 A 
ATOM      2  C   UNL     1      -6.578  -0.905 127.518  0.00  0.00    +0.000 A 
ATOM      3  C   UNL     1      -7.260   0.264 127.909  0.00  0.00    +0.000 A 
ATOM      4  C   UNL     1      -7.321   0.675 129.234  0.00  0.00    +0.000 A 
ATOM      5  C   UNL     1      -6.531  -0.013 130.165  0.00  0.00    +0.000 A 
ATOM      6  C   UNL     1      -5.749  -1.106 129.790  0.00  0.00    +0.000 A 
ENDROOT
BRANCH   4   7
ATOM      7  C   UNL     1      -8.156   1.814 129.636  0.00  0.00    +0.000 A 
ATOM      8  C   UNL     1      -8.951   1.909 130.790  0.00  0.00    +0.000 A 
ATOM      9  C   UNL     1      -9.775   3.097 131.022  0.00  0.00    +0.000 A 
ATOM     10  C   UNL     1      -9.249   4.283 130.692  0.00  0.00    +0.000 A 
ATOM     11  C   UNL     1      -8.711   4.129 129.356  0.00  0.00    +0.000 A 
ATOM     12  C   UNL     1      -8.212   2.922 128.825  0.00  0.00    +0.000 A 
ATOM     13  C   UNL     1      -9.995   5.417 131.291  0.00  0.00    +0.000 A 
ATOM     14  C   UNL     1     -11.088   5.801 130.564  0.00  0.00    +0.000 A 
ATOM     15  C   UNL     1     -11.615   4.652 130.002  0.00  0.00    +0.000 A 
ATOM     16  C   UNL     1     -11.153   3.326 130.622  0.00  0.00    +0.000 A 
BRANCH  14  17
ATOM     17  C   UNL     1     -11.827   7.114 130.671  0.00  0.00    +0.000 C 
ATOM     18  O   UNL     1     -11.592   8.088 130.006  0.00  0.00    +0.000 OA
BRANCH  17  19
ATOM     19  O   UNL     1     -12.805   7.092 131.613  0.00  0.00    +0.000 OA
ATOM     20  H   UNL     1     -12.650   6.468 132.340  0.00  0.00    +0.000 HD
ENDBRANCH  17  19
ENDBRANCH  14  17
ENDBRANCH   4   7
BRANCH   2  21
ATOM     21  C   UNL     1      -6.914  -1.539 126.162  0.00  0.00    +0.000 C 
ATOM     22  C   UNL     1      -7.873  -0.563 125.416  0.00  0.00    +0.000 C 
ATOM     23  C   UNL     1      -8.243  -1.099 124.033  0.00  0.00    +0.000 C 
ATOM     24  C   UNL     1      -6.970  -1.243 123.195  0.00  0.00    +0.000 C 
ATOM     25  C   UNL     1      -6.010  -2.233 123.868  0.00  0.00    +0.000 C 
ATOM     26  C   UNL     1      -6.686  -3.598 124.029  0.00  0.00    +0.000 C 
ATOM     27  C   UNL     1      -7.955  -3.460 124.882  0.00  0.00    +0.000 C 
ATOM     28  C   UNL     1      -8.916  -2.470 124.199  0.00  0.00    +0.000 C 
ATOM     29  C   UNL     1      -7.581  -2.930 126.278  0.00  0.00    +0.000 C 
ATOM     30  C   UNL     1      -5.650  -1.704 125.254  0.00  0.00    +0.000 C 
ENDBRANCH   2  21
BRANCH   1  32
ATOM     31  C   UNL     1      -4.082  -3.131 129.016  0.00  0.00    +0.000 C 
ATOM     32  O   UNL     1      -4.960  -2.574 128.046  0.00  0.00    +0.000 OA
ENDBRANCH   1  32
TORSDOF 5
ENDMDL
MODEL 6
REMARK VINA RESULT:      -8.4      5.214      9.911
REMARK  Name = Adapalene
REMARK  6 active torsions:
REMARK  status: ('A' for Active; 'I' for Inactive)
REMARK    1  A    between atoms: C_1  and  O_2
REMARK    2  A    between atoms: O_2  and  C_3
REMARK    3  A    between atoms: C_4  and  C_22
REMARK    4  A    between atoms: C_6  and  C_9
REMARK    5  A    between atoms: C_16  and  C_19
REMARK    6  A    between atoms: C_19  and  O_20
REMARK                            x       y       z     vdW  Elec       q    Type
REMARK                         _______ _______ _______ _____ _____    ______ ____
ROOT
ATOM      1  C   UNL     1      -6.302   0.167 132.855  0.00  0.00    +0.000 A 
ATOM      2  C   UNL     1      -6.652   0.294 131.493  0.00  0.00    +0.000 A 
ATOM      3  C   UNL     1      -7.192   1.519 131.055  0.00  0.00    +0.000 A 
ATOM      4  C   UNL     1      -7.570   2.519 131.942  0.00  0.00    +0.000 A 
ATOM      5  C   UNL     1      -7.234   2.351 133.292  0.00  0.00    +0.000 A 
ATOM      6  C   UNL     1      -6.591   1.198 133.745  0.00  0.00    +0.000 A 
ENDROOT
BRANCH   4   7
ATOM      7  C   UNL     1      -8.263   3.726 131.472  0.00  0.00    +0.000 A 
ATOM      8  C   UNL     1      -8.521   4.890 132.213  0.00  0.00    +0.000 A 
ATOM      9  C   UNL     1      -9.276   5.992 131.615  0.00  0.00    +0.000 A 
ATOM     10  C   UNL     1      -9.037   6.275 130.329  0.00  0.00    +0.000 A 
ATOM     11  C   UNL     1      -9.082   5.011 129.622  0.00  0.00    +0.000 A 
ATOM     12  C   UNL     1      -8.741   3.763 130.184  0.00  0.00    +0.000 A 
ATOM     13  C   UNL     1      -9.568   7.603 129.935  0.00  0.00    +0.000 A 
ATOM     14  C   UNL     1     -10.891   7.586 129.590  0.00  0.00    +0.000 A 
ATOM     15  C   UNL     1     -11.501   6.645 130.401  0.00  0.00    +0.000 A 
ATOM     16  C   UNL     1     -10.712   6.217 131.647  0.00  0.00    +0.000 A 
BRANCH  14  17
ATOM     17  C   UNL     1     -11.633   8.640 128.803  0.00  0.00    +0.000 C 
ATOM     18  O   UNL     1     -12.565   9.276 129.220  0.00  0.00    +0.000 OA
BRANCH  17  19
ATOM     19  O   UNL     1     -11.140   8.803 127.548  0.00  0.00    +0.000 OA
ATOM     20  H   UNL     1     -11.804   9.034 126.881  0.00  0.00    +0.000 HD
ENDBRANCH  17  19
ENDBRANCH  14  17
ENDBRANCH   4   7
BRANCH   2  21
ATOM     21  C   UNL     1      -6.677  -0.909 130.542  0.00  0.00    +0.000 C 
ATOM     22  C   UNL     1      -7.308  -2.104 131.318  0.00  0.00    +0.000 C 
ATOM     23  C   UNL     1      -7.402  -3.350 130.437  0.00  0.00    +0.000 C 
ATOM     24  C   UNL     1      -8.297  -3.044 129.233  0.00  0.00    +0.000 C 
ATOM     25  C   UNL     1      -7.692  -1.900 128.409  0.00  0.00    +0.000 C 
ATOM     26  C   UNL     1      -6.286  -2.278 127.931  0.00  0.00    +0.000 C 
ATOM     27  C   UNL     1      -5.382  -2.570 129.137  0.00  0.00    +0.000 C 
ATOM     28  C   UNL     1      -5.991  -3.723 129.956  0.00  0.00    +0.000 C 
ATOM     29  C   UNL     1      -5.279  -1.313 130.019  0.00  0.00    +0.000 C 
ATOM     30  C   UNL     1      -7.586  -0.659 129.293  0.00  0.00    +0.000 C 
ENDBRANCH   2  21
BRANCH   1  32
ATOM     31  C   UNL     1      -4.267  -0.725 133.683  0.00  0.00    +0.000 C 
ATOM     32  O   UNL     1      -5.601  -0.943 133.240  0.00  0.00    +0.000 OA
ENDBRANCH   1  32
TORSDOF 5
ENDMDL
MODEL 7
REMARK VINA RESULT:      -8.3      2.505      9.015
REMARK  Name = Adapalene
REMARK  6 active torsions:
REMARK  status: ('A' for Active; 'I' for Inactive)
REMARK    1  A    between atoms: C_1  and  O_2
REMARK    2  A    between atoms: O_2  and  C_3
REMARK    3  A    between atoms: C_4  and  C_22
REMARK    4  A    between atoms: C_6  and  C_9
REMARK    5  A    between atoms: C_16  and  C_19
REMARK    6  A    between atoms: C_19  and  O_20
REMARK                            x       y       z     vdW  Elec       q    Type
REMARK                         _______ _______ _______ _____ _____    ______ ____
ROOT
ATOM      1  C   UNL     1      -5.053  -4.094 132.843  0.00  0.00    +0.000 A 
ATOM      2  C   UNL     1      -5.491  -2.776 132.589  0.00  0.00    +0.000 A 
ATOM      3  C   UNL     1      -6.198  -2.526 131.397  0.00  0.00    +0.000 A 
ATOM      4  C   UNL     1      -6.303  -3.476 130.388  0.00  0.00    +0.000 A 
ATOM      5  C   UNL     1      -5.833  -4.768 130.660  0.00  0.00    +0.000 A 
ATOM      6  C   UNL     1      -5.231  -5.083 131.879  0.00  0.00    +0.000 A 
ENDROOT
BRANCH   4   7
ATOM      7  C   UNL     1      -6.919  -3.144 129.097  0.00  0.00    +0.000 A 
ATOM      8  C   UNL     1      -8.245  -3.397 128.708  0.00  0.00    +0.000 A 
ATOM      9  C   UNL     1      -8.695  -3.053 127.358  0.00  0.00    +0.000 A 
ATOM     10  C   UNL     1      -8.241  -1.909 126.832  0.00  0.00    +0.000 A 
ATOM     11  C   UNL     1      -6.809  -1.904 127.049  0.00  0.00    +0.000 A 
ATOM     12  C   UNL     1      -6.158  -2.534 128.129  0.00  0.00    +0.000 A 
ATOM     13  C   UNL     1      -9.023  -1.484 125.645  0.00  0.00    +0.000 A 
ATOM     14  C   UNL     1      -8.618  -2.075 124.480  0.00  0.00    +0.000 A 
ATOM     15  C   UNL     1      -8.213  -3.357 124.804  0.00  0.00    +0.000 A 
ATOM     16  C   UNL     1      -8.681  -3.886 126.167  0.00  0.00    +0.000 A 
BRANCH  14  17
ATOM     17  C   UNL     1      -8.925  -1.608 123.076  0.00  0.00    +0.000 C 
ATOM     18  O   UNL     1      -9.911  -0.997 122.759  0.00  0.00    +0.000 OA
BRANCH  17  19
ATOM     19  O   UNL     1      -7.961  -1.955 122.184  0.00  0.00    +0.000 OA
ATOM     20  H   UNL     1      -7.267  -1.289 122.062  0.00  0.00    +0.000 HD
ENDBRANCH  17  19
ENDBRANCH  14  17
ENDBRANCH   4   7
BRANCH   2  21
ATOM     21  C   UNL     1      -5.032  -1.586 133.441  0.00  0.00    +0.000 C 
ATOM     22  C   UNL     1      -5.393  -0.287 132.659  0.00  0.00    +0.000 C 
ATOM     23  C   UNL     1      -4.997   0.962 133.446  0.00  0.00    +0.000 C 
ATOM     24  C   UNL     1      -5.763   0.981 134.772  0.00  0.00    +0.000 C 
ATOM     25  C   UNL     1      -5.405  -0.259 135.600  0.00  0.00    +0.000 C 
ATOM     26  C   UNL     1      -3.897  -0.298 135.869  0.00  0.00    +0.000 C 
ATOM     27  C   UNL     1      -3.127  -0.333 134.542  0.00  0.00    +0.000 C 
ATOM     28  C   UNL     1      -3.486   0.917 133.717  0.00  0.00    +0.000 C 
ATOM     29  C   UNL     1      -3.517  -1.596 133.753  0.00  0.00    +0.000 C 
ATOM     30  C   UNL     1      -5.788  -1.507 134.808  0.00  0.00    +0.000 C 
ENDBRANCH   2  21
BRANCH   1  32
ATOM     31  C   UNL     1      -4.917  -5.626 134.647  0.00  0.00    +0.000 C 
ATOM     32  O   UNL     1      -4.543  -4.376 134.081  0.00  0.00    +0.000 OA
ENDBRANCH   1  32
TORSDOF 5
ENDMDL
MODEL 8
REMARK VINA RESULT:      -8.3     10.299     13.395
REMARK  Name = Adapalene
REMARK  6 active torsions:
REMARK  status: ('A' for Active; 'I' for Inactive)
REMARK    1  A    between atoms: C_1  and  O_2
REMARK    2  A    between atoms: O_2  and  C_3
REMARK    3  A    between atoms: C_4  and  C_22
REMARK    4  A    between atoms: C_6  and  C_9
REMARK    5  A    between atoms: C_16  and  C_19
REMARK    6  A    between atoms: C_19  and  O_20
REMARK                            x       y       z     vdW  Elec       q    Type
REMARK                         _______ _______ _______ _____ _____    ______ ____
ROOT
ATOM      1  C   UNL     1      -1.928   8.661 134.990  0.00  0.00    +0.000 A 
ATOM      2  C   UNL     1      -2.058   9.361 133.772  0.00  0.00    +0.000 A 
ATOM      3  C   UNL     1      -2.420   8.634 132.621  0.00  0.00    +0.000 A 
ATOM      4  C   UNL     1      -2.458   7.245 132.606  0.00  0.00    +0.000 A 
ATOM      5  C   UNL     1      -2.295   6.577 133.827  0.00  0.00    +0.000 A 
ATOM      6  C   UNL     1      -2.052   7.274 135.012  0.00  0.00    +0.000 A 
ENDROOT
BRANCH   4   7
ATOM      7  C   UNL     1      -2.696   6.508 131.358  0.00  0.00    +0.000 A 
ATOM      8  C   UNL     1      -2.099   6.750 130.111  0.00  0.00    +0.000 A 
ATOM      9  C   UNL     1      -2.485   5.958 128.942  0.00  0.00    +0.000 A 
ATOM     10  C   UNL     1      -2.707   4.651 129.132  0.00  0.00    +0.000 A 
ATOM     11  C   UNL     1      -3.576   4.553 130.287  0.00  0.00    +0.000 A 
ATOM     12  C   UNL     1      -3.600   5.473 131.355  0.00  0.00    +0.000 A 
ATOM     13  C   UNL     1      -2.732   3.892 127.858  0.00  0.00    +0.000 A 
ATOM     14  C   UNL     1      -3.946   3.914 127.228  0.00  0.00    +0.000 A 
ATOM     15  C   UNL     1      -4.500   5.157 127.476  0.00  0.00    +0.000 A 
ATOM     16  C   UNL     1      -3.529   6.240 127.972  0.00  0.00    +0.000 A 
BRANCH  14  17
ATOM     17  C   UNL     1      -4.420   2.970 126.149  0.00  0.00    +0.000 C 
ATOM     18  O   UNL     1      -5.065   3.299 125.187  0.00  0.00    +0.000 OA
BRANCH  17  19
ATOM     19  O   UNL     1      -4.045   1.684 126.372  0.00  0.00    +0.000 OA
ATOM     20  H   UNL     1      -4.239   1.075 125.643  0.00  0.00    +0.000 HD
ENDBRANCH  17  19
ENDBRANCH  14  17
ENDBRANCH   4   7
BRANCH   2  21
ATOM     21  C   UNL     1      -1.605  10.817 133.615  0.00  0.00    +0.000 C 
ATOM     22  C   UNL     1      -0.061  10.850 133.826  0.00  0.00    +0.000 C 
ATOM     23  C   UNL     1       0.491  12.266 133.660  0.00  0.00    +0.000 C 
ATOM     24  C   UNL     1       0.198  12.753 132.238  0.00  0.00    +0.000 C 
ATOM     25  C   UNL     1      -1.317  12.782 131.997  0.00  0.00    +0.000 C 
ATOM     26  C   UNL     1      -1.996  13.704 133.015  0.00  0.00    +0.000 C 
ATOM     27  C   UNL     1      -1.717  13.209 134.441  0.00  0.00    +0.000 C 
ATOM     28  C   UNL     1      -0.196  13.187 134.679  0.00  0.00    +0.000 C 
ATOM     29  C   UNL     1      -2.282  11.787 134.612  0.00  0.00    +0.000 C 
ATOM     30  C   UNL     1      -1.870  11.370 132.176  0.00  0.00    +0.000 C 
ENDBRANCH   2  21
BRANCH   1  32
ATOM     31  C   UNL     1      -1.800   8.658 137.358  0.00  0.00    +0.000 C 
ATOM     32  O   UNL     1      -1.771   9.388 136.138  0.00  0.00    +0.000 OA
ENDBRANCH   1  32
TORSDOF 5
ENDMDL
MODEL 9
REMARK VINA RESULT:      -8.0     10.540     13.485
REMARK  Name = Adapalene
REMARK  6 active torsions:
REMARK  status: ('A' for Active; 'I' for Inactive)
REMARK    1  A    between atoms: C_1  and  O_2
REMARK    2  A    between atoms: O_2  and  C_3
REMARK    3  A    between atoms: C_4  and  C_22
REMARK    4  A    between atoms: C_6  and  C_9
REMARK    5  A    between atoms: C_16  and  C_19
REMARK    6  A    between atoms: C_19  and  O_20
REMARK                            x       y       z     vdW  Elec       q    Type
REMARK                         _______ _______ _______ _____ _____    ______ ____
ROOT
ATOM      1  C   UNL     1      -0.414   8.620 134.788  0.00  0.00    +0.000 A 
ATOM      2  C   UNL     1      -0.944   9.328 133.689  0.00  0.00    +0.000 A 
ATOM      3  C   UNL     1      -1.644   8.604 132.704  0.00  0.00    +0.000 A 
ATOM      4  C   UNL     1      -1.657   7.215 132.679  0.00  0.00    +0.000 A 
ATOM      5  C   UNL     1      -1.096   6.540 133.771  0.00  0.00    +0.000 A 
ATOM      6  C   UNL     1      -0.497   7.230 134.825  0.00  0.00    +0.000 A 
ENDROOT
BRANCH   4   7
ATOM      7  C   UNL     1      -2.271   6.484 131.562  0.00  0.00    +0.000 A 
ATOM      8  C   UNL     1      -3.528   5.859 131.557  0.00  0.00    +0.000 A 
ATOM      9  C   UNL     1      -3.978   5.118 130.377  0.00  0.00    +0.000 A 
ATOM     10  C   UNL     1      -3.684   5.636 129.178  0.00  0.00    +0.000 A 
ATOM     11  C   UNL     1      -2.278   5.980 129.219  0.00  0.00    +0.000 A 
ATOM     12  C   UNL     1      -1.577   6.358 130.383  0.00  0.00    +0.000 A 
ATOM     13  C   UNL     1      -4.479   5.020 128.087  0.00  0.00    +0.000 A 
ATOM     14  C   UNL     1      -3.949   3.853 127.611  0.00  0.00    +0.000 A 
ATOM     15  C   UNL     1      -3.366   3.213 128.690  0.00  0.00    +0.000 A 
ATOM     16  C   UNL     1      -3.796   3.707 130.079  0.00  0.00    +0.000 A 
BRANCH  14  17
ATOM     17  C   UNL     1      -4.273   3.183 126.297  0.00  0.00    +0.000 C 
ATOM     18  O   UNL     1      -4.791   3.730 125.359  0.00  0.00    +0.000 OA
BRANCH  17  19
ATOM     19  O   UNL     1      -3.921   1.871 126.275  0.00  0.00    +0.000 OA
ATOM     20  H   UNL     1      -3.370   1.589 127.021  0.00  0.00    +0.000 HD
ENDBRANCH  17  19
ENDBRANCH  14  17
ENDBRANCH   4   7
BRANCH   2  21
ATOM     21  C   UNL     1      -0.595  10.797 133.419  0.00  0.00    +0.000 C 
ATOM     22  C   UNL     1      -1.497  11.283 132.246  0.00  0.00    +0.000 C 
ATOM     23  C   UNL     1      -1.239  12.754 131.920  0.00  0.00    +0.000 C 
ATOM     24  C   UNL     1      -1.567  13.604 133.151  0.00  0.00    +0.000 C 
ATOM     25  C   UNL     1      -0.668  13.192 134.324  0.00  0.00    +0.000 C 
ATOM     26  C   UNL     1       0.807  13.367 133.946  0.00  0.00    +0.000 C 
ATOM     27  C   UNL     1       1.142  12.504 132.722  0.00  0.00    +0.000 C 
ATOM     28  C   UNL     1       0.241  12.925 131.547  0.00  0.00    +0.000 C 
ATOM     29  C   UNL     1       0.892  11.021 133.053  0.00  0.00    +0.000 C 
ATOM     30  C   UNL     1      -0.916  11.719 134.641  0.00  0.00    +0.000 C 
ENDBRANCH   2  21
BRANCH   1  32
ATOM     31  C   UNL     1       1.336   8.898 136.365  0.00  0.00    +0.000 C 
ATOM     32  O   UNL     1       0.092   9.340 135.836  0.00  0.00    +0.000 OA
ENDBRANCH   1  32
TORSDOF 5
ENDMDL
