MODEL 1
REMARK VINA RESULT:      -7.5      0.000      0.000
REMARK  Name = Adefovir dipivoxil
REMARK  22 active torsions:
REMARK  status: ('A' for Active; 'I' for Inactive)
REMARK    1  A    between atoms: C_1  and  C_2
REMARK    2  A    between atoms: C_2  and  C_3
REMARK    3  A    between atoms: C_2  and  C_4
REMARK    4  A    between atoms: C_2  and  C_5
REMARK    5  A    between atoms: C_5  and  O_7
REMARK    6  A    between atoms: O_7  and  C_8
REMARK    7  A    between atoms: C_8  and  O_9
REMARK    8  A    between atoms: O_9  and  P_10
REMARK    9  A    between atoms: P_10  and  C_12
REMARK   10  A    between atoms: P_10  and  O_26
REMARK   11  A    between atoms: C_12  and  O_13
REMARK   12  A    between atoms: O_13  and  C_14
REMARK   13  A    between atoms: C_14  and  C_15
REMARK   14  A    between atoms: C_15  and  N_16
REMARK   15  A    between atoms: C_20  and  N_21
REMARK   16  A    between atoms: O_26  and  C_27
REMARK   17  A    between atoms: C_27  and  O_28
REMARK   18  A    between atoms: O_28  and  C_29
REMARK   19  A    between atoms: C_29  and  C_31
REMARK   20  A    between atoms: C_31  and  C_32
REMARK   21  A    between atoms: C_31  and  C_33
REMARK   22  A    between atoms: C_31  and  C_34
REMARK                            x       y       z     vdW  Elec       q    Type
REMARK                         _______ _______ _______ _____ _____    ______ ____
ROOT
ATOM      1  P   UNL     1      -7.536   2.134 126.987  0.00  0.00    +0.000 P 
ATOM      2  O   UNL     1      -6.627   0.951 127.114  0.00  0.00    +0.000 OA
ENDROOT
BRANCH   1   3
ATOM      3  C   UNL     1      -7.997   2.977 128.506  0.00  0.00    +0.000 C 
BRANCH   3   4
ATOM      4  O   UNL     1      -9.339   2.724 128.861  0.00  0.00    +0.000 OA
BRANCH   4   5
ATOM      5  C   UNL     1      -9.513   3.284 130.145  0.00  0.00    +0.000 C 
BRANCH   5   6
ATOM      6  C   UNL     1      -8.881   4.647 130.162  0.00  0.00    +0.000 C 
BRANCH   6   7
ATOM      7  N   UNL     1      -9.870   5.687 130.281  0.00  0.00    +0.000 N 
ATOM      8  C   UNL     1     -10.547   6.054 131.416  0.00  0.00    +0.000 A 
ATOM      9  N   UNL     1     -11.388   7.035 131.196  0.00  0.00    +0.000 NA
ATOM     10  C   UNL     1     -11.241   7.314 129.856  0.00  0.00    +0.000 A 
ATOM     11  C   UNL     1     -11.870   8.253 129.033  0.00  0.00    +0.000 A 
ATOM     12  N   UNL     1     -11.520   8.303 127.728  0.00  0.00    +0.000 NA
ATOM     13  C   UNL     1     -10.576   7.438 127.288  0.00  0.00    +0.000 A 
ATOM     14  N   UNL     1      -9.906   6.494 127.982  0.00  0.00    +0.000 NA
ATOM     15  C   UNL     1     -10.297   6.492 129.265  0.00  0.00    +0.000 A 
BRANCH  11  16
ATOM     16  N   UNL     1     -12.828   9.113 129.515  0.00  0.00    +0.000 N 
ATOM     17  H   UNL     1     -12.749   9.430 130.472  0.00  0.00    +0.000 HD
ATOM     18  H   UNL     1     -13.575   9.401 128.908  0.00  0.00    +0.000 HD
ENDBRANCH  11  16
ENDBRANCH   6   7
ENDBRANCH   5   6
ENDBRANCH   4   5
ENDBRANCH   3   4
ENDBRANCH   1   3
BRANCH   1  19
ATOM     19  O   UNL     1      -6.957   3.471 126.300  0.00  0.00    +0.000 OA
BRANCH  19  20
ATOM     20  C   UNL     1      -6.091   3.659 125.197  0.00  0.00    +0.000 C 
BRANCH  20  21
ATOM     21  O   UNL     1      -4.636   3.719 125.420  0.00  0.00    +0.000 OA
BRANCH  21  22
ATOM     22  C   UNL     1      -4.323   4.458 126.544  0.00  0.00    +0.000 C 
ATOM     23  O   UNL     1      -4.915   5.512 126.815  0.00  0.00    +0.000 OA
BRANCH  22  25
ATOM     24  C   UNL     1      -2.536   5.102 128.224  0.00  0.00    +0.000 C 
ATOM     25  C   UNL     1      -3.195   3.914 127.466  0.00  0.00    +0.000 C 
ATOM     26  C   UNL     1      -2.092   3.223 126.659  0.00  0.00    +0.000 C 
ATOM     27  C   UNL     1      -3.744   2.951 128.523  0.00  0.00    +0.000 C 
ENDBRANCH  22  25
ENDBRANCH  21  22
ENDBRANCH  20  21
ENDBRANCH  19  20
ENDBRANCH   1  19
BRANCH   1  28
ATOM     28  O   UNL     1      -9.098   1.697 126.603  0.00  0.00    +0.000 OA
BRANCH  28  29
ATOM     29  C   UNL     1      -9.088   0.890 125.359  0.00  0.00    +0.000 C 
BRANCH  29  30
ATOM     30  O   UNL     1      -9.514  -0.483 125.317  0.00  0.00    +0.000 OA
BRANCH  30  31
ATOM     31  C   UNL     1      -8.726  -1.206 124.427  0.00  0.00    +0.000 C 
ATOM     32  O   UNL     1      -7.987  -0.672 123.582  0.00  0.00    +0.000 OA
BRANCH  31  33
ATOM     33  C   UNL     1      -8.818  -2.725 124.600  0.00  0.00    +0.000 C 
ATOM     34  C   UNL     1      -9.500  -3.045 125.932  0.00  0.00    +0.000 C 
ATOM     35  C   UNL     1      -9.614  -3.309 123.432  0.00  0.00    +0.000 C 
ATOM     36  C   UNL     1      -7.419  -3.389 124.609  0.00  0.00    +0.000 C 
ENDBRANCH  31  33
ENDBRANCH  30  31
ENDBRANCH  29  30
ENDBRANCH  28  29
ENDBRANCH   1  28
TORSDOF 16
ENDMDL
MODEL 2
REMARK VINA RESULT:      -7.2      1.879      3.007
REMARK  Name = Adefovir dipivoxil
REMARK  22 active torsions:
REMARK  status: ('A' for Active; 'I' for Inactive)
REMARK    1  A    between atoms: C_1  and  C_2
REMARK    2  A    between atoms: C_2  and  C_3
REMARK    3  A    between atoms: C_2  and  C_4
REMARK    4  A    between atoms: C_2  and  C_5
REMARK    5  A    between atoms: C_5  and  O_7
REMARK    6  A    between atoms: O_7  and  C_8
REMARK    7  A    between atoms: C_8  and  O_9
REMARK    8  A    between atoms: O_9  and  P_10
REMARK    9  A    between atoms: P_10  and  C_12
REMARK   10  A    between atoms: P_10  and  O_26
REMARK   11  A    between atoms: C_12  and  O_13
REMARK   12  A    between atoms: O_13  and  C_14
REMARK   13  A    between atoms: C_14  and  C_15
REMARK   14  A    between atoms: C_15  and  N_16
REMARK   15  A    between atoms: C_20  and  N_21
REMARK   16  A    between atoms: O_26  and  C_27
REMARK   17  A    between atoms: C_27  and  O_28
REMARK   18  A    between atoms: O_28  and  C_29
REMARK   19  A    between atoms: C_29  and  C_31
REMARK   20  A    between atoms: C_31  and  C_32
REMARK   21  A    between atoms: C_31  and  C_33
REMARK   22  A    between atoms: C_31  and  C_34
REMARK                            x       y       z     vdW  Elec       q    Type
REMARK                         _______ _______ _______ _____ _____    ______ ____
ROOT
ATOM      1  P   UNL     1      -7.595   1.837 126.953  0.00  0.00    +0.000 P 
ATOM      2  O   UNL     1      -7.017   0.540 127.427  0.00  0.00    +0.000 OA
ENDROOT
BRANCH   1   3
ATOM      3  C   UNL     1      -8.071   3.029 128.212  0.00  0.00    +0.000 C 
BRANCH   3   4
ATOM      4  O   UNL     1      -9.223   2.618 128.914  0.00  0.00    +0.000 OA
BRANCH   4   5
ATOM      5  C   UNL     1      -9.320   3.473 130.034  0.00  0.00    +0.000 C 
BRANCH   5   6
ATOM      6  C   UNL     1      -8.667   4.782 129.693  0.00  0.00    +0.000 C 
BRANCH   6   7
ATOM      7  N   UNL     1      -9.600   5.876 129.776  0.00  0.00    +0.000 N 
ATOM      8  C   UNL     1     -10.142   6.413 130.915  0.00  0.00    +0.000 A 
ATOM      9  N   UNL     1     -10.965   7.399 130.655  0.00  0.00    +0.000 NA
ATOM     10  C   UNL     1     -10.948   7.504 129.284  0.00  0.00    +0.000 A 
ATOM     11  C   UNL     1     -11.626   8.363 128.412  0.00  0.00    +0.000 A 
ATOM     12  N   UNL     1     -11.411   8.233 127.084  0.00  0.00    +0.000 NA
ATOM     13  C   UNL     1     -10.550   7.276 126.667  0.00  0.00    +0.000 A 
ATOM     14  N   UNL     1      -9.846   6.393 127.407  0.00  0.00    +0.000 NA
ATOM     15  C   UNL     1     -10.101   6.569 128.712  0.00  0.00    +0.000 A 
BRANCH  11  16
ATOM     16  N   UNL     1     -12.497   9.322 128.873  0.00  0.00    +0.000 N 
ATOM     17  H   UNL     1     -13.433   9.037 129.125  0.00  0.00    +0.000 HD
ATOM     18  H   UNL     1     -12.179  10.272 128.947  0.00  0.00    +0.000 HD
ENDBRANCH  11  16
ENDBRANCH   6   7
ENDBRANCH   5   6
ENDBRANCH   4   5
ENDBRANCH   3   4
ENDBRANCH   1   3
BRANCH   1  19
ATOM     19  O   UNL     1      -6.624   2.874 126.193  0.00  0.00    +0.000 OA
BRANCH  19  20
ATOM     20  C   UNL     1      -5.903   2.767 124.981  0.00  0.00    +0.000 C 
BRANCH  20  21
ATOM     21  O   UNL     1      -6.617   2.901 123.698  0.00  0.00    +0.000 OA
BRANCH  21  22
ATOM     22  C   UNL     1      -6.066   3.892 122.911  0.00  0.00    +0.000 C 
ATOM     23  O   UNL     1      -5.542   4.901 123.406  0.00  0.00    +0.000 OA
BRANCH  22  25
ATOM     24  C   UNL     1      -5.264   4.794 120.680  0.00  0.00    +0.000 C 
ATOM     25  C   UNL     1      -6.124   3.696 121.370  0.00  0.00    +0.000 C 
ATOM     26  C   UNL     1      -7.553   3.840 120.837  0.00  0.00    +0.000 C 
ATOM     27  C   UNL     1      -5.548   2.341 120.950  0.00  0.00    +0.000 C 
ENDBRANCH  22  25
ENDBRANCH  21  22
ENDBRANCH  20  21
ENDBRANCH  19  20
ENDBRANCH   1  19
BRANCH   1  28
ATOM     28  O   UNL     1      -9.140   1.662 126.351  0.00  0.00    +0.000 OA
BRANCH  28  29
ATOM     29  C   UNL     1      -9.152   0.571 125.348  0.00  0.00    +0.000 C 
BRANCH  29  30
ATOM     30  O   UNL     1      -9.601  -0.762 125.651  0.00  0.00    +0.000 OA
BRANCH  30  31
ATOM     31  C   UNL     1      -9.051  -1.672 124.754  0.00  0.00    +0.000 C 
ATOM     32  O   UNL     1      -9.345  -1.703 123.547  0.00  0.00    +0.000 OA
BRANCH  31  33
ATOM     33  C   UNL     1      -8.017  -2.618 125.375  0.00  0.00    +0.000 C 
ATOM     34  C   UNL     1      -8.173  -4.012 124.765  0.00  0.00    +0.000 C 
ATOM     35  C   UNL     1      -6.617  -2.065 125.109  0.00  0.00    +0.000 C 
ATOM     36  C   UNL     1      -8.202  -2.744 126.907  0.00  0.00    +0.000 C 
ENDBRANCH  31  33
ENDBRANCH  30  31
ENDBRANCH  29  30
ENDBRANCH  28  29
ENDBRANCH   1  28
TORSDOF 16
ENDMDL
MODEL 3
REMARK VINA RESULT:      -7.2      4.144      9.296
REMARK  Name = Adefovir dipivoxil
REMARK  22 active torsions:
REMARK  status: ('A' for Active; 'I' for Inactive)
REMARK    1  A    between atoms: C_1  and  C_2
REMARK    2  A    between atoms: C_2  and  C_3
REMARK    3  A    between atoms: C_2  and  C_4
REMARK    4  A    between atoms: C_2  and  C_5
REMARK    5  A    between atoms: C_5  and  O_7
REMARK    6  A    between atoms: O_7  and  C_8
REMARK    7  A    between atoms: C_8  and  O_9
REMARK    8  A    between atoms: O_9  and  P_10
REMARK    9  A    between atoms: P_10  and  C_12
REMARK   10  A    between atoms: P_10  and  O_26
REMARK   11  A    between atoms: C_12  and  O_13
REMARK   12  A    between atoms: O_13  and  C_14
REMARK   13  A    between atoms: C_14  and  C_15
REMARK   14  A    between atoms: C_15  and  N_16
REMARK   15  A    between atoms: C_20  and  N_21
REMARK   16  A    between atoms: O_26  and  C_27
REMARK   17  A    between atoms: C_27  and  O_28
REMARK   18  A    between atoms: O_28  and  C_29
REMARK   19  A    between atoms: C_29  and  C_31
REMARK   20  A    between atoms: C_31  and  C_32
REMARK   21  A    between atoms: C_31  and  C_33
REMARK   22  A    between atoms: C_31  and  C_34
REMARK                            x       y       z     vdW  Elec       q    Type
REMARK                         _______ _______ _______ _____ _____    ______ ____
ROOT
ATOM      1  P   UNL     1      -7.897   3.650 128.229  0.00  0.00    +0.000 P 
ATOM      2  O   UNL     1      -8.883   2.550 128.476  0.00  0.00    +0.000 OA
ENDROOT
BRANCH   1   3
ATOM      3  C   UNL     1      -7.555   4.071 126.516  0.00  0.00    +0.000 C 
BRANCH   3   4
ATOM      4  O   UNL     1      -7.467   2.923 125.700  0.00  0.00    +0.000 OA
BRANCH   4   5
ATOM      5  C   UNL     1      -8.344   3.149 124.617  0.00  0.00    +0.000 C 
BRANCH   5   6
ATOM      6  C   UNL     1      -7.857   2.360 123.435  0.00  0.00    +0.000 C 
BRANCH   6   7
ATOM      7  N   UNL     1      -8.565   1.113 123.303  0.00  0.00    +0.000 N 
ATOM      8  C   UNL     1      -9.856   0.940 122.874  0.00  0.00    +0.000 A 
ATOM      9  N   UNL     1     -10.212  -0.322 122.871  0.00  0.00    +0.000 NA
ATOM     10  C   UNL     1      -9.094  -0.991 123.314  0.00  0.00    +0.000 A 
ATOM     11  C   UNL     1      -8.856  -2.352 123.531  0.00  0.00    +0.000 A 
ATOM     12  N   UNL     1      -7.639  -2.729 123.981  0.00  0.00    +0.000 NA
ATOM     13  C   UNL     1      -6.713  -1.767 124.198  0.00  0.00    +0.000 A 
ATOM     14  N   UNL     1      -6.827  -0.432 124.030  0.00  0.00    +0.000 NA
ATOM     15  C   UNL     1      -8.053  -0.120 123.585  0.00  0.00    +0.000 A 
BRANCH  11  16
ATOM     16  N   UNL     1      -9.824  -3.302 123.302  0.00  0.00    +0.000 N 
ATOM     17  H   UNL     1     -10.352  -3.250 122.442  0.00  0.00    +0.000 HD
ATOM     18  H   UNL     1      -9.977  -4.016 123.992  0.00  0.00    +0.000 HD
ENDBRANCH  11  16
ENDBRANCH   6   7
ENDBRANCH   5   6
ENDBRANCH   4   5
ENDBRANCH   3   4
ENDBRANCH   1   3
BRANCH   1  19
ATOM     19  O   UNL     1      -8.317   5.155 128.622  0.00  0.00    +0.000 OA
BRANCH  19  20
ATOM     20  C   UNL     1      -9.254   5.652 129.559  0.00  0.00    +0.000 C 
BRANCH  20  21
ATOM     21  O   UNL     1     -10.662   5.819 129.158  0.00  0.00    +0.000 OA
BRANCH  21  22
ATOM     22  C   UNL     1     -10.973   7.145 128.931  0.00  0.00    +0.000 C 
ATOM     23  O   UNL     1     -10.141   7.938 128.466  0.00  0.00    +0.000 OA
BRANCH  22  25
ATOM     24  C   UNL     1     -13.427   6.890 128.345  0.00  0.00    +0.000 C 
ATOM     25  C   UNL     1     -12.414   7.611 129.280  0.00  0.00    +0.000 C 
ATOM     26  C   UNL     1     -12.588   9.117 129.061  0.00  0.00    +0.000 C 
ATOM     27  C   UNL     1     -12.792   7.250 130.720  0.00  0.00    +0.000 C 
ENDBRANCH  22  25
ENDBRANCH  21  22
ENDBRANCH  20  21
ENDBRANCH  19  20
ENDBRANCH   1  19
BRANCH   1  28
ATOM     28  O   UNL     1      -6.331   3.186 128.563  0.00  0.00    +0.000 OA
BRANCH  28  29
ATOM     29  C   UNL     1      -5.406   4.283 128.190  0.00  0.00    +0.000 C 
BRANCH  29  30
ATOM     30  O   UNL     1      -4.311   4.697 129.026  0.00  0.00    +0.000 OA
BRANCH  30  31
ATOM     31  C   UNL     1      -4.570   5.947 129.578  0.00  0.00    +0.000 C 
ATOM     32  O   UNL     1      -5.675   6.269 130.047  0.00  0.00    +0.000 OA
BRANCH  31  33
ATOM     33  C   UNL     1      -3.361   6.889 129.593  0.00  0.00    +0.000 C 
ATOM     34  C   UNL     1      -2.684   6.867 128.221  0.00  0.00    +0.000 C 
ATOM     35  C   UNL     1      -3.838   8.300 129.938  0.00  0.00    +0.000 C 
ATOM     36  C   UNL     1      -2.313   6.462 130.649  0.00  0.00    +0.000 C 
ENDBRANCH  31  33
ENDBRANCH  30  31
ENDBRANCH  29  30
ENDBRANCH  28  29
ENDBRANCH   1  28
TORSDOF 16
ENDMDL
MODEL 4
REMARK VINA RESULT:      -7.2      2.285      2.937
REMARK  Name = Adefovir dipivoxil
REMARK  22 active torsions:
REMARK  status: ('A' for Active; 'I' for Inactive)
REMARK    1  A    between atoms: C_1  and  C_2
REMARK    2  A    between atoms: C_2  and  C_3
REMARK    3  A    between atoms: C_2  and  C_4
REMARK    4  A    between atoms: C_2  and  C_5
REMARK    5  A    between atoms: C_5  and  O_7
REMARK    6  A    between atoms: O_7  and  C_8
REMARK    7  A    between atoms: C_8  and  O_9
REMARK    8  A    between atoms: O_9  and  P_10
REMARK    9  A    between atoms: P_10  and  C_12
REMARK   10  A    between atoms: P_10  and  O_26
REMARK   11  A    between atoms: C_12  and  O_13
REMARK   12  A    between atoms: O_13  and  C_14
REMARK   13  A    between atoms: C_14  and  C_15
REMARK   14  A    between atoms: C_15  and  N_16
REMARK   15  A    between atoms: C_20  and  N_21
REMARK   16  A    between atoms: O_26  and  C_27
REMARK   17  A    between atoms: C_27  and  O_28
REMARK   18  A    between atoms: O_28  and  C_29
REMARK   19  A    between atoms: C_29  and  C_31
REMARK   20  A    between atoms: C_31  and  C_32
REMARK   21  A    between atoms: C_31  and  C_33
REMARK   22  A    between atoms: C_31  and  C_34
REMARK                            x       y       z     vdW  Elec       q    Type
REMARK                         _______ _______ _______ _____ _____    ______ ____
ROOT
ATOM      1  P   UNL     1      -7.941   1.533 129.362  0.00  0.00    +0.000 P 
ATOM      2  O   UNL     1      -8.025   0.068 129.661  0.00  0.00    +0.000 OA
ENDROOT
BRANCH   1   3
ATOM      3  C   UNL     1      -8.561   2.661 130.616  0.00  0.00    +0.000 C 
BRANCH   3   4
ATOM      4  O   UNL     1      -8.202   3.998 130.344  0.00  0.00    +0.000 OA
BRANCH   4   5
ATOM      5  C   UNL     1      -9.030   4.796 131.163  0.00  0.00    +0.000 C 
BRANCH   5   6
ATOM      6  C   UNL     1     -10.459   4.574 130.757  0.00  0.00    +0.000 C 
BRANCH   6   7
ATOM      7  N   UNL     1     -11.150   5.820 130.548  0.00  0.00    +0.000 N 
ATOM      8  C   UNL     1     -11.985   6.458 131.429  0.00  0.00    +0.000 A 
ATOM      9  N   UNL     1     -12.463   7.575 130.938  0.00  0.00    +0.000 NA
ATOM     10  C   UNL     1     -11.905   7.661 129.683  0.00  0.00    +0.000 A 
ATOM     11  C   UNL     1     -12.039   8.621 128.675  0.00  0.00    +0.000 A 
ATOM     12  N   UNL     1     -11.359   8.442 127.521  0.00  0.00    +0.000 NA
ATOM     13  C   UNL     1     -10.583   7.340 127.402  0.00  0.00    +0.000 A 
ATOM     14  N   UNL     1     -10.379   6.350 128.298  0.00  0.00    +0.000 NA
ATOM     15  C   UNL     1     -11.078   6.583 129.419  0.00  0.00    +0.000 A 
BRANCH  11  16
ATOM     16  N   UNL     1     -12.841   9.727 128.830  0.00  0.00    +0.000 N 
ATOM     17  H   UNL     1     -12.701  10.311 129.644  0.00  0.00    +0.000 HD
ATOM     18  H   UNL     1     -13.540   9.924 128.135  0.00  0.00    +0.000 HD
ENDBRANCH  11  16
ENDBRANCH   6   7
ENDBRANCH   5   6
ENDBRANCH   4   5
ENDBRANCH   3   4
ENDBRANCH   1   3
BRANCH   1  19
ATOM     19  O   UNL     1      -6.485   2.221 129.318  0.00  0.00    +0.000 OA
BRANCH  19  20
ATOM     20  C   UNL     1      -5.203   1.725 129.655  0.00  0.00    +0.000 C 
BRANCH  20  21
ATOM     21  O   UNL     1      -4.072   1.956 128.739  0.00  0.00    +0.000 OA
BRANCH  21  22
ATOM     22  C   UNL     1      -3.578   3.240 128.853  0.00  0.00    +0.000 C 
ATOM     23  O   UNL     1      -3.553   3.832 129.942  0.00  0.00    +0.000 OA
BRANCH  22  25
ATOM     24  C   UNL     1      -2.516   5.340 127.909  0.00  0.00    +0.000 C 
ATOM     25  C   UNL     1      -3.048   3.920 127.560  0.00  0.00    +0.000 C 
ATOM     26  C   UNL     1      -4.159   4.096 126.520  0.00  0.00    +0.000 C 
ATOM     27  C   UNL     1      -1.883   3.138 126.946  0.00  0.00    +0.000 C 
ENDBRANCH  22  25
ENDBRANCH  21  22
ENDBRANCH  20  21
ENDBRANCH  19  20
ENDBRANCH   1  19
BRANCH   1  28
ATOM     28  O   UNL     1      -9.042   2.009 128.204  0.00  0.00    +0.000 OA
BRANCH  28  29
ATOM     29  C   UNL     1      -8.512   1.676 126.860  0.00  0.00    +0.000 C 
BRANCH  29  30
ATOM     30  O   UNL     1      -9.353   1.555 125.699  0.00  0.00    +0.000 OA
BRANCH  30  31
ATOM     31  C   UNL     1      -8.976   2.482 124.732  0.00  0.00    +0.000 C 
ATOM     32  O   UNL     1      -8.817   3.691 124.972  0.00  0.00    +0.000 OA
BRANCH  31  33
ATOM     33  C   UNL     1      -8.740   1.878 123.344  0.00  0.00    +0.000 C 
ATOM     34  C   UNL     1      -8.564   3.005 122.323  0.00  0.00    +0.000 C 
ATOM     35  C   UNL     1      -7.492   0.995 123.394  0.00  0.00    +0.000 C 
ATOM     36  C   UNL     1      -9.932   1.003 122.887  0.00  0.00    +0.000 C 
ENDBRANCH  31  33
ENDBRANCH  30  31
ENDBRANCH  29  30
ENDBRANCH  28  29
ENDBRANCH   1  28
TORSDOF 16
ENDMDL
MODEL 5
REMARK VINA RESULT:      -7.2      3.971      8.395
REMARK  Name = Adefovir dipivoxil
REMARK  22 active torsions:
REMARK  status: ('A' for Active; 'I' for Inactive)
REMARK    1  A    between atoms: C_1  and  C_2
REMARK    2  A    between atoms: C_2  and  C_3
REMARK    3  A    between atoms: C_2  and  C_4
REMARK    4  A    between atoms: C_2  and  C_5
REMARK    5  A    between atoms: C_5  and  O_7
REMARK    6  A    between atoms: O_7  and  C_8
REMARK    7  A    between atoms: C_8  and  O_9
REMARK    8  A    between atoms: O_9  and  P_10
REMARK    9  A    between atoms: P_10  and  C_12
REMARK   10  A    between atoms: P_10  and  O_26
REMARK   11  A    between atoms: C_12  and  O_13
REMARK   12  A    between atoms: O_13  and  C_14
REMARK   13  A    between atoms: C_14  and  C_15
REMARK   14  A    between atoms: C_15  and  N_16
REMARK   15  A    between atoms: C_20  and  N_21
REMARK   16  A    between atoms: O_26  and  C_27
REMARK   17  A    between atoms: C_27  and  O_28
REMARK   18  A    between atoms: O_28  and  C_29
REMARK   19  A    between atoms: C_29  and  C_31
REMARK   20  A    between atoms: C_31  and  C_32
REMARK   21  A    between atoms: C_31  and  C_33
REMARK   22  A    between atoms: C_31  and  C_34
REMARK                            x       y       z     vdW  Elec       q    Type
REMARK                         _______ _______ _______ _____ _____    ______ ____
ROOT
ATOM      1  P   UNL     1      -8.688   4.493 129.898  0.00  0.00    +0.000 P 
ATOM      2  O   UNL     1      -8.148   5.114 131.149  0.00  0.00    +0.000 OA
ENDROOT
BRANCH   1   3
ATOM      3  C   UNL     1      -8.473   2.719 129.707  0.00  0.00    +0.000 C 
BRANCH   3   4
ATOM      4  O   UNL     1      -8.980   2.258 128.474  0.00  0.00    +0.000 OA
BRANCH   4   5
ATOM      5  C   UNL     1      -8.296   1.053 128.200  0.00  0.00    +0.000 C 
BRANCH   5   6
ATOM      6  C   UNL     1      -8.499   0.707 126.752  0.00  0.00    +0.000 C 
BRANCH   6   7
ATOM      7  N   UNL     1      -7.680   1.522 125.894  0.00  0.00    +0.000 N 
ATOM      8  C   UNL     1      -6.414   1.980 126.155  0.00  0.00    +0.000 A 
ATOM      9  N   UNL     1      -5.936   2.705 125.173  0.00  0.00    +0.000 NA
ATOM     10  C   UNL     1      -6.943   2.710 124.234  0.00  0.00    +0.000 A 
ATOM     11  C   UNL     1      -7.033   3.318 122.978  0.00  0.00    +0.000 A 
ATOM     12  N   UNL     1      -8.166   3.149 122.261  0.00  0.00    +0.000 NA
ATOM     13  C   UNL     1      -9.156   2.399 122.799  0.00  0.00    +0.000 A 
ATOM     14  N   UNL     1      -9.185   1.771 123.994  0.00  0.00    +0.000 NA
ATOM     15  C   UNL     1      -8.037   1.975 124.657  0.00  0.00    +0.000 A 
BRANCH  11  16
ATOM     16  N   UNL     1      -6.007   4.077 122.465  0.00  0.00    +0.000 N 
ATOM     17  H   UNL     1      -6.241   4.862 121.874  0.00  0.00    +0.000 HD
ATOM     18  H   UNL     1      -5.059   3.830 122.692  0.00  0.00    +0.000 HD
ENDBRANCH  11  16
ENDBRANCH   6   7
ENDBRANCH   5   6
ENDBRANCH   4   5
ENDBRANCH   3   4
ENDBRANCH   1   3
BRANCH   1  19
ATOM     19  O   UNL     1     -10.286   4.423 129.707  0.00  0.00    +0.000 OA
BRANCH  19  20
ATOM     20  C   UNL     1     -11.334   5.163 130.303  0.00  0.00    +0.000 C 
BRANCH  20  21
ATOM     21  O   UNL     1     -11.124   6.585 130.629  0.00  0.00    +0.000 OA
BRANCH  21  22
ATOM     22  C   UNL     1     -12.296   7.308 130.534  0.00  0.00    +0.000 C 
ATOM     23  O   UNL     1     -13.183   7.225 131.396  0.00  0.00    +0.000 OA
BRANCH  22  25
ATOM     24  C   UNL     1     -13.493   7.606 128.318  0.00  0.00    +0.000 C 
ATOM     25  C   UNL     1     -12.465   8.238 129.300  0.00  0.00    +0.000 C 
ATOM     26  C   UNL     1     -11.148   8.402 128.534  0.00  0.00    +0.000 C 
ATOM     27  C   UNL     1     -13.007   9.614 129.698  0.00  0.00    +0.000 C 
ENDBRANCH  22  25
ENDBRANCH  21  22
ENDBRANCH  20  21
ENDBRANCH  19  20
ENDBRANCH   1  19
BRANCH   1  28
ATOM     28  O   UNL     1      -7.778   4.878 128.555  0.00  0.00    +0.000 OA
BRANCH  28  29
ATOM     29  C   UNL     1      -6.387   4.405 128.755  0.00  0.00    +0.000 C 
BRANCH  29  30
ATOM     30  O   UNL     1      -5.255   5.020 128.114  0.00  0.00    +0.000 OA
BRANCH  30  31
ATOM     31  C   UNL     1      -4.550   5.801 129.024  0.00  0.00    +0.000 C 
ATOM     32  O   UNL     1      -5.096   6.597 129.805  0.00  0.00    +0.000 OA
BRANCH  31  33
ATOM     33  C   UNL     1      -3.036   5.569 129.007  0.00  0.00    +0.000 C 
ATOM     34  C   UNL     1      -2.521   5.467 130.444  0.00  0.00    +0.000 C 
ATOM     35  C   UNL     1      -2.740   4.284 128.234  0.00  0.00    +0.000 C 
ATOM     36  C   UNL     1      -2.285   6.732 128.313  0.00  0.00    +0.000 C 
ENDBRANCH  31  33
ENDBRANCH  30  31
ENDBRANCH  29  30
ENDBRANCH  28  29
ENDBRANCH   1  28
TORSDOF 16
ENDMDL
MODEL 6
REMARK VINA RESULT:      -7.2      4.100      7.792
REMARK  Name = Adefovir dipivoxil
REMARK  22 active torsions:
REMARK  status: ('A' for Active; 'I' for Inactive)
REMARK    1  A    between atoms: C_1  and  C_2
REMARK    2  A    between atoms: C_2  and  C_3
REMARK    3  A    between atoms: C_2  and  C_4
REMARK    4  A    between atoms: C_2  and  C_5
REMARK    5  A    between atoms: C_5  and  O_7
REMARK    6  A    between atoms: O_7  and  C_8
REMARK    7  A    between atoms: C_8  and  O_9
REMARK    8  A    between atoms: O_9  and  P_10
REMARK    9  A    between atoms: P_10  and  C_12
REMARK   10  A    between atoms: P_10  and  O_26
REMARK   11  A    between atoms: C_12  and  O_13
REMARK   12  A    between atoms: O_13  and  C_14
REMARK   13  A    between atoms: C_14  and  C_15
REMARK   14  A    between atoms: C_15  and  N_16
REMARK   15  A    between atoms: C_20  and  N_21
REMARK   16  A    between atoms: O_26  and  C_27
REMARK   17  A    between atoms: C_27  and  O_28
REMARK   18  A    between atoms: O_28  and  C_29
REMARK   19  A    between atoms: C_29  and  C_31
REMARK   20  A    between atoms: C_31  and  C_32
REMARK   21  A    between atoms: C_31  and  C_33
REMARK   22  A    between atoms: C_31  and  C_34
REMARK                            x       y       z     vdW  Elec       q    Type
REMARK                         _______ _______ _______ _____ _____    ______ ____
ROOT
ATOM      1  P   UNL     1      -8.591   6.503 131.296  0.00  0.00    +0.000 P 
ATOM      2  O   UNL     1      -8.680   7.504 130.185  0.00  0.00    +0.000 OA
ENDROOT
BRANCH   1   3
ATOM      3  C   UNL     1      -8.879   4.781 130.870  0.00  0.00    +0.000 C 
BRANCH   3   4
ATOM      4  O   UNL     1      -8.791   4.563 129.479  0.00  0.00    +0.000 OA
BRANCH   4   5
ATOM      5  C   UNL     1      -8.518   3.186 129.319  0.00  0.00    +0.000 C 
BRANCH   5   6
ATOM      6  C   UNL     1      -7.781   2.992 128.025  0.00  0.00    +0.000 C 
BRANCH   6   7
ATOM      7  N   UNL     1      -7.954   1.656 127.514  0.00  0.00    +0.000 N 
ATOM      8  C   UNL     1      -7.520   0.491 128.092  0.00  0.00    +0.000 A 
ATOM      9  N   UNL     1      -7.829  -0.562 127.375  0.00  0.00    +0.000 NA
ATOM     10  C   UNL     1      -8.496  -0.049 126.287  0.00  0.00    +0.000 A 
ATOM     11  C   UNL     1      -9.063  -0.673 125.171  0.00  0.00    +0.000 A 
ATOM     12  N   UNL     1      -9.666   0.099 124.239  0.00  0.00    +0.000 NA
ATOM     13  C   UNL     1      -9.689   1.437 124.437  0.00  0.00    +0.000 A 
ATOM     14  N   UNL     1      -9.177   2.148 125.465  0.00  0.00    +0.000 NA
ATOM     15  C   UNL     1      -8.592   1.330 126.353  0.00  0.00    +0.000 A 
BRANCH  11  16
ATOM     16  N   UNL     1      -9.017  -2.037 125.002  0.00  0.00    +0.000 N 
ATOM     17  H   UNL     1      -9.602  -2.452 124.291  0.00  0.00    +0.000 HD
ATOM     18  H   UNL     1      -8.406  -2.579 125.588  0.00  0.00    +0.000 HD
ENDBRANCH  11  16
ENDBRANCH   6   7
ENDBRANCH   5   6
ENDBRANCH   4   5
ENDBRANCH   3   4
ENDBRANCH   1   3
BRANCH   1  19
ATOM     19  O   UNL     1      -7.147   6.208 131.945  0.00  0.00    +0.000 OA
BRANCH  19  20
ATOM     20  C   UNL     1      -5.842   6.561 131.527  0.00  0.00    +0.000 C 
BRANCH  20  21
ATOM     21  O   UNL     1      -5.633   7.089 130.168  0.00  0.00    +0.000 OA
BRANCH  21  22
ATOM     22  C   UNL     1      -4.302   7.370 129.929  0.00  0.00    +0.000 C 
ATOM     23  O   UNL     1      -3.799   8.456 130.253  0.00  0.00    +0.000 OA
BRANCH  22  25
ATOM     24  C   UNL     1      -2.633   5.501 130.317  0.00  0.00    +0.000 C 
ATOM     25  C   UNL     1      -3.452   6.268 129.239  0.00  0.00    +0.000 C 
ATOM     26  C   UNL     1      -2.448   6.867 128.249  0.00  0.00    +0.000 C 
ATOM     27  C   UNL     1      -4.332   5.239 128.524  0.00  0.00    +0.000 C 
ENDBRANCH  22  25
ENDBRANCH  21  22
ENDBRANCH  20  21
ENDBRANCH  19  20
ENDBRANCH   1  19
BRANCH   1  28
ATOM     28  O   UNL     1      -9.889   6.596 132.339  0.00  0.00    +0.000 OA
BRANCH  28  29
ATOM     29  C   UNL     1     -11.125   6.215 131.616  0.00  0.00    +0.000 C 
BRANCH  29  30
ATOM     30  O   UNL     1     -11.951   7.171 130.927  0.00  0.00    +0.000 OA
BRANCH  30  31
ATOM     31  C   UNL     1     -12.141   6.781 129.606  0.00  0.00    +0.000 C 
ATOM     32  O   UNL     1     -12.093   5.598 129.230  0.00  0.00    +0.000 OA
BRANCH  31  33
ATOM     33  C   UNL     1     -12.452   7.938 128.650  0.00  0.00    +0.000 C 
ATOM     34  C   UNL     1     -13.617   7.546 127.739  0.00  0.00    +0.000 C 
ATOM     35  C   UNL     1     -12.801   9.179 129.472  0.00  0.00    +0.000 C 
ATOM     36  C   UNL     1     -11.239   8.281 127.750  0.00  0.00    +0.000 C 
ENDBRANCH  31  33
ENDBRANCH  30  31
ENDBRANCH  29  30
ENDBRANCH  28  29
ENDBRANCH   1  28
TORSDOF 16
ENDMDL
MODEL 7
REMARK VINA RESULT:      -7.1      4.213      7.999
REMARK  Name = Adefovir dipivoxil
REMARK  22 active torsions:
REMARK  status: ('A' for Active; 'I' for Inactive)
REMARK    1  A    between atoms: C_1  and  C_2
REMARK    2  A    between atoms: C_2  and  C_3
REMARK    3  A    between atoms: C_2  and  C_4
REMARK    4  A    between atoms: C_2  and  C_5
REMARK    5  A    between atoms: C_5  and  O_7
REMARK    6  A    between atoms: O_7  and  C_8
REMARK    7  A    between atoms: C_8  and  O_9
REMARK    8  A    between atoms: O_9  and  P_10
REMARK    9  A    between atoms: P_10  and  C_12
REMARK   10  A    between atoms: P_10  and  O_26
REMARK   11  A    between atoms: C_12  and  O_13
REMARK   12  A    between atoms: O_13  and  C_14
REMARK   13  A    between atoms: C_14  and  C_15
REMARK   14  A    between atoms: C_15  and  N_16
REMARK   15  A    between atoms: C_20  and  N_21
REMARK   16  A    between atoms: O_26  and  C_27
REMARK   17  A    between atoms: C_27  and  O_28
REMARK   18  A    between atoms: O_28  and  C_29
REMARK   19  A    between atoms: C_29  and  C_31
REMARK   20  A    between atoms: C_31  and  C_32
REMARK   21  A    between atoms: C_31  and  C_33
REMARK   22  A    between atoms: C_31  and  C_34
REMARK                            x       y       z     vdW  Elec       q    Type
REMARK                         _______ _______ _______ _____ _____    ______ ____
ROOT
ATOM      1  P   UNL     1      -8.951   5.180 130.212  0.00  0.00    +0.000 P 
ATOM      2  O   UNL     1      -9.635   4.025 130.875  0.00  0.00    +0.000 OA
ENDROOT
BRANCH   1   3
ATOM      3  C   UNL     1      -7.244   5.497 130.678  0.00  0.00    +0.000 C 
BRANCH   3   4
ATOM      4  O   UNL     1      -6.817   6.778 130.269  0.00  0.00    +0.000 OA
BRANCH   4   5
ATOM      5  C   UNL     1      -5.595   7.011 130.938  0.00  0.00    +0.000 C 
BRANCH   5   6
ATOM      6  C   UNL     1      -4.881   5.700 131.099  0.00  0.00    +0.000 C 
BRANCH   6   7
ATOM      7  N   UNL     1      -3.952   5.468 130.023  0.00  0.00    +0.000 N 
ATOM      8  C   UNL     1      -2.968   6.317 129.586  0.00  0.00    +0.000 A 
ATOM      9  N   UNL     1      -2.291   5.817 128.581  0.00  0.00    +0.000 NA
ATOM     10  C   UNL     1      -2.866   4.585 128.365  0.00  0.00    +0.000 A 
ATOM     11  C   UNL     1      -2.587   3.587 127.426  0.00  0.00    +0.000 A 
ATOM     12  N   UNL     1      -3.330   2.458 127.447  0.00  0.00    +0.000 NA
ATOM     13  C   UNL     1      -4.308   2.354 128.377  0.00  0.00    +0.000 A 
ATOM     14  N   UNL     1      -4.669   3.246 129.325  0.00  0.00    +0.000 NA
ATOM     15  C   UNL     1      -3.899   4.342 129.254  0.00  0.00    +0.000 A 
BRANCH  11  16
ATOM     16  N   UNL     1      -1.588   3.729 126.492  0.00  0.00    +0.000 N 
ATOM     17  H   UNL     1      -0.788   4.301 126.729  0.00  0.00    +0.000 HD
ATOM     18  H   UNL     1      -1.679   3.264 125.606  0.00  0.00    +0.000 HD
ENDBRANCH  11  16
ENDBRANCH   6   7
ENDBRANCH   5   6
ENDBRANCH   4   5
ENDBRANCH   3   4
ENDBRANCH   1   3
BRANCH   1  19
ATOM     19  O   UNL     1      -8.608   5.066 128.642  0.00  0.00    +0.000 OA
BRANCH  19  20
ATOM     20  C   UNL     1      -7.815   4.143 127.920  0.00  0.00    +0.000 C 
BRANCH  20  21
ATOM     21  O   UNL     1      -8.266   3.681 126.595  0.00  0.00    +0.000 OA
BRANCH  21  22
ATOM     22  C   UNL     1      -7.574   4.305 125.576  0.00  0.00    +0.000 C 
ATOM     23  O   UNL     1      -7.428   5.535 125.547  0.00  0.00    +0.000 OA
BRANCH  22  25
ATOM     24  C   UNL     1      -5.805   4.153 123.765  0.00  0.00    +0.000 C 
ATOM     25  C   UNL     1      -6.977   3.402 124.460  0.00  0.00    +0.000 C 
ATOM     26  C   UNL     1      -8.014   3.082 123.379  0.00  0.00    +0.000 C 
ATOM     27  C   UNL     1      -6.405   2.101 125.030  0.00  0.00    +0.000 C 
ENDBRANCH  22  25
ENDBRANCH  21  22
ENDBRANCH  20  21
ENDBRANCH  19  20
ENDBRANCH   1  19
BRANCH   1  28
ATOM     28  O   UNL     1      -9.510   6.651 130.764  0.00  0.00    +0.000 OA
BRANCH  28  29
ATOM     29  C   UNL     1     -10.847   6.466 131.377  0.00  0.00    +0.000 C 
BRANCH  29  30
ATOM     30  O   UNL     1     -12.011   7.188 130.939  0.00  0.00    +0.000 OA
BRANCH  30  31
ATOM     31  C   UNL     1     -12.302   6.878 129.615  0.00  0.00    +0.000 C 
ATOM     32  O   UNL     1     -12.416   5.714 129.196  0.00  0.00    +0.000 OA
BRANCH  31  33
ATOM     33  C   UNL     1     -12.506   8.102 128.715  0.00  0.00    +0.000 C 
ATOM     34  C   UNL     1     -12.848   9.317 129.580  0.00  0.00    +0.000 C 
ATOM     35  C   UNL     1     -11.225   8.348 127.917  0.00  0.00    +0.000 C 
ATOM     36  C   UNL     1     -13.666   7.890 127.711  0.00  0.00    +0.000 C 
ENDBRANCH  31  33
ENDBRANCH  30  31
ENDBRANCH  29  30
ENDBRANCH  28  29
ENDBRANCH   1  28
TORSDOF 16
ENDMDL
MODEL 8
REMARK VINA RESULT:      -7.1      4.091      7.835
REMARK  Name = Adefovir dipivoxil
REMARK  22 active torsions:
REMARK  status: ('A' for Active; 'I' for Inactive)
REMARK    1  A    between atoms: C_1  and  C_2
REMARK    2  A    between atoms: C_2  and  C_3
REMARK    3  A    between atoms: C_2  and  C_4
REMARK    4  A    between atoms: C_2  and  C_5
REMARK    5  A    between atoms: C_5  and  O_7
REMARK    6  A    between atoms: O_7  and  C_8
REMARK    7  A    between atoms: C_8  and  O_9
REMARK    8  A    between atoms: O_9  and  P_10
REMARK    9  A    between atoms: P_10  and  C_12
REMARK   10  A    between atoms: P_10  and  O_26
REMARK   11  A    between atoms: C_12  and  O_13
REMARK   12  A    between atoms: O_13  and  C_14
REMARK   13  A    between atoms: C_14  and  C_15
REMARK   14  A    between atoms: C_15  and  N_16
REMARK   15  A    between atoms: C_20  and  N_21
REMARK   16  A    between atoms: O_26  and  C_27
REMARK   17  A    between atoms: C_27  and  O_28
REMARK   18  A    between atoms: O_28  and  C_29
REMARK   19  A    between atoms: C_29  and  C_31
REMARK   20  A    between atoms: C_31  and  C_32
REMARK   21  A    between atoms: C_31  and  C_33
REMARK   22  A    between atoms: C_31  and  C_34
REMARK                            x       y       z     vdW  Elec       q    Type
REMARK                         _______ _______ _______ _____ _____    ______ ____
ROOT
ATOM      1  P   UNL     1      -6.235   5.914 130.761  0.00  0.00    +0.000 P 
ATOM      2  O   UNL     1      -5.762   5.455 132.106  0.00  0.00    +0.000 OA
ENDROOT
BRANCH   1   3
ATOM      3  C   UNL     1      -7.131   4.722 129.759  0.00  0.00    +0.000 C 
BRANCH   3   4
ATOM      4  O   UNL     1      -6.836   4.862 128.386  0.00  0.00    +0.000 OA
BRANCH   4   5
ATOM      5  C   UNL     1      -7.848   4.157 127.698  0.00  0.00    +0.000 C 
BRANCH   5   6
ATOM      6  C   UNL     1      -7.337   2.783 127.373  0.00  0.00    +0.000 C 
BRANCH   6   7
ATOM      7  N   UNL     1      -8.191   2.112 126.426  0.00  0.00    +0.000 N 
ATOM      8  C   UNL     1      -9.060   1.084 126.685  0.00  0.00    +0.000 A 
ATOM      9  N   UNL     1      -9.692   0.685 125.608  0.00  0.00    +0.000 NA
ATOM     10  C   UNL     1      -9.208   1.499 124.610  0.00  0.00    +0.000 A 
ATOM     11  C   UNL     1      -9.492   1.554 123.242  0.00  0.00    +0.000 A 
ATOM     12  N   UNL     1      -8.851   2.475 122.488  0.00  0.00    +0.000 NA
ATOM     13  C   UNL     1      -7.966   3.296 123.099  0.00  0.00    +0.000 A 
ATOM     14  N   UNL     1      -7.609   3.335 124.401  0.00  0.00    +0.000 NA
ATOM     15  C   UNL     1      -8.276   2.401 125.095  0.00  0.00    +0.000 A 
BRANCH  11  16
ATOM     16  N   UNL     1     -10.395   0.700 122.655  0.00  0.00    +0.000 N 
ATOM     17  H   UNL     1     -10.712   0.907 121.717  0.00  0.00    +0.000 HD
ATOM     18  H   UNL     1     -10.714  -0.101 123.171  0.00  0.00    +0.000 HD
ENDBRANCH  11  16
ENDBRANCH   6   7
ENDBRANCH   5   6
ENDBRANCH   4   5
ENDBRANCH   3   4
ENDBRANCH   1   3
BRANCH   1  19
ATOM     19  O   UNL     1      -7.415   7.008 130.698  0.00  0.00    +0.000 OA
BRANCH  19  20
ATOM     20  C   UNL     1      -8.822   6.866 130.638  0.00  0.00    +0.000 C 
BRANCH  20  21
ATOM     21  O   UNL     1      -9.578   7.574 129.590  0.00  0.00    +0.000 OA
BRANCH  21  22
ATOM     22  C   UNL     1     -10.631   6.814 129.120  0.00  0.00    +0.000 C 
ATOM     23  O   UNL     1     -10.755   5.618 129.422  0.00  0.00    +0.000 OA
BRANCH  22  25
ATOM     24  C   UNL     1     -11.963   8.940 128.750  0.00  0.00    +0.000 C 
ATOM     25  C   UNL     1     -11.664   7.517 128.196  0.00  0.00    +0.000 C 
ATOM     26  C   UNL     1     -12.994   6.758 128.157  0.00  0.00    +0.000 C 
ATOM     27  C   UNL     1     -11.125   7.690 126.773  0.00  0.00    +0.000 C 
ENDBRANCH  22  25
ENDBRANCH  21  22
ENDBRANCH  20  21
ENDBRANCH  19  20
ENDBRANCH   1  19
BRANCH   1  28
ATOM     28  O   UNL     1      -4.983   6.083 129.672  0.00  0.00    +0.000 OA
BRANCH  28  29
ATOM     29  C   UNL     1      -3.718   5.646 130.310  0.00  0.00    +0.000 C 
BRANCH  29  30
ATOM     30  O   UNL     1      -2.869   4.633 129.743  0.00  0.00    +0.000 OA
BRANCH  30  31
ATOM     31  C   UNL     1      -2.696   4.855 128.381  0.00  0.00    +0.000 C 
ATOM     32  O   UNL     1      -2.274   5.925 127.912  0.00  0.00    +0.000 OA
BRANCH  31  33
ATOM     33  C   UNL     1      -3.039   3.647 127.501  0.00  0.00    +0.000 C 
ATOM     34  C   UNL     1      -4.022   4.076 126.410  0.00  0.00    +0.000 C 
ATOM     35  C   UNL     1      -1.750   3.103 126.884  0.00  0.00    +0.000 C 
ATOM     36  C   UNL     1      -3.699   2.510 128.319  0.00  0.00    +0.000 C 
ENDBRANCH  31  33
ENDBRANCH  30  31
ENDBRANCH  29  30
ENDBRANCH  28  29
ENDBRANCH   1  28
TORSDOF 16
ENDMDL
MODEL 9
REMARK VINA RESULT:      -7.1      4.052      7.563
REMARK  Name = Adefovir dipivoxil
REMARK  22 active torsions:
REMARK  status: ('A' for Active; 'I' for Inactive)
REMARK    1  A    between atoms: C_1  and  C_2
REMARK    2  A    between atoms: C_2  and  C_3
REMARK    3  A    between atoms: C_2  and  C_4
REMARK    4  A    between atoms: C_2  and  C_5
REMARK    5  A    between atoms: C_5  and  O_7
REMARK    6  A    between atoms: O_7  and  C_8
REMARK    7  A    between atoms: C_8  and  O_9
REMARK    8  A    between atoms: O_9  and  P_10
REMARK    9  A    between atoms: P_10  and  C_12
REMARK   10  A    between atoms: P_10  and  O_26
REMARK   11  A    between atoms: C_12  and  O_13
REMARK   12  A    between atoms: O_13  and  C_14
REMARK   13  A    between atoms: C_14  and  C_15
REMARK   14  A    between atoms: C_15  and  N_16
REMARK   15  A    between atoms: C_20  and  N_21
REMARK   16  A    between atoms: O_26  and  C_27
REMARK   17  A    between atoms: C_27  and  O_28
REMARK   18  A    between atoms: O_28  and  C_29
REMARK   19  A    between atoms: C_29  and  C_31
REMARK   20  A    between atoms: C_31  and  C_32
REMARK   21  A    between atoms: C_31  and  C_33
REMARK   22  A    between atoms: C_31  and  C_34
REMARK                            x       y       z     vdW  Elec       q    Type
REMARK                         _______ _______ _______ _____ _____    ______ ____
ROOT
ATOM      1  P   UNL     1      -8.766   4.653 130.007  0.00  0.00    +0.000 P 
ATOM      2  O   UNL     1      -8.951   5.334 128.686  0.00  0.00    +0.000 OA
ENDROOT
BRANCH   1   3
ATOM      3  C   UNL     1      -8.188   2.952 129.976  0.00  0.00    +0.000 C 
BRANCH   3   4
ATOM      4  O   UNL     1      -6.929   2.836 129.348  0.00  0.00    +0.000 OA
BRANCH   4   5
ATOM      5  C   UNL     1      -7.036   1.740 128.465  0.00  0.00    +0.000 C 
BRANCH   5   6
ATOM      6  C   UNL     1      -8.287   1.902 127.650  0.00  0.00    +0.000 C 
BRANCH   6   7
ATOM      7  N   UNL     1      -8.005   2.454 126.351  0.00  0.00    +0.000 N 
ATOM      8  C   UNL     1      -7.021   3.356 126.035  0.00  0.00    +0.000 A 
ATOM      9  N   UNL     1      -7.025   3.669 124.762  0.00  0.00    +0.000 NA
ATOM     10  C   UNL     1      -8.058   2.930 124.234  0.00  0.00    +0.000 A 
ATOM     11  C   UNL     1      -8.561   2.840 122.932  0.00  0.00    +0.000 A 
ATOM     12  N   UNL     1      -9.607   2.015 122.701  0.00  0.00    +0.000 NA
ATOM     13  C   UNL     1     -10.113   1.319 123.745  0.00  0.00    +0.000 A 
ATOM     14  N   UNL     1      -9.717   1.325 125.036  0.00  0.00    +0.000 NA
ATOM     15  C   UNL     1      -8.681   2.160 125.203  0.00  0.00    +0.000 A 
BRANCH  11  16
ATOM     16  N   UNL     1      -8.023   3.567 121.897  0.00  0.00    +0.000 N 
ATOM     17  H   UNL     1      -8.580   3.700 121.064  0.00  0.00    +0.000 HD
ATOM     18  H   UNL     1      -7.096   3.942 121.996  0.00  0.00    +0.000 HD
ENDBRANCH  11  16
ENDBRANCH   6   7
ENDBRANCH   5   6
ENDBRANCH   4   5
ENDBRANCH   3   4
ENDBRANCH   1   3
BRANCH   1  19
ATOM     19  O   UNL     1      -7.568   5.150 130.962  0.00  0.00    +0.000 OA
BRANCH  19  20
ATOM     20  C   UNL     1      -6.518   6.073 130.745  0.00  0.00    +0.000 C 
BRANCH  20  21
ATOM     21  O   UNL     1      -5.547   5.826 129.665  0.00  0.00    +0.000 OA
BRANCH  21  22
ATOM     22  C   UNL     1      -4.472   6.690 129.738  0.00  0.00    +0.000 C 
ATOM     23  O   UNL     1      -4.626   7.920 129.753  0.00  0.00    +0.000 OA
BRANCH  22  25
ATOM     24  C   UNL     1      -3.179   4.510 129.820  0.00  0.00    +0.000 C 
ATOM     25  C   UNL     1      -3.053   6.061 129.806  0.00  0.00    +0.000 C 
ATOM     26  C   UNL     1      -2.317   6.467 131.086  0.00  0.00    +0.000 C 
ATOM     27  C   UNL     1      -2.209   6.435 128.583  0.00  0.00    +0.000 C 
ENDBRANCH  22  25
ENDBRANCH  21  22
ENDBRANCH  20  21
ENDBRANCH  19  20
ENDBRANCH   1  19
BRANCH   1  28
ATOM     28  O   UNL     1     -10.218   4.282 130.738  0.00  0.00    +0.000 OA
BRANCH  28  29
ATOM     29  C   UNL     1     -11.234   5.287 130.345  0.00  0.00    +0.000 C 
BRANCH  29  30
ATOM     30  O   UNL     1     -11.087   6.692 130.618  0.00  0.00    +0.000 OA
BRANCH  30  31
ATOM     31  C   UNL     1     -12.317   7.334 130.521  0.00  0.00    +0.000 C 
ATOM     32  O   UNL     1     -13.207   7.236 131.382  0.00  0.00    +0.000 OA
BRANCH  31  33
ATOM     33  C   UNL     1     -12.473   8.206 129.270  0.00  0.00    +0.000 C 
ATOM     34  C   UNL     1     -13.450   7.537 128.302  0.00  0.00    +0.000 C 
ATOM     35  C   UNL     1     -12.984   9.585 129.689  0.00  0.00    +0.000 C 
ATOM     36  C   UNL     1     -11.125   8.396 128.532  0.00  0.00    +0.000 C 
ENDBRANCH  31  33
ENDBRANCH  30  31
ENDBRANCH  29  30
ENDBRANCH  28  29
ENDBRANCH   1  28
TORSDOF 16
ENDMDL
