MODEL 1
REMARK VINA RESULT:      -7.0      0.000      0.000
REMARK  Name = Ademetionine
REMARK  11 active torsions:
REMARK  status: ('A' for Active; 'I' for Inactive)
REMARK    1  A    between atoms: C_1  and  S_2
REMARK    2  A    between atoms: S_2  and  C_3
REMARK    3  A    between atoms: S_2  and  C_10
REMARK    4  A    between atoms: C_3  and  C_4
REMARK    5  A    between atoms: C_4  and  CA_5
REMARK    6  A    between atoms: CA_5  and  N_6
REMARK    7  A    between atoms: CA_5  and  C_7
REMARK    8  A    between atoms: C_10  and  C_11
REMARK    9  A    between atoms: C_13  and  N_18
REMARK   10  A    between atoms: C_14  and  O_15
REMARK   11  A    between atoms: C_16  and  O_17
REMARK                            x       y       z     vdW  Elec       q    Type
REMARK                         _______ _______ _______ _____ _____    ______ ____
ROOT
ATOM      1  C   UNL     1      -7.642   3.884 130.016  0.00  0.00    +0.000 C 
ATOM      2  O   UNL     1      -8.204   5.076 130.648  0.00  0.00    +0.000 OA
ATOM      3  C   UNL     1      -9.595   4.839 130.972  0.00  0.00    +0.000 C 
ATOM      4  C   UNL     1     -10.023   3.520 130.342  0.00  0.00    +0.000 C 
ATOM      5  C   UNL     1      -8.687   2.770 130.149  0.00  0.00    +0.000 C 
ENDROOT
BRANCH   3   6
ATOM      6  N   UNL     1     -10.449   5.989 130.643  0.00  0.00    +0.000 N 
ATOM      7  C   UNL     1     -11.379   6.514 131.512  0.00  0.00    +0.000 A 
ATOM      8  N   UNL     1     -12.111   7.471 130.972  0.00  0.00    +0.000 NA
ATOM      9  C   UNL     1     -11.668   7.561 129.670  0.00  0.00    +0.000 A 
ATOM     10  C   UNL     1     -10.631   6.681 129.470  0.00  0.00    +0.000 A 
ATOM     11  N   UNL     1      -9.978   6.585 128.328  0.00  0.00    +0.000 NA
ATOM     12  C   UNL     1     -10.457   7.295 127.308  0.00  0.00    +0.000 A 
ATOM     13  N   UNL     1     -11.430   8.193 127.368  0.00  0.00    +0.000 NA
ATOM     14  C   UNL     1     -12.021   8.367 128.565  0.00  0.00    +0.000 A 
ATOM     15  N   UNL     1     -12.936   9.387 128.619  0.00  0.00    +0.000 N 
ATOM     16  H   UNL     1     -13.168   9.801 127.729  0.00  0.00    +0.000 HD
ATOM     17  H   UNL     1     -13.490   9.471 129.452  0.00  0.00    +0.000 HD
ENDBRANCH   3   6
BRANCH   4  18
ATOM     18  O   UNL     1     -10.968   2.809 131.145  0.00  0.00    +0.000 OA
ATOM     19  H   UNL     1     -11.856   3.152 130.951  0.00  0.00    +0.000 HD
ENDBRANCH   4  18
BRANCH   5  20
ATOM     20  O   UNL     1      -8.419   1.928 131.288  0.00  0.00    +0.000 OA
ATOM     21  H   UNL     1      -9.258   1.577 131.619  0.00  0.00    +0.000 HD
ENDBRANCH   5  20
BRANCH   1  22
ATOM     22  C   UNL     1      -7.165   4.157 128.555  0.00  0.00    +0.000 C 
BRANCH  22  24
ATOM     23  C   UNL     1      -4.579   2.933 129.070  0.00  0.00    +0.000 C 
ATOM     24  S   UNL     1      -5.419   4.331 128.434  0.00  0.00    +0.000 S 
BRANCH  24  25
ATOM     25  C   UNL     1      -4.892   4.351 126.740  0.00  0.00    +0.000 C 
BRANCH  25  26
ATOM     26  C   UNL     1      -5.771   3.479 125.831  0.00  0.00    +0.000 C 
BRANCH  26  27
ATOM     27  CA  UNL     1      -6.598   4.275 124.812  0.00  0.00    +0.000 C 
BRANCH  27  28
ATOM     28  N   UNL     1      -6.463   5.763 124.966  0.00  0.00    +0.000 NA
ATOM     29  H1  UNL     1      -6.561   5.912 125.977  0.00  0.00    +0.000 HD
ATOM     30  H2  UNL     1      -7.363   6.139 124.653  0.00  0.00    +0.000 HD
ENDBRANCH  27  28
BRANCH  27  31
ATOM     31  C   UNL     1      -8.084   3.827 124.996  0.00  0.00    +0.000 C 
ATOM     32  O   UNL     1      -8.843   4.697 125.499  0.00  0.00    +0.000 OA
ATOM     33  OXT UNL     1      -8.342   2.636 124.624  0.00  0.00    +0.000 OA
ENDBRANCH  27  31
ENDBRANCH  26  27
ENDBRANCH  25  26
ENDBRANCH  24  25
ENDBRANCH  22  24
ENDBRANCH   1  22
TORSDOF 10
ENDMDL
MODEL 2
REMARK VINA RESULT:      -6.8      6.360      8.358
REMARK  Name = Ademetionine
REMARK  11 active torsions:
REMARK  status: ('A' for Active; 'I' for Inactive)
REMARK    1  A    between atoms: C_1  and  S_2
REMARK    2  A    between atoms: S_2  and  C_3
REMARK    3  A    between atoms: S_2  and  C_10
REMARK    4  A    between atoms: C_3  and  C_4
REMARK    5  A    between atoms: C_4  and  CA_5
REMARK    6  A    between atoms: CA_5  and  N_6
REMARK    7  A    between atoms: CA_5  and  C_7
REMARK    8  A    between atoms: C_10  and  C_11
REMARK    9  A    between atoms: C_13  and  N_18
REMARK   10  A    between atoms: C_14  and  O_15
REMARK   11  A    between atoms: C_16  and  O_17
REMARK                            x       y       z     vdW  Elec       q    Type
REMARK                         _______ _______ _______ _____ _____    ______ ____
ROOT
ATOM      1  C   UNL     1      -8.113   1.507 124.990  0.00  0.00    +0.000 C 
ATOM      2  O   UNL     1      -8.281   2.768 124.272  0.00  0.00    +0.000 OA
ATOM      3  C   UNL     1      -8.982   2.525 123.029  0.00  0.00    +0.000 C 
ATOM      4  C   UNL     1      -9.096   1.021 122.821  0.00  0.00    +0.000 C 
ATOM      5  C   UNL     1      -8.946   0.454 124.249  0.00  0.00    +0.000 C 
ENDROOT
BRANCH   3   6
ATOM      6  N   UNL     1      -8.394   3.264 121.902  0.00  0.00    +0.000 N 
ATOM      7  C   UNL     1      -9.053   3.480 120.712  0.00  0.00    +0.000 A 
ATOM      8  N   UNL     1      -8.299   4.068 119.802  0.00  0.00    +0.000 NA
ATOM      9  C   UNL     1      -7.069   4.217 120.405  0.00  0.00    +0.000 A 
ATOM     10  C   UNL     1      -7.128   3.758 121.700  0.00  0.00    +0.000 A 
ATOM     11  N   UNL     1      -6.108   3.823 122.533  0.00  0.00    +0.000 NA
ATOM     12  C   UNL     1      -4.949   4.237 122.025  0.00  0.00    +0.000 A 
ATOM     13  N   UNL     1      -4.760   4.727 120.807  0.00  0.00    +0.000 NA
ATOM     14  C   UNL     1      -5.832   4.761 119.994  0.00  0.00    +0.000 A 
ATOM     15  N   UNL     1      -5.629   5.384 118.790  0.00  0.00    +0.000 N 
ATOM     16  H   UNL     1      -4.670   5.622 118.588  0.00  0.00    +0.000 HD
ATOM     17  H   UNL     1      -6.361   5.322 118.105  0.00  0.00    +0.000 HD
ENDBRANCH   3   6
BRANCH   4  18
ATOM     18  O   UNL     1     -10.318   0.646 122.180  0.00  0.00    +0.000 OA
ATOM     19  H   UNL     1     -10.696  -0.110 122.658  0.00  0.00    +0.000 HD
ENDBRANCH   4  18
BRANCH   5  20
ATOM     20  O   UNL     1     -10.242   0.283 124.855  0.00  0.00    +0.000 OA
ATOM     21  H   UNL     1     -10.164   0.440 125.807  0.00  0.00    +0.000 HD
ENDBRANCH   5  20
BRANCH   1  22
ATOM     22  C   UNL     1      -6.611   1.129 125.183  0.00  0.00    +0.000 C 
BRANCH  22  24
ATOM     23  C   UNL     1      -7.762  -0.026 127.590  0.00  0.00    +0.000 C 
ATOM     24  S   UNL     1      -6.353   0.057 126.554  0.00  0.00    +0.000 S 
BRANCH  24  25
ATOM     25  C   UNL     1      -6.171  -1.627 126.026  0.00  0.00    +0.000 C 
BRANCH  25  26
ATOM     26  C   UNL     1      -7.464  -2.444 126.180  0.00  0.00    +0.000 C 
BRANCH  26  27
ATOM     27  CA  UNL     1      -7.827  -3.277 124.943  0.00  0.00    +0.000 C 
BRANCH  27  28
ATOM     28  N   UNL     1      -7.025  -2.917 123.725  0.00  0.00    +0.000 NA
ATOM     29  H1  UNL     1      -6.239  -3.576 123.747  0.00  0.00    +0.000 HD
ATOM     30  H2  UNL     1      -6.531  -2.058 123.983  0.00  0.00    +0.000 HD
ENDBRANCH  27  28
BRANCH  27  31
ATOM     31  C   UNL     1      -9.354  -3.060 124.690  0.00  0.00    +0.000 C 
ATOM     32  O   UNL     1     -10.010  -2.681 125.695  0.00  0.00    +0.000 OA
ATOM     33  OXT UNL     1      -9.746  -3.300 123.502  0.00  0.00    +0.000 OA
ENDBRANCH  27  31
ENDBRANCH  26  27
ENDBRANCH  25  26
ENDBRANCH  24  25
ENDBRANCH  22  24
ENDBRANCH   1  22
TORSDOF 10
ENDMDL
MODEL 3
REMARK VINA RESULT:      -6.7      1.813      2.424
REMARK  Name = Ademetionine
REMARK  11 active torsions:
REMARK  status: ('A' for Active; 'I' for Inactive)
REMARK    1  A    between atoms: C_1  and  S_2
REMARK    2  A    between atoms: S_2  and  C_3
REMARK    3  A    between atoms: S_2  and  C_10
REMARK    4  A    between atoms: C_3  and  C_4
REMARK    5  A    between atoms: C_4  and  CA_5
REMARK    6  A    between atoms: CA_5  and  N_6
REMARK    7  A    between atoms: CA_5  and  C_7
REMARK    8  A    between atoms: C_10  and  C_11
REMARK    9  A    between atoms: C_13  and  N_18
REMARK   10  A    between atoms: C_14  and  O_15
REMARK   11  A    between atoms: C_16  and  O_17
REMARK                            x       y       z     vdW  Elec       q    Type
REMARK                         _______ _______ _______ _____ _____    ______ ____
ROOT
ATOM      1  C   UNL     1      -7.898   4.119 131.397  0.00  0.00    +0.000 C 
ATOM      2  O   UNL     1      -8.425   5.251 130.639  0.00  0.00    +0.000 OA
ATOM      3  C   UNL     1      -9.160   6.126 131.529  0.00  0.00    +0.000 C 
ATOM      4  C   UNL     1      -9.300   5.438 132.880  0.00  0.00    +0.000 C 
ATOM      5  C   UNL     1      -8.140   4.420 132.881  0.00  0.00    +0.000 C 
ENDROOT
BRANCH   3   6
ATOM      6  N   UNL     1     -10.422   6.592 130.937  0.00  0.00    +0.000 N 
ATOM      7  C   UNL     1     -11.652   6.395 131.526  0.00  0.00    +0.000 A 
ATOM      8  N   UNL     1     -12.658   6.796 130.771  0.00  0.00    +0.000 NA
ATOM      9  C   UNL     1     -12.069   7.249 129.610  0.00  0.00    +0.000 A 
ATOM     10  C   UNL     1     -10.701   7.158 129.717  0.00  0.00    +0.000 A 
ATOM     11  N   UNL     1      -9.877   7.568 128.773  0.00  0.00    +0.000 NA
ATOM     12  C   UNL     1     -10.432   7.961 127.628  0.00  0.00    +0.000 A 
ATOM     13  N   UNL     1     -11.729   8.118 127.400  0.00  0.00    +0.000 NA
ATOM     14  C   UNL     1     -12.563   7.801 128.408  0.00  0.00    +0.000 A 
ATOM     15  N   UNL     1     -13.884   8.090 128.181  0.00  0.00    +0.000 N 
ATOM     16  H   UNL     1     -14.104   8.375 127.239  0.00  0.00    +0.000 HD
ATOM     17  H   UNL     1     -14.555   7.758 128.850  0.00  0.00    +0.000 HD
ENDBRANCH   3   6
BRANCH   4  18
ATOM     18  O   UNL     1      -9.254   6.361 133.973  0.00  0.00    +0.000 OA
ATOM     19  H   UNL     1      -8.551   6.081 134.582  0.00  0.00    +0.000 HD
ENDBRANCH   4  18
BRANCH   5  20
ATOM     20  O   UNL     1      -6.972   4.995 133.500  0.00  0.00    +0.000 OA
ATOM     21  H   UNL     1      -6.374   4.280 133.762  0.00  0.00    +0.000 HD
ENDBRANCH   5  20
BRANCH   1  22
ATOM     22  C   UNL     1      -8.479   2.756 130.908  0.00  0.00    +0.000 C 
BRANCH  22  24
ATOM     23  C   UNL     1      -7.876   0.059 130.003  0.00  0.00    +0.000 C 
ATOM     24  S   UNL     1      -7.231   1.651 130.344  0.00  0.00    +0.000 S 
BRANCH  24  25
ATOM     25  C   UNL     1      -6.599   2.150 128.763  0.00  0.00    +0.000 C 
BRANCH  25  26
ATOM     26  C   UNL     1      -7.705   2.575 127.785  0.00  0.00    +0.000 C 
BRANCH  26  27
ATOM     27  CA  UNL     1      -7.487   3.960 127.160  0.00  0.00    +0.000 C 
BRANCH  27  28
ATOM     28  N   UNL     1      -8.428   5.006 127.685  0.00  0.00    +0.000 NA
ATOM     29  H1  UNL     1      -9.089   4.471 128.261  0.00  0.00    +0.000 HD
ATOM     30  H2  UNL     1      -9.039   5.227 126.892  0.00  0.00    +0.000 HD
ENDBRANCH  27  28
BRANCH  27  31
ATOM     31  C   UNL     1      -7.654   3.783 125.616  0.00  0.00    +0.000 C 
ATOM     32  O   UNL     1      -8.763   4.158 125.154  0.00  0.00    +0.000 OA
ATOM     33  OXT UNL     1      -6.651   3.275 125.017  0.00  0.00    +0.000 OA
ENDBRANCH  27  31
ENDBRANCH  26  27
ENDBRANCH  25  26
ENDBRANCH  24  25
ENDBRANCH  22  24
ENDBRANCH   1  22
TORSDOF 10
ENDMDL
MODEL 4
REMARK VINA RESULT:      -6.6      2.324      3.620
REMARK  Name = Ademetionine
REMARK  11 active torsions:
REMARK  status: ('A' for Active; 'I' for Inactive)
REMARK    1  A    between atoms: C_1  and  S_2
REMARK    2  A    between atoms: S_2  and  C_3
REMARK    3  A    between atoms: S_2  and  C_10
REMARK    4  A    between atoms: C_3  and  C_4
REMARK    5  A    between atoms: C_4  and  CA_5
REMARK    6  A    between atoms: CA_5  and  N_6
REMARK    7  A    between atoms: CA_5  and  C_7
REMARK    8  A    between atoms: C_10  and  C_11
REMARK    9  A    between atoms: C_13  and  N_18
REMARK   10  A    between atoms: C_14  and  O_15
REMARK   11  A    between atoms: C_16  and  O_17
REMARK                            x       y       z     vdW  Elec       q    Type
REMARK                         _______ _______ _______ _____ _____    ______ ____
ROOT
ATOM      1  C   UNL     1      -7.838   3.915 130.231  0.00  0.00    +0.000 C 
ATOM      2  O   UNL     1      -8.438   5.091 130.855  0.00  0.00    +0.000 OA
ATOM      3  C   UNL     1      -9.853   4.860 131.060  0.00  0.00    +0.000 C 
ATOM      4  C   UNL     1     -10.241   3.567 130.355  0.00  0.00    +0.000 C 
ATOM      5  C   UNL     1      -8.901   2.809 130.244  0.00  0.00    +0.000 C 
ENDROOT
BRANCH   3   6
ATOM      6  N   UNL     1     -10.667   6.030 130.702  0.00  0.00    +0.000 N 
ATOM      7  C   UNL     1     -11.618   6.574 131.537  0.00  0.00    +0.000 A 
ATOM      8  N   UNL     1     -12.307   7.548 130.973  0.00  0.00    +0.000 NA
ATOM      9  C   UNL     1     -11.813   7.632 129.689  0.00  0.00    +0.000 A 
ATOM     10  C   UNL     1     -10.788   6.729 129.526  0.00  0.00    +0.000 A 
ATOM     11  N   UNL     1     -10.095   6.622 128.410  0.00  0.00    +0.000 NA
ATOM     12  C   UNL     1     -10.517   7.345 127.374  0.00  0.00    +0.000 A 
ATOM     13  N   UNL     1     -11.472   8.265 127.401  0.00  0.00    +0.000 NA
ATOM     14  C   UNL     1     -12.104   8.449 128.574  0.00  0.00    +0.000 A 
ATOM     15  N   UNL     1     -12.998   9.489 128.597  0.00  0.00    +0.000 N 
ATOM     16  H   UNL     1     -13.186   9.910 127.700  0.00  0.00    +0.000 HD
ATOM     17  H   UNL     1     -13.582   9.583 129.408  0.00  0.00    +0.000 HD
ENDBRANCH   3   6
BRANCH   4  18
ATOM     18  O   UNL     1     -11.254   2.842 131.057  0.00  0.00    +0.000 OA
ATOM     19  H   UNL     1     -12.073   3.363 131.038  0.00  0.00    +0.000 HD
ENDBRANCH   4  18
BRANCH   5  20
ATOM     20  O   UNL     1      -8.732   1.927 131.372  0.00  0.00    +0.000 OA
ATOM     21  H   UNL     1      -9.426   1.252 131.346  0.00  0.00    +0.000 HD
ENDBRANCH   5  20
BRANCH   1  22
ATOM     22  C   UNL     1      -7.245   4.228 128.822  0.00  0.00    +0.000 C 
BRANCH  22  24
ATOM     23  C   UNL     1      -5.010   3.655 127.053  0.00  0.00    +0.000 C 
ATOM     24  S   UNL     1      -5.528   3.858 128.713  0.00  0.00    +0.000 S 
BRANCH  24  25
ATOM     25  C   UNL     1      -4.540   5.228 129.253  0.00  0.00    +0.000 C 
BRANCH  25  26
ATOM     26  C   UNL     1      -4.614   5.456 130.770  0.00  0.00    +0.000 C 
BRANCH  26  27
ATOM     27  CA  UNL     1      -5.036   6.877 131.169  0.00  0.00    +0.000 C 
BRANCH  27  28
ATOM     28  N   UNL     1      -6.333   7.311 130.548  0.00  0.00    +0.000 NA
ATOM     29  H1  UNL     1      -6.246   8.332 130.489  0.00  0.00    +0.000 HD
ATOM     30  H2  UNL     1      -7.019   7.244 131.305  0.00  0.00    +0.000 HD
ENDBRANCH  27  28
BRANCH  27  31
ATOM     31  C   UNL     1      -3.869   7.826 130.742  0.00  0.00    +0.000 C 
ATOM     32  O   UNL     1      -2.771   7.608 131.316  0.00  0.00    +0.000 OA
ATOM     33  OXT UNL     1      -4.176   8.706 129.874  0.00  0.00    +0.000 OA
ENDBRANCH  27  31
ENDBRANCH  26  27
ENDBRANCH  25  26
ENDBRANCH  24  25
ENDBRANCH  22  24
ENDBRANCH   1  22
TORSDOF 10
ENDMDL
MODEL 5
REMARK VINA RESULT:      -6.6      2.005      2.594
REMARK  Name = Ademetionine
REMARK  11 active torsions:
REMARK  status: ('A' for Active; 'I' for Inactive)
REMARK    1  A    between atoms: C_1  and  S_2
REMARK    2  A    between atoms: S_2  and  C_3
REMARK    3  A    between atoms: S_2  and  C_10
REMARK    4  A    between atoms: C_3  and  C_4
REMARK    5  A    between atoms: C_4  and  CA_5
REMARK    6  A    between atoms: CA_5  and  N_6
REMARK    7  A    between atoms: CA_5  and  C_7
REMARK    8  A    between atoms: C_10  and  C_11
REMARK    9  A    between atoms: C_13  and  N_18
REMARK   10  A    between atoms: C_14  and  O_15
REMARK   11  A    between atoms: C_16  and  O_17
REMARK                            x       y       z     vdW  Elec       q    Type
REMARK                         _______ _______ _______ _____ _____    ______ ____
ROOT
ATOM      1  C   UNL     1      -7.802   3.869 130.166  0.00  0.00    +0.000 C 
ATOM      2  O   UNL     1      -8.389   5.048 130.798  0.00  0.00    +0.000 OA
ATOM      3  C   UNL     1      -9.802   4.824 131.017  0.00  0.00    +0.000 C 
ATOM      4  C   UNL     1     -10.204   3.534 130.313  0.00  0.00    +0.000 C 
ATOM      5  C   UNL     1      -8.870   2.769 130.187  0.00  0.00    +0.000 C 
ENDROOT
BRANCH   3   6
ATOM      6  N   UNL     1     -10.615   5.999 130.669  0.00  0.00    +0.000 N 
ATOM      7  C   UNL     1     -11.553   6.546 131.515  0.00  0.00    +0.000 A 
ATOM      8  N   UNL     1     -12.243   7.525 130.958  0.00  0.00    +0.000 NA
ATOM      9  C   UNL     1     -11.762   7.608 129.670  0.00  0.00    +0.000 A 
ATOM     10  C   UNL     1     -10.744   6.700 129.495  0.00  0.00    +0.000 A 
ATOM     11  N   UNL     1     -10.063   6.591 128.371  0.00  0.00    +0.000 NA
ATOM     12  C   UNL     1     -10.492   7.318 127.341  0.00  0.00    +0.000 A 
ATOM     13  N   UNL     1     -11.441   8.243 127.379  0.00  0.00    +0.000 NA
ATOM     14  C   UNL     1     -12.061   8.428 128.559  0.00  0.00    +0.000 A 
ATOM     15  N   UNL     1     -12.948   9.473 128.593  0.00  0.00    +0.000 N 
ATOM     16  H   UNL     1     -13.143   9.897 127.698  0.00  0.00    +0.000 HD
ATOM     17  H   UNL     1     -13.523   9.569 129.410  0.00  0.00    +0.000 HD
ENDBRANCH   3   6
BRANCH   4  18
ATOM     18  O   UNL     1     -11.214   2.813 131.024  0.00  0.00    +0.000 OA
ATOM     19  H   UNL     1     -12.062   3.271 130.902  0.00  0.00    +0.000 HD
ENDBRANCH   4  18
BRANCH   5  20
ATOM     20  O   UNL     1      -8.694   1.885 131.312  0.00  0.00    +0.000 OA
ATOM     21  H   UNL     1      -7.756   1.866 131.550  0.00  0.00    +0.000 HD
ENDBRANCH   5  20
BRANCH   1  22
ATOM     22  C   UNL     1      -7.221   4.182 128.751  0.00  0.00    +0.000 C 
BRANCH  22  24
ATOM     23  C   UNL     1      -7.532   2.907 126.157  0.00  0.00    +0.000 C 
ATOM     24  S   UNL     1      -6.943   2.731 127.797  0.00  0.00    +0.000 S 
BRANCH  24  25
ATOM     25  C   UNL     1      -5.210   2.447 127.549  0.00  0.00    +0.000 C 
BRANCH  25  26
ATOM     26  C   UNL     1      -4.667   3.134 126.286  0.00  0.00    +0.000 C 
BRANCH  26  27
ATOM     27  CA  UNL     1      -3.284   3.774 126.469  0.00  0.00    +0.000 C 
BRANCH  27  28
ATOM     28  N   UNL     1      -2.233   2.802 126.923  0.00  0.00    +0.000 NA
ATOM     29  H1  UNL     1      -1.859   3.231 127.778  0.00  0.00    +0.000 HD
ATOM     30  H2  UNL     1      -1.440   2.964 126.295  0.00  0.00    +0.000 HD
ENDBRANCH  27  28
BRANCH  27  31
ATOM     31  C   UNL     1      -3.460   4.930 127.505  0.00  0.00    +0.000 C 
ATOM     32  O   UNL     1      -2.678   4.886 128.490  0.00  0.00    +0.000 OA
ATOM     33  OXT UNL     1      -4.379   5.769 127.231  0.00  0.00    +0.000 OA
ENDBRANCH  27  31
ENDBRANCH  26  27
ENDBRANCH  25  26
ENDBRANCH  24  25
ENDBRANCH  22  24
ENDBRANCH   1  22
TORSDOF 10
ENDMDL
MODEL 6
REMARK VINA RESULT:      -6.6      2.548      6.597
REMARK  Name = Ademetionine
REMARK  11 active torsions:
REMARK  status: ('A' for Active; 'I' for Inactive)
REMARK    1  A    between atoms: C_1  and  S_2
REMARK    2  A    between atoms: S_2  and  C_3
REMARK    3  A    between atoms: S_2  and  C_10
REMARK    4  A    between atoms: C_3  and  C_4
REMARK    5  A    between atoms: C_4  and  CA_5
REMARK    6  A    between atoms: CA_5  and  N_6
REMARK    7  A    between atoms: CA_5  and  C_7
REMARK    8  A    between atoms: C_10  and  C_11
REMARK    9  A    between atoms: C_13  and  N_18
REMARK   10  A    between atoms: C_14  and  O_15
REMARK   11  A    between atoms: C_16  and  O_17
REMARK                            x       y       z     vdW  Elec       q    Type
REMARK                         _______ _______ _______ _____ _____    ______ ____
ROOT
ATOM      1  C   UNL     1      -7.550   4.393 128.968  0.00  0.00    +0.000 C 
ATOM      2  O   UNL     1      -7.535   4.905 127.600  0.00  0.00    +0.000 OA
ATOM      3  C   UNL     1      -7.894   3.842 126.684  0.00  0.00    +0.000 C 
ATOM      4  C   UNL     1      -7.945   2.531 127.457  0.00  0.00    +0.000 C 
ATOM      5  C   UNL     1      -8.161   2.988 128.915  0.00  0.00    +0.000 C 
ENDROOT
BRANCH   3   6
ATOM      6  N   UNL     1      -7.042   3.824 125.487  0.00  0.00    +0.000 N 
ATOM      7  C   UNL     1      -5.719   4.209 125.494  0.00  0.00    +0.000 A 
ATOM      8  N   UNL     1      -5.176   4.219 124.291  0.00  0.00    +0.000 NA
ATOM      9  C   UNL     1      -6.197   3.855 123.439  0.00  0.00    +0.000 A 
ATOM     10  C   UNL     1      -7.332   3.580 124.166  0.00  0.00    +0.000 A 
ATOM     11  N   UNL     1      -8.454   3.159 123.616  0.00  0.00    +0.000 NA
ATOM     12  C   UNL     1      -8.492   3.135 122.286  0.00  0.00    +0.000 A 
ATOM     13  N   UNL     1      -7.470   3.352 121.470  0.00  0.00    +0.000 NA
ATOM     14  C   UNL     1      -6.296   3.675 122.042  0.00  0.00    +0.000 A 
ATOM     15  N   UNL     1      -5.235   3.772 121.179  0.00  0.00    +0.000 N 
ATOM     16  H   UNL     1      -5.475   3.730 120.200  0.00  0.00    +0.000 HD
ATOM     17  H   UNL     1      -4.371   4.132 121.542  0.00  0.00    +0.000 HD
ENDBRANCH   3   6
BRANCH   4  18
ATOM     18  O   UNL     1      -8.962   1.648 126.975  0.00  0.00    +0.000 OA
ATOM     19  H   UNL     1      -8.841   1.534 126.018  0.00  0.00    +0.000 HD
ENDBRANCH   4  18
BRANCH   5  20
ATOM     20  O   UNL     1      -9.569   3.012 129.225  0.00  0.00    +0.000 OA
ATOM     21  H   UNL     1     -10.044   3.414 128.484  0.00  0.00    +0.000 HD
ENDBRANCH   5  20
BRANCH   1  22
ATOM     22  C   UNL     1      -6.145   4.465 129.644  0.00  0.00    +0.000 C 
BRANCH  22  24
ATOM     23  C   UNL     1      -5.804   6.995 131.035  0.00  0.00    +0.000 C 
ATOM     24  S   UNL     1      -6.182   5.293 131.196  0.00  0.00    +0.000 S 
BRANCH  24  25
ATOM     25  C   UNL     1      -7.825   5.332 131.864  0.00  0.00    +0.000 C 
BRANCH  25  26
ATOM     26  C   UNL     1      -8.622   6.567 131.417  0.00  0.00    +0.000 C 
BRANCH  26  27
ATOM     27  CA  UNL     1     -10.124   6.309 131.236  0.00  0.00    +0.000 C 
BRANCH  27  28
ATOM     28  N   UNL     1     -10.527   4.895 131.540  0.00  0.00    +0.000 NA
ATOM     29  H1  UNL     1      -9.778   4.332 131.121  0.00  0.00    +0.000 HD
ATOM     30  H2  UNL     1     -11.281   4.690 130.877  0.00  0.00    +0.000 HD
ENDBRANCH  27  28
BRANCH  27  31
ATOM     31  C   UNL     1     -10.466   6.680 129.756  0.00  0.00    +0.000 C 
ATOM     32  O   UNL     1     -10.716   5.701 129.007  0.00  0.00    +0.000 OA
ATOM     33  OXT UNL     1     -10.440   7.926 129.490  0.00  0.00    +0.000 OA
ENDBRANCH  27  31
ENDBRANCH  26  27
ENDBRANCH  25  26
ENDBRANCH  24  25
ENDBRANCH  22  24
ENDBRANCH   1  22
TORSDOF 10
ENDMDL
MODEL 7
REMARK VINA RESULT:      -6.5      5.316      7.930
REMARK  Name = Ademetionine
REMARK  11 active torsions:
REMARK  status: ('A' for Active; 'I' for Inactive)
REMARK    1  A    between atoms: C_1  and  S_2
REMARK    2  A    between atoms: S_2  and  C_3
REMARK    3  A    between atoms: S_2  and  C_10
REMARK    4  A    between atoms: C_3  and  C_4
REMARK    5  A    between atoms: C_4  and  CA_5
REMARK    6  A    between atoms: CA_5  and  N_6
REMARK    7  A    between atoms: CA_5  and  C_7
REMARK    8  A    between atoms: C_10  and  C_11
REMARK    9  A    between atoms: C_13  and  N_18
REMARK   10  A    between atoms: C_14  and  O_15
REMARK   11  A    between atoms: C_16  and  O_17
REMARK                            x       y       z     vdW  Elec       q    Type
REMARK                         _______ _______ _______ _____ _____    ______ ____
ROOT
ATOM      1  C   UNL     1      -5.172   3.953 126.023  0.00  0.00    +0.000 C 
ATOM      2  O   UNL     1      -5.248   2.856 125.062  0.00  0.00    +0.000 OA
ATOM      3  C   UNL     1      -6.591   2.778 124.525  0.00  0.00    +0.000 C 
ATOM      4  C   UNL     1      -7.485   3.724 125.315  0.00  0.00    +0.000 C 
ATOM      5  C   UNL     1      -6.487   4.735 125.918  0.00  0.00    +0.000 C 
ENDROOT
BRANCH   3   6
ATOM      6  N   UNL     1      -7.078   1.395 124.436  0.00  0.00    +0.000 N 
ATOM      7  C   UNL     1      -6.371   0.311 124.909  0.00  0.00    +0.000 A 
ATOM      8  N   UNL     1      -6.943  -0.844 124.626  0.00  0.00    +0.000 NA
ATOM      9  C   UNL     1      -8.066  -0.514 123.900  0.00  0.00    +0.000 A 
ATOM     10  C   UNL     1      -8.174   0.854 123.808  0.00  0.00    +0.000 A 
ATOM     11  N   UNL     1      -9.182   1.458 123.209  0.00  0.00    +0.000 NA
ATOM     12  C   UNL     1     -10.047   0.676 122.566  0.00  0.00    +0.000 A 
ATOM     13  N   UNL     1     -10.073  -0.649 122.594  0.00  0.00    +0.000 NA
ATOM     14  C   UNL     1      -9.103  -1.260 123.298  0.00  0.00    +0.000 A 
ATOM     15  N   UNL     1      -9.232  -2.622 123.406  0.00  0.00    +0.000 N 
ATOM     16  H   UNL     1      -9.954  -3.029 122.832  0.00  0.00    +0.000 HD
ATOM     17  H   UNL     1      -8.468  -3.130 123.813  0.00  0.00    +0.000 HD
ENDBRANCH   3   6
BRANCH   4  18
ATOM     18  O   UNL     1      -8.495   4.330 124.503  0.00  0.00    +0.000 OA
ATOM     19  H   UNL     1      -8.889   3.644 123.940  0.00  0.00    +0.000 HD
ENDBRANCH   4  18
BRANCH   5  20
ATOM     20  O   UNL     1      -6.352   5.880 125.052  0.00  0.00    +0.000 OA
ATOM     21  H   UNL     1      -5.482   6.278 125.195  0.00  0.00    +0.000 HD
ENDBRANCH   5  20
BRANCH   1  22
ATOM     22  C   UNL     1      -4.825   3.459 127.462  0.00  0.00    +0.000 C 
BRANCH  22  24
ATOM     23  C   UNL     1      -2.011   3.225 126.769  0.00  0.00    +0.000 C 
ATOM     24  S   UNL     1      -3.171   3.838 127.928  0.00  0.00    +0.000 S 
BRANCH  24  25
ATOM     25  C   UNL     1      -2.874   5.586 127.874  0.00  0.00    +0.000 C 
BRANCH  25  26
ATOM     26  C   UNL     1      -2.682   6.202 129.268  0.00  0.00    +0.000 C 
BRANCH  26  27
ATOM     27  CA  UNL     1      -3.899   6.990 129.775  0.00  0.00    +0.000 C 
BRANCH  27  28
ATOM     28  N   UNL     1      -4.089   8.307 129.078  0.00  0.00    +0.000 NA
ATOM     29  H1  UNL     1      -4.411   8.932 129.826  0.00  0.00    +0.000 HD
ATOM     30  H2  UNL     1      -4.966   8.202 128.559  0.00  0.00    +0.000 HD
ENDBRANCH  27  28
BRANCH  27  31
ATOM     31  C   UNL     1      -3.689   7.195 131.310  0.00  0.00    +0.000 C 
ATOM     32  O   UNL     1      -4.633   6.789 132.035  0.00  0.00    +0.000 OA
ATOM     33  OXT UNL     1      -2.592   7.757 131.637  0.00  0.00    +0.000 OA
ENDBRANCH  27  31
ENDBRANCH  26  27
ENDBRANCH  25  26
ENDBRANCH  24  25
ENDBRANCH  22  24
ENDBRANCH   1  22
TORSDOF 10
ENDMDL
MODEL 8
REMARK VINA RESULT:      -6.5      4.230      7.947
REMARK  Name = Ademetionine
REMARK  11 active torsions:
REMARK  status: ('A' for Active; 'I' for Inactive)
REMARK    1  A    between atoms: C_1  and  S_2
REMARK    2  A    between atoms: S_2  and  C_3
REMARK    3  A    between atoms: S_2  and  C_10
REMARK    4  A    between atoms: C_3  and  C_4
REMARK    5  A    between atoms: C_4  and  CA_5
REMARK    6  A    between atoms: CA_5  and  N_6
REMARK    7  A    between atoms: CA_5  and  C_7
REMARK    8  A    between atoms: C_10  and  C_11
REMARK    9  A    between atoms: C_13  and  N_18
REMARK   10  A    between atoms: C_14  and  O_15
REMARK   11  A    between atoms: C_16  and  O_17
REMARK                            x       y       z     vdW  Elec       q    Type
REMARK                         _______ _______ _______ _____ _____    ______ ____
ROOT
ATOM      1  C   UNL     1      -7.153   3.793 126.858  0.00  0.00    +0.000 C 
ATOM      2  O   UNL     1      -6.926   2.429 126.387  0.00  0.00    +0.000 OA
ATOM      3  C   UNL     1      -7.500   2.273 125.067  0.00  0.00    +0.000 C 
ATOM      4  C   UNL     1      -8.317   3.516 124.742  0.00  0.00    +0.000 C 
ATOM      5  C   UNL     1      -7.714   4.589 125.674  0.00  0.00    +0.000 C 
ENDROOT
BRANCH   3   6
ATOM      6  N   UNL     1      -8.221   1.001 124.918  0.00  0.00    +0.000 N 
ATOM      7  C   UNL     1      -9.328   0.666 125.666  0.00  0.00    +0.000 A 
ATOM      8  N   UNL     1      -9.749  -0.565 125.446  0.00  0.00    +0.000 NA
ATOM      9  C   UNL     1      -8.857  -1.086 124.533  0.00  0.00    +0.000 A 
ATOM     10  C   UNL     1      -7.939  -0.124 124.181  0.00  0.00    +0.000 A 
ATOM     11  N   UNL     1      -6.994  -0.326 123.284  0.00  0.00    +0.000 NA
ATOM     12  C   UNL     1      -6.872  -1.567 122.817  0.00  0.00    +0.000 A 
ATOM     13  N   UNL     1      -7.698  -2.577 123.054  0.00  0.00    +0.000 NA
ATOM     14  C   UNL     1      -8.728  -2.334 123.886  0.00  0.00    +0.000 A 
ATOM     15  N   UNL     1      -9.628  -3.361 124.013  0.00  0.00    +0.000 N 
ATOM     16  H   UNL     1      -9.348  -4.230 123.582  0.00  0.00    +0.000 HD
ATOM     17  H   UNL     1     -10.339  -3.273 124.715  0.00  0.00    +0.000 HD
ENDBRANCH   3   6
BRANCH   4  18
ATOM     18  O   UNL     1      -8.262   3.863 123.356  0.00  0.00    +0.000 OA
ATOM     19  H   UNL     1      -7.684   4.637 123.256  0.00  0.00    +0.000 HD
ENDBRANCH   4  18
BRANCH   5  20
ATOM     20  O   UNL     1      -6.676   5.317 124.988  0.00  0.00    +0.000 OA
ATOM     21  H   UNL     1      -6.743   5.136 124.039  0.00  0.00    +0.000 HD
ENDBRANCH   5  20
BRANCH   1  22
ATOM     22  C   UNL     1      -8.034   3.837 128.145  0.00  0.00    +0.000 C 
BRANCH  22  24
ATOM     23  C   UNL     1      -5.549   4.859 129.256  0.00  0.00    +0.000 C 
ATOM     24  S   UNL     1      -7.088   4.099 129.605  0.00  0.00    +0.000 S 
BRANCH  24  25
ATOM     25  C   UNL     1      -7.864   5.287 130.669  0.00  0.00    +0.000 C 
BRANCH  25  26
ATOM     26  C   UNL     1      -9.274   5.678 130.199  0.00  0.00    +0.000 C 
BRANCH  26  27
ATOM     27  CA  UNL     1     -10.402   5.132 131.086  0.00  0.00    +0.000 C 
BRANCH  27  28
ATOM     28  N   UNL     1     -10.547   3.639 131.015  0.00  0.00    +0.000 NA
ATOM     29  H1  UNL     1     -10.923   3.387 131.936  0.00  0.00    +0.000 HD
ATOM     30  H2  UNL     1      -9.593   3.280 131.119  0.00  0.00    +0.000 HD
ENDBRANCH  27  28
BRANCH  27  31
ATOM     31  C   UNL     1     -11.715   5.843 130.625  0.00  0.00    +0.000 C 
ATOM     32  O   UNL     1     -12.340   6.447 131.535  0.00  0.00    +0.000 OA
ATOM     33  OXT UNL     1     -11.996   5.716 129.389  0.00  0.00    +0.000 OA
ENDBRANCH  27  31
ENDBRANCH  26  27
ENDBRANCH  25  26
ENDBRANCH  24  25
ENDBRANCH  22  24
ENDBRANCH   1  22
TORSDOF 10
ENDMDL
MODEL 9
REMARK VINA RESULT:      -6.5      5.146      7.686
REMARK  Name = Ademetionine
REMARK  11 active torsions:
REMARK  status: ('A' for Active; 'I' for Inactive)
REMARK    1  A    between atoms: C_1  and  S_2
REMARK    2  A    between atoms: S_2  and  C_3
REMARK    3  A    between atoms: S_2  and  C_10
REMARK    4  A    between atoms: C_3  and  C_4
REMARK    5  A    between atoms: C_4  and  CA_5
REMARK    6  A    between atoms: CA_5  and  N_6
REMARK    7  A    between atoms: CA_5  and  C_7
REMARK    8  A    between atoms: C_10  and  C_11
REMARK    9  A    between atoms: C_13  and  N_18
REMARK   10  A    between atoms: C_14  and  O_15
REMARK   11  A    between atoms: C_16  and  O_17
REMARK                            x       y       z     vdW  Elec       q    Type
REMARK                         _______ _______ _______ _____ _____    ______ ____
ROOT
ATOM      1  C   UNL     1      -6.772   3.835 126.609  0.00  0.00    +0.000 C 
ATOM      2  O   UNL     1      -6.620   2.462 126.135  0.00  0.00    +0.000 OA
ATOM      3  C   UNL     1      -7.340   2.300 124.889  0.00  0.00    +0.000 C 
ATOM      4  C   UNL     1      -8.169   3.553 124.640  0.00  0.00    +0.000 C 
ATOM      5  C   UNL     1      -7.449   4.627 125.483  0.00  0.00    +0.000 C 
ENDROOT
BRANCH   3   6
ATOM      6  N   UNL     1      -8.093   1.039 124.839  0.00  0.00    +0.000 N 
ATOM      7  C   UNL     1      -9.199   0.786 125.620  0.00  0.00    +0.000 A 
ATOM      8  N   UNL     1      -9.652  -0.447 125.493  0.00  0.00    +0.000 NA
ATOM      9  C   UNL     1      -8.784  -1.053 124.611  0.00  0.00    +0.000 A 
ATOM     10  C   UNL     1      -7.848  -0.142 124.181  0.00  0.00    +0.000 A 
ATOM     11  N   UNL     1      -6.918  -0.432 123.292  0.00  0.00    +0.000 NA
ATOM     12  C   UNL     1      -6.832  -1.705 122.913  0.00  0.00    +0.000 A 
ATOM     13  N   UNL     1      -7.679  -2.675 123.231  0.00  0.00    +0.000 NA
ATOM     14  C   UNL     1      -8.693  -2.348 124.054  0.00  0.00    +0.000 A 
ATOM     15  N   UNL     1      -9.616  -3.340 124.262  0.00  0.00    +0.000 N 
ATOM     16  H   UNL     1      -9.362  -4.244 123.893  0.00  0.00    +0.000 HD
ATOM     17  H   UNL     1     -10.317  -3.184 124.964  0.00  0.00    +0.000 HD
ENDBRANCH   3   6
BRANCH   4  18
ATOM     18  O   UNL     1      -8.263   3.882 123.251  0.00  0.00    +0.000 OA
ATOM     19  H   UNL     1      -8.337   4.847 123.169  0.00  0.00    +0.000 HD
ENDBRANCH   4  18
BRANCH   5  20
ATOM     20  O   UNL     1      -6.482   5.328 124.676  0.00  0.00    +0.000 OA
ATOM     21  H   UNL     1      -5.673   4.798 124.627  0.00  0.00    +0.000 HD
ENDBRANCH   5  20
BRANCH   1  22
ATOM     22  C   UNL     1      -7.504   3.910 127.986  0.00  0.00    +0.000 C 
BRANCH  22  24
ATOM     23  C   UNL     1      -6.022   3.054 130.336  0.00  0.00    +0.000 C 
ATOM     24  S   UNL     1      -6.435   4.400 129.295  0.00  0.00    +0.000 S 
BRANCH  24  25
ATOM     25  C   UNL     1      -4.850   4.901 128.676  0.00  0.00    +0.000 C 
BRANCH  25  26
ATOM     26  C   UNL     1      -3.832   3.751 128.641  0.00  0.00    +0.000 C 
BRANCH  26  27
ATOM     27  CA  UNL     1      -2.463   4.146 128.070  0.00  0.00    +0.000 C 
BRANCH  27  28
ATOM     28  N   UNL     1      -2.276   5.631 127.942  0.00  0.00    +0.000 NA
ATOM     29  H1  UNL     1      -2.996   5.909 127.265  0.00  0.00    +0.000 HD
ATOM     30  H2  UNL     1      -1.444   5.738 127.354  0.00  0.00    +0.000 HD
ENDBRANCH  27  28
BRANCH  27  31
ATOM     31  C   UNL     1      -2.342   3.447 126.677  0.00  0.00    +0.000 C 
ATOM     32  O   UNL     1      -1.340   2.696 126.544  0.00  0.00    +0.000 OA
ATOM     33  OXT UNL     1      -3.266   3.728 125.846  0.00  0.00    +0.000 OA
ENDBRANCH  27  31
ENDBRANCH  26  27
ENDBRANCH  25  26
ENDBRANCH  24  25
ENDBRANCH  22  24
ENDBRANCH   1  22
TORSDOF 10
ENDMDL
