MODEL 1
REMARK VINA RESULT:      -6.3      0.000      0.000
REMARK  Name = Adenosine
REMARK  6 active torsions:
REMARK  status: ('A' for Active; 'I' for Inactive)
REMARK    1  A    between atoms: N6_1  and  C6_2
REMARK    2  A    between atoms: N9_6  and  C1*_7
REMARK    3  A    between atoms: C4*_9  and  C5*_10
REMARK    4  A    between atoms: C5*_10  and  O5*_11
REMARK    5  A    between atoms: C3*_12  and  O3*_13
REMARK    6  A    between atoms: C2*_14  and  O2*_15
REMARK                            x       y       z     vdW  Elec       q    Type
REMARK                         _______ _______ _______ _____ _____    ______ ____
ROOT
ATOM      1  C6    A A   1     -11.316   7.796 127.527  0.00  0.00    +0.000 A 
ATOM      2  C5    A A   1     -10.575   6.924 128.341  0.00  0.00    +0.000 A 
ATOM      3  N7    A A   1      -9.481   6.124 128.093  0.00  0.00    +0.000 NA
ATOM      4  C8    A A   1      -9.221   5.544 129.247  0.00  0.00    +0.000 A 
ATOM      5  N9    A A   1     -10.104   5.926 130.224  0.00  0.00    +0.000 N 
ATOM      6  C4    A A   1     -10.981   6.816 129.665  0.00  0.00    +0.000 A 
ATOM      7  N3    A A   1     -11.995   7.464 130.254  0.00  0.00    +0.000 NA
ATOM      8  C2    A A   1     -12.630   8.271 129.378  0.00  0.00    +0.000 A 
ATOM      9  N1    A A   1     -12.354   8.468 128.071  0.00  0.00    +0.000 NA
ENDROOT
BRANCH   5  10
ATOM     10  C1*   A A   1     -10.033   5.513 131.609  0.00  0.00    +0.000 C 
ATOM     11  O4*   A A   1      -9.226   6.438 132.361  0.00  0.00    +0.000 OA
ATOM     12  C4*   A A   1      -8.355   5.684 133.230  0.00  0.00    +0.000 C 
ATOM     13  C3*   A A   1      -8.808   4.218 133.175  0.00  0.00    +0.000 C 
ATOM     14  C2*   A A   1      -9.480   4.106 131.815  0.00  0.00    +0.000 C 
BRANCH  13  15
ATOM     15  O3*   A A   1      -9.768   3.927 134.207  0.00  0.00    +0.000 OA
ATOM     16  H3*   A A   1      -9.338   3.437 134.927  0.00  0.00    +0.000 HD
ENDBRANCH  13  15
BRANCH  14  17
ATOM     17  O2*   A A   1     -10.518   3.125 131.777  0.00  0.00    +0.000 OA
ATOM     18  H2*   A A   1     -10.375   2.569 130.988  0.00  0.00    +0.000 HD
ENDBRANCH  14  17
BRANCH  12  19
ATOM     19  C5*   A A   1      -6.898   5.881 132.806  0.00  0.00    +0.000 C 
BRANCH  19  20
ATOM     20  O5*   A A   1      -6.805   6.739 131.676  0.00  0.00    +0.000 OA
ATOM     21  H5*   A A   1      -7.274   7.566 131.884  0.00  0.00    +0.000 HD
ENDBRANCH  19  20
ENDBRANCH  12  19
ENDBRANCH   5  10
BRANCH   1  22
ATOM     22  N6    A A   1     -11.021   7.994 126.197  0.00  0.00    +0.000 N 
ATOM     23  H61   A A   1     -11.763   8.267 125.570  0.00  0.00    +0.000 HD
ATOM     24  H62   A A   1     -10.072   7.858 125.888  0.00  0.00    +0.000 HD
ENDBRANCH   1  22
TORSDOF 6
ENDMDL
MODEL 2
REMARK VINA RESULT:      -6.3      1.534      2.962
REMARK  Name = Adenosine
REMARK  6 active torsions:
REMARK  status: ('A' for Active; 'I' for Inactive)
REMARK    1  A    between atoms: N6_1  and  C6_2
REMARK    2  A    between atoms: N9_6  and  C1*_7
REMARK    3  A    between atoms: C4*_9  and  C5*_10
REMARK    4  A    between atoms: C5*_10  and  O5*_11
REMARK    5  A    between atoms: C3*_12  and  O3*_13
REMARK    6  A    between atoms: C2*_14  and  O2*_15
REMARK                            x       y       z     vdW  Elec       q    Type
REMARK                         _______ _______ _______ _____ _____    ______ ____
ROOT
ATOM      1  C6    A A   1     -11.937   8.472 128.581  0.00  0.00    +0.000 A 
ATOM      2  C5    A A   1     -11.529   7.518 129.528  0.00  0.00    +0.000 A 
ATOM      3  N7    A A   1     -11.879   7.306 130.844  0.00  0.00    +0.000 NA
ATOM      4  C8    A A   1     -11.178   6.253 131.212  0.00  0.00    +0.000 A 
ATOM      5  N9    A A   1     -10.386   5.784 130.195  0.00  0.00    +0.000 N 
ATOM      6  C4    A A   1     -10.599   6.579 129.102  0.00  0.00    +0.000 A 
ATOM      7  N3    A A   1     -10.056   6.476 127.882  0.00  0.00    +0.000 NA
ATOM      8  C2    A A   1     -10.522   7.441 127.060  0.00  0.00    +0.000 A 
ATOM      9  N1    A A   1     -11.414   8.416 127.337  0.00  0.00    +0.000 NA
ENDROOT
BRANCH   5  10
ATOM     10  C1*   A A   1      -9.557   4.600 130.274  0.00  0.00    +0.000 C 
ATOM     11  O4*   A A   1      -9.956   3.789 131.393  0.00  0.00    +0.000 OA
ATOM     12  C4*   A A   1      -8.769   3.333 132.076  0.00  0.00    +0.000 C 
ATOM     13  C3*   A A   1      -7.566   3.698 131.196  0.00  0.00    +0.000 C 
ATOM     14  C2*   A A   1      -8.063   4.889 130.391  0.00  0.00    +0.000 C 
BRANCH  13  15
ATOM     15  O3*   A A   1      -7.226   2.625 130.300  0.00  0.00    +0.000 OA
ATOM     16  H3*   A A   1      -7.804   2.653 129.519  0.00  0.00    +0.000 HD
ENDBRANCH  13  15
BRANCH  14  17
ATOM     17  O2*   A A   1      -7.449   4.999 129.106  0.00  0.00    +0.000 OA
ATOM     18  H2*   A A   1      -6.607   4.507 129.134  0.00  0.00    +0.000 HD
ENDBRANCH  14  17
BRANCH  12  19
ATOM     19  C5*   A A   1      -8.703   3.950 133.475  0.00  0.00    +0.000 C 
BRANCH  19  20
ATOM     20  O5*   A A   1      -9.978   3.927 134.105  0.00  0.00    +0.000 OA
ATOM     21  H5*   A A   1     -10.635   4.267 133.473  0.00  0.00    +0.000 HD
ENDBRANCH  19  20
ENDBRANCH  12  19
ENDBRANCH   5  10
BRANCH   1  22
ATOM     22  N6    A A   1     -12.852   9.458 128.872  0.00  0.00    +0.000 N 
ATOM     23  H61   A A   1     -12.521  10.400 129.017  0.00  0.00    +0.000 HD
ATOM     24  H62   A A   1     -13.826   9.210 128.934  0.00  0.00    +0.000 HD
ENDBRANCH   1  22
TORSDOF 6
ENDMDL
MODEL 3
REMARK VINA RESULT:      -6.2      8.138      9.852
REMARK  Name = Adenosine
REMARK  6 active torsions:
REMARK  status: ('A' for Active; 'I' for Inactive)
REMARK    1  A    between atoms: N6_1  and  C6_2
REMARK    2  A    between atoms: N9_6  and  C1*_7
REMARK    3  A    between atoms: C4*_9  and  C5*_10
REMARK    4  A    between atoms: C5*_10  and  O5*_11
REMARK    5  A    between atoms: C3*_12  and  O3*_13
REMARK    6  A    between atoms: C2*_14  and  O2*_15
REMARK                            x       y       z     vdW  Elec       q    Type
REMARK                         _______ _______ _______ _____ _____    ______ ____
ROOT
ATOM      1  C6    A A   1      -5.585   5.190 119.921  0.00  0.00    +0.000 A 
ATOM      2  C5    A A   1      -6.594   4.411 120.512  0.00  0.00    +0.000 A 
ATOM      3  N7    A A   1      -7.828   3.994 120.063  0.00  0.00    +0.000 NA
ATOM      4  C8    A A   1      -8.320   3.276 121.053  0.00  0.00    +0.000 A 
ATOM      5  N9    A A   1      -7.462   3.222 122.122  0.00  0.00    +0.000 N 
ATOM      6  C4    A A   1      -6.345   3.940 121.794  0.00  0.00    +0.000 A 
ATOM      7  N3    A A   1      -5.240   4.138 122.526  0.00  0.00    +0.000 NA
ATOM      8  C2    A A   1      -4.344   4.897 121.859  0.00  0.00    +0.000 A 
ATOM      9  N1    A A   1      -4.454   5.426 120.621  0.00  0.00    +0.000 NA
ENDROOT
BRANCH   5  10
ATOM     10  C1*   A A   1      -7.692   2.454 123.327  0.00  0.00    +0.000 C 
ATOM     11  O4*   A A   1      -7.578   1.047 123.046  0.00  0.00    +0.000 OA
ATOM     12  C4*   A A   1      -8.659   0.358 123.711  0.00  0.00    +0.000 C 
ATOM     13  C3*   A A   1      -9.347   1.371 124.637  0.00  0.00    +0.000 C 
ATOM     14  C2*   A A   1      -9.044   2.711 123.985  0.00  0.00    +0.000 C 
BRANCH  13  15
ATOM     15  O3*   A A   1      -8.777   1.344 125.958  0.00  0.00    +0.000 OA
ATOM     16  H3*   A A   1      -7.808   1.386 125.899  0.00  0.00    +0.000 HD
ENDBRANCH  13  15
BRANCH  14  17
ATOM     17  O2*   A A   1      -8.975   3.791 124.917  0.00  0.00    +0.000 OA
ATOM     18  H2*   A A   1      -9.441   4.554 124.525  0.00  0.00    +0.000 HD
ENDBRANCH  14  17
BRANCH  12  19
ATOM     19  C5*   A A   1      -9.606  -0.250 122.673  0.00  0.00    +0.000 C 
BRANCH  19  20
ATOM     20  O5*   A A   1     -10.873   0.396 122.695  0.00  0.00    +0.000 OA
ATOM     21  H5*   A A   1     -10.970   0.902 121.870  0.00  0.00    +0.000 HD
ENDBRANCH  19  20
ENDBRANCH  12  19
ENDBRANCH   5  10
BRANCH   1  22
ATOM     22  N6    A A   1      -5.705   5.720 118.656  0.00  0.00    +0.000 N 
ATOM     23  H61   A A   1      -5.905   5.099 117.887  0.00  0.00    +0.000 HD
ATOM     24  H62   A A   1      -5.587   6.713 118.536  0.00  0.00    +0.000 HD
ENDBRANCH   1  22
TORSDOF 6
ENDMDL
MODEL 4
REMARK VINA RESULT:      -6.1      1.378      2.328
REMARK  Name = Adenosine
REMARK  6 active torsions:
REMARK  status: ('A' for Active; 'I' for Inactive)
REMARK    1  A    between atoms: N6_1  and  C6_2
REMARK    2  A    between atoms: N9_6  and  C1*_7
REMARK    3  A    between atoms: C4*_9  and  C5*_10
REMARK    4  A    between atoms: C5*_10  and  O5*_11
REMARK    5  A    between atoms: C3*_12  and  O3*_13
REMARK    6  A    between atoms: C2*_14  and  O2*_15
REMARK                            x       y       z     vdW  Elec       q    Type
REMARK                         _______ _______ _______ _____ _____    ______ ____
ROOT
ATOM      1  C6    A A   1     -12.336   8.728 128.766  0.00  0.00    +0.000 A 
ATOM      2  C5    A A   1     -12.176   7.988 129.949  0.00  0.00    +0.000 A 
ATOM      3  N7    A A   1     -12.917   7.917 131.109  0.00  0.00    +0.000 NA
ATOM      4  C8    A A   1     -12.282   7.040 131.859  0.00  0.00    +0.000 A 
ATOM      5  N9    A A   1     -11.161   6.550 131.239  0.00  0.00    +0.000 N 
ATOM      6  C4    A A   1     -11.076   7.143 130.008  0.00  0.00    +0.000 A 
ATOM      7  N3    A A   1     -10.156   6.947 129.054  0.00  0.00    +0.000 NA
ATOM      8  C2    A A   1     -10.412   7.707 127.968  0.00  0.00    +0.000 A 
ATOM      9  N1    A A   1     -11.431   8.573 127.775  0.00  0.00    +0.000 NA
ENDROOT
BRANCH   5  10
ATOM     10  C1*   A A   1     -10.299   5.523 131.782  0.00  0.00    +0.000 C 
ATOM     11  O4*   A A   1      -9.060   6.102 132.230  0.00  0.00    +0.000 OA
ATOM     12  C4*   A A   1      -7.975   5.252 131.803  0.00  0.00    +0.000 C 
ATOM     13  C3*   A A   1      -8.594   3.959 131.254  0.00  0.00    +0.000 C 
ATOM     14  C2*   A A   1      -9.981   4.392 130.807  0.00  0.00    +0.000 C 
BRANCH  13  15
ATOM     15  O3*   A A   1      -8.714   2.959 132.282  0.00  0.00    +0.000 OA
ATOM     16  H3*   A A   1      -8.678   2.073 131.885  0.00  0.00    +0.000 HD
ENDBRANCH  13  15
BRANCH  14  17
ATOM     17  O2*   A A   1     -10.953   3.347 130.885  0.00  0.00    +0.000 OA
ATOM     18  H2*   A A   1     -10.479   2.512 131.058  0.00  0.00    +0.000 HD
ENDBRANCH  14  17
BRANCH  12  19
ATOM     19  C5*   A A   1      -7.109   5.988 130.778  0.00  0.00    +0.000 C 
BRANCH  19  20
ATOM     20  O5*   A A   1      -7.577   7.315 130.571  0.00  0.00    +0.000 OA
ATOM     21  H5*   A A   1      -8.424   7.268 130.095  0.00  0.00    +0.000 HD
ENDBRANCH  19  20
ENDBRANCH  12  19
ENDBRANCH   5  10
BRANCH   1  22
ATOM     22  N6    A A   1     -13.382   9.603 128.577  0.00  0.00    +0.000 N 
ATOM     23  H61   A A   1     -14.320   9.237 128.532  0.00  0.00    +0.000 HD
ATOM     24  H62   A A   1     -13.178  10.586 128.487  0.00  0.00    +0.000 HD
ENDBRANCH   1  22
TORSDOF 6
ENDMDL
MODEL 5
REMARK VINA RESULT:      -5.9      7.336      8.836
REMARK  Name = Adenosine
REMARK  6 active torsions:
REMARK  status: ('A' for Active; 'I' for Inactive)
REMARK    1  A    between atoms: N6_1  and  C6_2
REMARK    2  A    between atoms: N9_6  and  C1*_7
REMARK    3  A    between atoms: C4*_9  and  C5*_10
REMARK    4  A    between atoms: C5*_10  and  O5*_11
REMARK    5  A    between atoms: C3*_12  and  O3*_13
REMARK    6  A    between atoms: C2*_14  and  O2*_15
REMARK                            x       y       z     vdW  Elec       q    Type
REMARK                         _______ _______ _______ _____ _____    ______ ____
ROOT
ATOM      1  C6    A A   1      -9.104  -1.388 123.204  0.00  0.00    +0.000 A 
ATOM      2  C5    A A   1      -8.131  -0.560 123.788  0.00  0.00    +0.000 A 
ATOM      3  N7    A A   1      -6.969  -0.833 124.477  0.00  0.00    +0.000 NA
ATOM      4  C8    A A   1      -6.466   0.349 124.768  0.00  0.00    +0.000 A 
ATOM      5  N9    A A   1      -7.256   1.371 124.308  0.00  0.00    +0.000 N 
ATOM      6  C4    A A   1      -8.330   0.810 123.671  0.00  0.00    +0.000 A 
ATOM      7  N3    A A   1      -9.343   1.428 123.050  0.00  0.00    +0.000 NA
ATOM      8  C2    A A   1     -10.211   0.535 122.529  0.00  0.00    +0.000 A 
ATOM      9  N1    A A   1     -10.150  -0.813 122.572  0.00  0.00    +0.000 NA
ENDROOT
BRANCH   5  10
ATOM     10  C1*   A A   1      -6.933   2.777 124.414  0.00  0.00    +0.000 C 
ATOM     11  O4*   A A   1      -5.519   2.946 124.624  0.00  0.00    +0.000 OA
ATOM     12  C4*   A A   1      -5.323   3.945 125.646  0.00  0.00    +0.000 C 
ATOM     13  C3*   A A   1      -6.688   4.591 125.923  0.00  0.00    +0.000 C 
ATOM     14  C2*   A A   1      -7.680   3.510 125.525  0.00  0.00    +0.000 C 
BRANCH  13  15
ATOM     15  O3*   A A   1      -6.894   5.754 125.101  0.00  0.00    +0.000 OA
ATOM     16  H3*   A A   1      -6.741   6.558 125.624  0.00  0.00    +0.000 HD
ENDBRANCH  13  15
BRANCH  14  17
ATOM     17  O2*   A A   1      -8.927   4.029 125.062  0.00  0.00    +0.000 OA
ATOM     18  H2*   A A   1      -9.382   4.437 125.823  0.00  0.00    +0.000 HD
ENDBRANCH  14  17
BRANCH  12  19
ATOM     19  C5*   A A   1      -4.696   3.305 126.887  0.00  0.00    +0.000 C 
BRANCH  19  20
ATOM     20  O5*   A A   1      -3.935   2.154 126.540  0.00  0.00    +0.000 OA
ATOM     21  H5*   A A   1      -3.018   2.298 126.832  0.00  0.00    +0.000 HD
ENDBRANCH  19  20
ENDBRANCH  12  19
ENDBRANCH   5  10
BRANCH   1  22
ATOM     22  N6    A A   1      -9.029  -2.761 123.249  0.00  0.00    +0.000 N 
ATOM     23  H61   A A   1      -8.161  -3.192 123.531  0.00  0.00    +0.000 HD
ATOM     24  H62   A A   1      -9.844  -3.297 122.997  0.00  0.00    +0.000 HD
ENDBRANCH   1  22
TORSDOF 6
ENDMDL
MODEL 6
REMARK VINA RESULT:      -5.9      3.088      5.487
REMARK  Name = Adenosine
REMARK  6 active torsions:
REMARK  status: ('A' for Active; 'I' for Inactive)
REMARK    1  A    between atoms: N6_1  and  C6_2
REMARK    2  A    between atoms: N9_6  and  C1*_7
REMARK    3  A    between atoms: C4*_9  and  C5*_10
REMARK    4  A    between atoms: C5*_10  and  O5*_11
REMARK    5  A    between atoms: C3*_12  and  O3*_13
REMARK    6  A    between atoms: C2*_14  and  O2*_15
REMARK                            x       y       z     vdW  Elec       q    Type
REMARK                         _______ _______ _______ _____ _____    ______ ____
ROOT
ATOM      1  C6    A A   1      -7.598   1.919 130.309  0.00  0.00    +0.000 A 
ATOM      2  C5    A A   1      -8.246   3.134 130.030  0.00  0.00    +0.000 A 
ATOM      3  N7    A A   1      -7.919   4.195 129.213  0.00  0.00    +0.000 NA
ATOM      4  C8    A A   1      -8.917   5.044 129.351  0.00  0.00    +0.000 A 
ATOM      5  N9    A A   1      -9.866   4.582 130.227  0.00  0.00    +0.000 N 
ATOM      6  C4    A A   1      -9.457   3.354 130.672  0.00  0.00    +0.000 A 
ATOM      7  N3    A A   1     -10.082   2.528 131.521  0.00  0.00    +0.000 NA
ATOM      8  C2    A A   1      -9.371   1.397 131.711  0.00  0.00    +0.000 A 
ATOM      9  N1    A A   1      -8.184   1.053 131.164  0.00  0.00    +0.000 NA
ENDROOT
BRANCH   5  10
ATOM     10  C1*   A A   1     -11.109   5.258 130.530  0.00  0.00    +0.000 C 
ATOM     11  O4*   A A   1     -11.881   5.438 129.329  0.00  0.00    +0.000 OA
ATOM     12  C4*   A A   1     -12.422   6.776 129.328  0.00  0.00    +0.000 C 
ATOM     13  C3*   A A   1     -12.155   7.379 130.714  0.00  0.00    +0.000 C 
ATOM     14  C2*   A A   1     -10.935   6.616 131.205  0.00  0.00    +0.000 C 
BRANCH  13  15
ATOM     15  O3*   A A   1     -13.258   7.143 131.609  0.00  0.00    +0.000 OA
ATOM     16  H3*   A A   1     -13.059   6.384 132.182  0.00  0.00    +0.000 HD
ENDBRANCH  13  15
BRANCH  14  17
ATOM     17  O2*   A A   1     -10.881   6.490 132.627  0.00  0.00    +0.000 OA
ATOM     18  H2*   A A   1     -11.170   5.587 132.858  0.00  0.00    +0.000 HD
ENDBRANCH  14  17
BRANCH  12  19
ATOM     19  C5*   A A   1     -11.803   7.589 128.188  0.00  0.00    +0.000 C 
BRANCH  19  20
ATOM     20  O5*   A A   1     -11.788   8.977 128.498  0.00  0.00    +0.000 OA
ATOM     21  H5*   A A   1     -10.934   9.186 128.914  0.00  0.00    +0.000 HD
ENDBRANCH  19  20
ENDBRANCH  12  19
ENDBRANCH   5  10
BRANCH   1  22
ATOM     22  N6    A A   1      -6.392   1.576 129.741  0.00  0.00    +0.000 N 
ATOM     23  H61   A A   1      -5.554   2.033 130.068  0.00  0.00    +0.000 HD
ATOM     24  H62   A A   1      -6.383   0.881 129.013  0.00  0.00    +0.000 HD
ENDBRANCH   1  22
TORSDOF 6
ENDMDL
MODEL 7
REMARK VINA RESULT:      -5.8      7.286      9.059
REMARK  Name = Adenosine
REMARK  6 active torsions:
REMARK  status: ('A' for Active; 'I' for Inactive)
REMARK    1  A    between atoms: N6_1  and  C6_2
REMARK    2  A    between atoms: N9_6  and  C1*_7
REMARK    3  A    between atoms: C4*_9  and  C5*_10
REMARK    4  A    between atoms: C5*_10  and  O5*_11
REMARK    5  A    between atoms: C3*_12  and  O3*_13
REMARK    6  A    between atoms: C2*_14  and  O2*_15
REMARK                            x       y       z     vdW  Elec       q    Type
REMARK                         _______ _______ _______ _____ _____    ______ ____
ROOT
ATOM      1  C6    A A   1      -8.731  -2.284 123.995  0.00  0.00    +0.000 A 
ATOM      2  C5    A A   1      -8.806  -1.008 124.577  0.00  0.00    +0.000 A 
ATOM      3  N7    A A   1      -9.662  -0.459 125.507  0.00  0.00    +0.000 NA
ATOM      4  C8    A A   1      -9.230   0.774 125.674  0.00  0.00    +0.000 A 
ATOM      5  N9    A A   1      -8.141   1.047 124.887  0.00  0.00    +0.000 N 
ATOM      6  C4    A A   1      -7.848  -0.085 124.177  0.00  0.00    +0.000 A 
ATOM      7  N3    A A   1      -6.852  -0.284 123.304  0.00  0.00    +0.000 NA
ATOM      8  C2    A A   1      -6.880  -1.541 122.812  0.00  0.00    +0.000 A 
ATOM      9  N1    A A   1      -7.749  -2.533 123.101  0.00  0.00    +0.000 NA
ENDROOT
BRANCH   5  10
ATOM     10  C1*   A A   1      -7.402   2.292 124.901  0.00  0.00    +0.000 C 
ATOM     11  O4*   A A   1      -6.763   2.474 126.178  0.00  0.00    +0.000 OA
ATOM     12  C4*   A A   1      -6.946   3.845 126.591  0.00  0.00    +0.000 C 
ATOM     13  C3*   A A   1      -7.537   4.608 125.397  0.00  0.00    +0.000 C 
ATOM     14  C2*   A A   1      -8.249   3.525 124.601  0.00  0.00    +0.000 C 
BRANCH  13  15
ATOM     15  O3*   A A   1      -6.503   5.194 124.586  0.00  0.00    +0.000 OA
ATOM     16  H3*   A A   1      -6.060   5.904 125.081  0.00  0.00    +0.000 HD
ENDBRANCH  13  15
BRANCH  14  17
ATOM     17  O2*   A A   1      -8.300   3.796 123.199  0.00  0.00    +0.000 OA
ATOM     18  H2*   A A   1      -7.877   3.048 122.735  0.00  0.00    +0.000 HD
ENDBRANCH  14  17
BRANCH  12  19
ATOM     19  C5*   A A   1      -7.830   3.900 127.839  0.00  0.00    +0.000 C 
BRANCH  19  20
ATOM     20  O5*   A A   1      -8.642   5.068 127.840  0.00  0.00    +0.000 OA
ATOM     21  H5*   A A   1      -9.135   5.094 128.678  0.00  0.00    +0.000 HD
ENDBRANCH  19  20
ENDBRANCH  12  19
ENDBRANCH   5  10
BRANCH   1  22
ATOM     22  N6    A A   1      -9.619  -3.289 124.302  0.00  0.00    +0.000 N 
ATOM     23  H61   A A   1     -10.545  -3.041 124.617  0.00  0.00    +0.000 HD
ATOM     24  H62   A A   1      -9.317  -4.245 124.205  0.00  0.00    +0.000 HD
ENDBRANCH   1  22
TORSDOF 6
ENDMDL
MODEL 8
REMARK VINA RESULT:      -5.7      1.744      2.560
REMARK  Name = Adenosine
REMARK  6 active torsions:
REMARK  status: ('A' for Active; 'I' for Inactive)
REMARK    1  A    between atoms: N6_1  and  C6_2
REMARK    2  A    between atoms: N9_6  and  C1*_7
REMARK    3  A    between atoms: C4*_9  and  C5*_10
REMARK    4  A    between atoms: C5*_10  and  O5*_11
REMARK    5  A    between atoms: C3*_12  and  O3*_13
REMARK    6  A    between atoms: C2*_14  and  O2*_15
REMARK                            x       y       z     vdW  Elec       q    Type
REMARK                         _______ _______ _______ _____ _____    ______ ____
ROOT
ATOM      1  C6    A A   1     -12.285   7.190 128.117  0.00  0.00    +0.000 A 
ATOM      2  C5    A A   1     -11.652   6.454 129.132  0.00  0.00    +0.000 A 
ATOM      3  N7    A A   1     -12.008   5.306 129.807  0.00  0.00    +0.000 NA
ATOM      4  C8    A A   1     -11.010   5.083 130.639  0.00  0.00    +0.000 A 
ATOM      5  N9    A A   1     -10.035   6.042 130.538  0.00  0.00    +0.000 N 
ATOM      6  C4    A A   1     -10.424   6.930 129.572  0.00  0.00    +0.000 A 
ATOM      7  N3    A A   1      -9.770   8.010 129.125  0.00  0.00    +0.000 NA
ATOM      8  C2    A A   1     -10.470   8.635 128.154  0.00  0.00    +0.000 A 
ATOM      9  N1    A A   1     -11.670   8.293 127.636  0.00  0.00    +0.000 NA
ENDROOT
BRANCH   5  10
ATOM     10  C1*   A A   1      -8.787   6.031 131.270  0.00  0.00    +0.000 C 
ATOM     11  O4*   A A   1      -7.764   5.376 130.498  0.00  0.00    +0.000 OA
ATOM     12  C4*   A A   1      -7.020   4.500 131.370  0.00  0.00    +0.000 C 
ATOM     13  C3*   A A   1      -7.465   4.800 132.809  0.00  0.00    +0.000 C 
ATOM     14  C2*   A A   1      -8.869   5.357 132.637  0.00  0.00    +0.000 C 
BRANCH  13  15
ATOM     15  O3*   A A   1      -6.626   5.798 133.418  0.00  0.00    +0.000 OA
ATOM     16  H3*   A A   1      -5.994   5.374 134.022  0.00  0.00    +0.000 HD
ENDBRANCH  13  15
BRANCH  14  17
ATOM     17  O2*   A A   1      -9.237   6.288 133.657  0.00  0.00    +0.000 OA
ATOM     18  H2*   A A   1     -10.179   6.143 133.868  0.00  0.00    +0.000 HD
ENDBRANCH  14  17
BRANCH  12  19
ATOM     19  C5*   A A   1      -7.247   3.042 130.961  0.00  0.00    +0.000 C 
BRANCH  19  20
ATOM     20  O5*   A A   1      -7.156   2.175 132.085  0.00  0.00    +0.000 OA
ATOM     21  H5*   A A   1      -7.361   2.691 132.884  0.00  0.00    +0.000 HD
ENDBRANCH  19  20
ENDBRANCH  12  19
ENDBRANCH   5  10
BRANCH   1  22
ATOM     22  N6    A A   1     -13.505   6.829 127.593  0.00  0.00    +0.000 N 
ATOM     23  H61   A A   1     -13.527   6.269 126.754  0.00  0.00    +0.000 HD
ATOM     24  H62   A A   1     -14.341   7.137 128.061  0.00  0.00    +0.000 HD
ENDBRANCH   1  22
TORSDOF 6
ENDMDL
MODEL 9
REMARK VINA RESULT:      -5.6      7.731      9.181
REMARK  Name = Adenosine
REMARK  6 active torsions:
REMARK  status: ('A' for Active; 'I' for Inactive)
REMARK    1  A    between atoms: N6_1  and  C6_2
REMARK    2  A    between atoms: N9_6  and  C1*_7
REMARK    3  A    between atoms: C4*_9  and  C5*_10
REMARK    4  A    between atoms: C5*_10  and  O5*_11
REMARK    5  A    between atoms: C3*_12  and  O3*_13
REMARK    6  A    between atoms: C2*_14  and  O2*_15
REMARK                            x       y       z     vdW  Elec       q    Type
REMARK                         _______ _______ _______ _____ _____    ______ ____
ROOT
ATOM      1  C6    A A   1      -6.051   4.867 119.670  0.00  0.00    +0.000 A 
ATOM      2  C5    A A   1      -7.124   4.247 120.331  0.00  0.00    +0.000 A 
ATOM      3  N7    A A   1      -8.415   3.962 119.942  0.00  0.00    +0.000 NA
ATOM      4  C8    A A   1      -8.954   3.359 120.982  0.00  0.00    +0.000 A 
ATOM      5  N9    A A   1      -8.071   3.253 122.026  0.00  0.00    +0.000 N 
ATOM      6  C4    A A   1      -6.888   3.813 121.628  0.00  0.00    +0.000 A 
ATOM      7  N3    A A   1      -5.742   3.910 122.316  0.00  0.00    +0.000 NA
ATOM      8  C2    A A   1      -4.786   4.520 121.583  0.00  0.00    +0.000 A 
ATOM      9  N1    A A   1      -4.875   4.997 120.323  0.00  0.00    +0.000 NA
ENDROOT
BRANCH   5  10
ATOM     10  C1*   A A   1      -8.348   2.579 123.277  0.00  0.00    +0.000 C 
ATOM     11  O4*   A A   1      -8.666   3.542 124.299  0.00  0.00    +0.000 OA
ATOM     12  C4*   A A   1      -7.978   3.167 125.511  0.00  0.00    +0.000 C 
ATOM     13  C3*   A A   1      -7.382   1.771 125.287  0.00  0.00    +0.000 C 
ATOM     14  C2*   A A   1      -7.210   1.696 123.778  0.00  0.00    +0.000 C 
BRANCH  13  15
ATOM     15  O3*   A A   1      -8.290   0.739 125.715  0.00  0.00    +0.000 OA
ATOM     16  H3*   A A   1      -8.540   0.185 124.957  0.00  0.00    +0.000 HD
ENDBRANCH  13  15
BRANCH  14  17
ATOM     17  O2*   A A   1      -7.312   0.367 123.262  0.00  0.00    +0.000 OA
ATOM     18  H2*   A A   1      -6.625  -0.174 123.694  0.00  0.00    +0.000 HD
ENDBRANCH  14  17
BRANCH  12  19
ATOM     19  C5*   A A   1      -6.925   4.223 125.860  0.00  0.00    +0.000 C 
BRANCH  19  20
ATOM     20  O5*   A A   1      -7.241   5.476 125.266  0.00  0.00    +0.000 OA
ATOM     21  H5*   A A   1      -8.203   5.513 125.127  0.00  0.00    +0.000 HD
ENDBRANCH  19  20
ENDBRANCH  12  19
ENDBRANCH   5  10
BRANCH   1  22
ATOM     22  N6    A A   1      -6.151   5.345 118.383  0.00  0.00    +0.000 N 
ATOM     23  H61   A A   1      -7.066   5.434 117.968  0.00  0.00    +0.000 HD
ATOM     24  H62   A A   1      -5.306   5.589 117.892  0.00  0.00    +0.000 HD
ENDBRANCH   1  22
TORSDOF 6
ENDMDL
