MODEL 1
REMARK VINA RESULT:      -7.3      0.000      0.000
REMARK  Name = Adenosine phosphate
REMARK  9 active torsions:
REMARK  status: ('A' for Active; 'I' for Inactive)
REMARK    1  A    between atoms: N_1  and  C_2
REMARK    2  A    between atoms: N_6  and  C_7
REMARK    3  A    between atoms: C_9  and  C_10
REMARK    4  A    between atoms: C_10  and  O_11
REMARK    5  A    between atoms: O_11  and  P_12
REMARK    6  A    between atoms: P_12  and  O_13
REMARK    7  A    between atoms: P_12  and  O_14
REMARK    8  A    between atoms: C_16  and  O_17
REMARK    9  A    between atoms: C_18  and  O_19
REMARK                            x       y       z     vdW  Elec       q    Type
REMARK                         _______ _______ _______ _____ _____    ______ ____
ROOT
ATOM      1  C   UNL     1      -7.429   2.618 123.452  0.00  0.00    +0.000 C 
ATOM      2  O   UNL     1      -7.102   1.227 123.285  0.00  0.00    +0.000 OA
ATOM      3  C   UNL     1      -8.111   0.432 123.954  0.00  0.00    +0.000 C 
ATOM      4  C   UNL     1      -8.973   1.381 124.775  0.00  0.00    +0.000 C 
ATOM      5  C   UNL     1      -8.827   2.714 124.055  0.00  0.00    +0.000 C 
ENDROOT
BRANCH   1  10
ATOM      6  C   UNL     1      -5.546   5.290 119.853  0.00  0.00    +0.000 A 
ATOM      7  C   UNL     1      -6.490   4.484 120.510  0.00  0.00    +0.000 A 
ATOM      8  N   UNL     1      -7.694   3.950 120.106  0.00  0.00    +0.000 NA
ATOM      9  C   UNL     1      -8.125   3.269 121.148  0.00  0.00    +0.000 A 
ATOM     10  N   UNL     1      -7.259   3.344 122.208  0.00  0.00    +0.000 N 
ATOM     11  C   UNL     1      -6.194   4.115 121.819  0.00  0.00    +0.000 A 
ATOM     12  N   UNL     1      -5.098   4.432 122.513  0.00  0.00    +0.000 NA
ATOM     13  C   UNL     1      -4.270   5.223 121.790  0.00  0.00    +0.000 A 
ATOM     14  N   UNL     1      -4.430   5.657 120.519  0.00  0.00    +0.000 NA
BRANCH   6  15
ATOM     15  N   UNL     1      -5.711   5.713 118.552  0.00  0.00    +0.000 N 
ATOM     16  H   UNL     1      -6.557   5.461 118.063  0.00  0.00    +0.000 HD
ATOM     17  H   UNL     1      -5.005   6.303 118.144  0.00  0.00    +0.000 HD
ENDBRANCH   6  15
ENDBRANCH   1  10
BRANCH   4  18
ATOM     18  O   UNL     1      -8.469   1.494 126.113  0.00  0.00    +0.000 OA
ATOM     19  H   UNL     1      -9.071   2.050 126.635  0.00  0.00    +0.000 HD
ENDBRANCH   4  18
BRANCH   5  20
ATOM     20  O   UNL     1      -8.940   3.828 124.941  0.00  0.00    +0.000 OA
ATOM     21  H   UNL     1      -9.359   3.506 125.763  0.00  0.00    +0.000 HD
ENDBRANCH   5  20
BRANCH   3  22
ATOM     22  C   UNL     1      -8.914  -0.284 122.897  0.00  0.00    +0.000 C 
BRANCH  22  23
ATOM     23  O   UNL     1      -9.791  -1.307 123.447  0.00  0.00    +0.000 OA
BRANCH  23  24
ATOM     24  P   UNL     1      -8.975  -2.700 124.068  0.00  0.00    +0.000 P 
ATOM     25  O   UNL     1      -8.245  -3.948 124.623  0.00  0.00    +0.000 OA
BRANCH  24  26
ATOM     26  O   UNL     1      -9.704  -2.350 125.492  0.00  0.00    +0.000 OA
ATOM     27  H   UNL     1      -9.283  -2.789 126.247  0.00  0.00    +0.000 HD
ENDBRANCH  24  26
BRANCH  24  28
ATOM     28  O   UNL     1     -10.175  -3.582 123.388  0.00  0.00    +0.000 OA
ATOM     29  H   UNL     1     -11.023  -3.486 123.849  0.00  0.00    +0.000 HD
ENDBRANCH  24  28
ENDBRANCH  23  24
ENDBRANCH  22  23
ENDBRANCH   3  22
TORSDOF 9
ENDMDL
MODEL 2
REMARK VINA RESULT:      -6.8      7.324      8.946
REMARK  Name = Adenosine phosphate
REMARK  9 active torsions:
REMARK  status: ('A' for Active; 'I' for Inactive)
REMARK    1  A    between atoms: N_1  and  C_2
REMARK    2  A    between atoms: N_6  and  C_7
REMARK    3  A    between atoms: C_9  and  C_10
REMARK    4  A    between atoms: C_10  and  O_11
REMARK    5  A    between atoms: O_11  and  P_12
REMARK    6  A    between atoms: P_12  and  O_13
REMARK    7  A    between atoms: P_12  and  O_14
REMARK    8  A    between atoms: C_16  and  O_17
REMARK    9  A    between atoms: C_18  and  O_19
REMARK                            x       y       z     vdW  Elec       q    Type
REMARK                         _______ _______ _______ _____ _____    ______ ____
ROOT
ATOM      1  C   UNL     1      -8.477   5.610 130.743  0.00  0.00    +0.000 C 
ATOM      2  O   UNL     1      -7.522   5.861 129.697  0.00  0.00    +0.000 OA
ATOM      3  C   UNL     1      -6.492   4.844 129.759  0.00  0.00    +0.000 C 
ATOM      4  C   UNL     1      -6.691   4.067 131.053  0.00  0.00    +0.000 C 
ATOM      5  C   UNL     1      -8.172   4.246 131.356  0.00  0.00    +0.000 C 
ENDROOT
BRANCH   1  10
ATOM      6  C   UNL     1     -12.425   7.242 128.421  0.00  0.00    +0.000 A 
ATOM      7  C   UNL     1     -11.654   6.374 129.211  0.00  0.00    +0.000 A 
ATOM      8  N   UNL     1     -11.928   5.150 129.782  0.00  0.00    +0.000 NA
ATOM      9  C   UNL     1     -10.813   4.809 130.396  0.00  0.00    +0.000 A 
ATOM     10  N   UNL     1      -9.834   5.759 130.254  0.00  0.00    +0.000 N 
ATOM     11  C   UNL     1     -10.349   6.773 129.488  0.00  0.00    +0.000 A 
ATOM     12  N   UNL     1      -9.746   7.889 129.068  0.00  0.00    +0.000 NA
ATOM     13  C   UNL     1     -10.586   8.655 128.334  0.00  0.00    +0.000 A 
ATOM     14  N   UNL     1     -11.868   8.395 127.990  0.00  0.00    +0.000 NA
BRANCH   6  15
ATOM     15  N   UNL     1     -13.726   6.959 128.064  0.00  0.00    +0.000 N 
ATOM     16  H   UNL     1     -14.460   7.580 128.370  0.00  0.00    +0.000 HD
ATOM     17  H   UNL     1     -13.899   6.168 127.467  0.00  0.00    +0.000 HD
ENDBRANCH   6  15
ENDBRANCH   1  10
BRANCH   4  18
ATOM     18  O   UNL     1      -5.908   4.635 132.111  0.00  0.00    +0.000 OA
ATOM     19  H   UNL     1      -6.040   5.597 132.124  0.00  0.00    +0.000 HD
ENDBRANCH   4  18
BRANCH   5  20
ATOM     20  O   UNL     1      -8.449   4.227 132.756  0.00  0.00    +0.000 OA
ATOM     21  H   UNL     1      -7.606   4.385 133.222  0.00  0.00    +0.000 HD
ENDBRANCH   5  20
BRANCH   3  22
ATOM     22  C   UNL     1      -6.636   3.961 128.546  0.00  0.00    +0.000 C 
BRANCH  22  23
ATOM     23  O   UNL     1      -6.484   4.688 127.294  0.00  0.00    +0.000 OA
BRANCH  23  24
ATOM     24  P   UNL     1      -7.678   4.322 126.097  0.00  0.00    +0.000 P 
ATOM     25  O   UNL     1      -8.747   3.995 125.026  0.00  0.00    +0.000 OA
BRANCH  24  26
ATOM     26  O   UNL     1      -8.711   5.184 127.031  0.00  0.00    +0.000 OA
ATOM     27  H   UNL     1      -9.136   4.645 127.717  0.00  0.00    +0.000 HD
ENDBRANCH  24  26
BRANCH  24  28
ATOM     28  O   UNL     1      -7.043   5.556 125.230  0.00  0.00    +0.000 OA
ATOM     29  H   UNL     1      -6.074   5.527 125.184  0.00  0.00    +0.000 HD
ENDBRANCH  24  28
ENDBRANCH  23  24
ENDBRANCH  22  23
ENDBRANCH   3  22
TORSDOF 9
ENDMDL
MODEL 3
REMARK VINA RESULT:      -6.7      8.392     10.236
REMARK  Name = Adenosine phosphate
REMARK  9 active torsions:
REMARK  status: ('A' for Active; 'I' for Inactive)
REMARK    1  A    between atoms: N_1  and  C_2
REMARK    2  A    between atoms: N_6  and  C_7
REMARK    3  A    between atoms: C_9  and  C_10
REMARK    4  A    between atoms: C_10  and  O_11
REMARK    5  A    between atoms: O_11  and  P_12
REMARK    6  A    between atoms: P_12  and  O_13
REMARK    7  A    between atoms: P_12  and  O_14
REMARK    8  A    between atoms: C_16  and  O_17
REMARK    9  A    between atoms: C_18  and  O_19
REMARK                            x       y       z     vdW  Elec       q    Type
REMARK                         _______ _______ _______ _____ _____    ______ ____
ROOT
ATOM      1  C   UNL     1     -10.109   5.387 131.685  0.00  0.00    +0.000 C 
ATOM      2  O   UNL     1      -9.456   6.372 132.505  0.00  0.00    +0.000 OA
ATOM      3  C   UNL     1      -8.567   5.691 133.423  0.00  0.00    +0.000 C 
ATOM      4  C   UNL     1      -8.861   4.200 133.328  0.00  0.00    +0.000 C 
ATOM      5  C   UNL     1      -9.442   4.037 131.930  0.00  0.00    +0.000 C 
ENDROOT
BRANCH   1  10
ATOM      6  C   UNL     1     -11.035   7.821 127.579  0.00  0.00    +0.000 A 
ATOM      7  C   UNL     1     -10.437   6.855 128.404  0.00  0.00    +0.000 A 
ATOM      8  N   UNL     1      -9.462   5.911 128.170  0.00  0.00    +0.000 NA
ATOM      9  C   UNL     1      -9.301   5.301 129.327  0.00  0.00    +0.000 A 
ATOM     10  N   UNL     1     -10.133   5.802 130.295  0.00  0.00    +0.000 N 
ATOM     11  C   UNL     1     -10.869   6.809 129.727  0.00  0.00    +0.000 A 
ATOM     12  N   UNL     1     -11.781   7.600 130.300  0.00  0.00    +0.000 NA
ATOM     13  C   UNL     1     -12.301   8.477 129.410  0.00  0.00    +0.000 A 
ATOM     14  N   UNL     1     -11.979   8.630 128.105  0.00  0.00    +0.000 NA
BRANCH   6  15
ATOM     15  N   UNL     1     -10.688   7.980 126.254  0.00  0.00    +0.000 N 
ATOM     16  H   UNL     1     -10.566   7.157 125.682  0.00  0.00    +0.000 HD
ATOM     17  H   UNL     1     -10.614   8.913 125.884  0.00  0.00    +0.000 HD
ENDBRANCH   6  15
ENDBRANCH   1  10
BRANCH   4  18
ATOM     18  O   UNL     1      -9.836   3.813 134.306  0.00  0.00    +0.000 OA
ATOM     19  H   UNL     1     -10.179   4.608 134.746  0.00  0.00    +0.000 HD
ENDBRANCH   4  18
BRANCH   5  20
ATOM     20  O   UNL     1     -10.381   2.966 131.851  0.00  0.00    +0.000 OA
ATOM     21  H   UNL     1     -11.118   3.265 131.284  0.00  0.00    +0.000 HD
ENDBRANCH   5  20
BRANCH   3  22
ATOM     22  C   UNL     1      -7.149   6.010 133.021  0.00  0.00    +0.000 C 
BRANCH  22  23
ATOM     23  O   UNL     1      -6.839   5.597 131.660  0.00  0.00    +0.000 OA
BRANCH  23  24
ATOM     24  P   UNL     1      -5.845   6.705 130.779  0.00  0.00    +0.000 P 
ATOM     25  O   UNL     1      -4.955   7.697 129.990  0.00  0.00    +0.000 OA
BRANCH  24  26
ATOM     26  O   UNL     1      -5.980   5.654 129.531  0.00  0.00    +0.000 OA
ATOM     27  H   UNL     1      -5.225   5.048 129.467  0.00  0.00    +0.000 HD
ENDBRANCH  24  26
BRANCH  24  28
ATOM     28  O   UNL     1      -7.210   7.570 130.521  0.00  0.00    +0.000 OA
ATOM     29  H   UNL     1      -7.076   8.526 130.618  0.00  0.00    +0.000 HD
ENDBRANCH  24  28
ENDBRANCH  23  24
ENDBRANCH  22  23
ENDBRANCH   3  22
TORSDOF 9
ENDMDL
MODEL 4
REMARK VINA RESULT:      -6.7      6.490      8.384
REMARK  Name = Adenosine phosphate
REMARK  9 active torsions:
REMARK  status: ('A' for Active; 'I' for Inactive)
REMARK    1  A    between atoms: N_1  and  C_2
REMARK    2  A    between atoms: N_6  and  C_7
REMARK    3  A    between atoms: C_9  and  C_10
REMARK    4  A    between atoms: C_10  and  O_11
REMARK    5  A    between atoms: O_11  and  P_12
REMARK    6  A    between atoms: P_12  and  O_13
REMARK    7  A    between atoms: P_12  and  O_14
REMARK    8  A    between atoms: C_16  and  O_17
REMARK    9  A    between atoms: C_18  and  O_19
REMARK                            x       y       z     vdW  Elec       q    Type
REMARK                         _______ _______ _______ _____ _____    ______ ____
ROOT
ATOM      1  C   UNL     1      -9.409   4.801 130.497  0.00  0.00    +0.000 C 
ATOM      2  O   UNL     1      -8.135   4.987 129.855  0.00  0.00    +0.000 OA
ATOM      3  C   UNL     1      -7.803   3.778 129.130  0.00  0.00    +0.000 C 
ATOM      4  C   UNL     1      -8.807   2.708 129.537  0.00  0.00    +0.000 C 
ATOM      5  C   UNL     1     -10.026   3.507 129.975  0.00  0.00    +0.000 C 
ENDROOT
BRANCH   1  10
ATOM      6  C   UNL     1     -11.914   8.492 128.563  0.00  0.00    +0.000 A 
ATOM      7  C   UNL     1     -11.452   7.627 129.568  0.00  0.00    +0.000 A 
ATOM      8  N   UNL     1     -11.757   7.515 130.907  0.00  0.00    +0.000 NA
ATOM      9  C   UNL     1     -11.019   6.510 131.335  0.00  0.00    +0.000 A 
ATOM     10  N   UNL     1     -10.247   5.974 130.337  0.00  0.00    +0.000 N 
ATOM     11  C   UNL     1     -10.514   6.671 129.188  0.00  0.00    +0.000 A 
ATOM     12  N   UNL     1     -10.018   6.479 127.962  0.00  0.00    +0.000 NA
ATOM     13  C   UNL     1     -10.518   7.377 127.082  0.00  0.00    +0.000 A 
ATOM     14  N   UNL     1     -11.426   8.353 127.312  0.00  0.00    +0.000 NA
BRANCH   6  15
ATOM     15  N   UNL     1     -12.852   9.473 128.804  0.00  0.00    +0.000 N 
ATOM     16  H   UNL     1     -13.062  10.135 128.073  0.00  0.00    +0.000 HD
ATOM     17  H   UNL     1     -13.335   9.470 129.687  0.00  0.00    +0.000 HD
ENDBRANCH   6  15
ENDBRANCH   1  10
BRANCH   4  18
ATOM     18  O   UNL     1      -8.309   1.939 130.639  0.00  0.00    +0.000 OA
ATOM     19  H   UNL     1      -7.337   1.969 130.636  0.00  0.00    +0.000 HD
ENDBRANCH   4  18
BRANCH   5  20
ATOM     20  O   UNL     1     -10.780   2.840 130.987  0.00  0.00    +0.000 OA
ATOM     21  H   UNL     1     -10.898   3.469 131.725  0.00  0.00    +0.000 HD
ENDBRANCH   5  20
BRANCH   3  22
ATOM     22  C   UNL     1      -7.876   4.085 127.656  0.00  0.00    +0.000 C 
BRANCH  22  23
ATOM     23  O   UNL     1      -8.300   2.944 126.859  0.00  0.00    +0.000 OA
BRANCH  23  24
ATOM     24  P   UNL     1      -8.305   3.219 125.151  0.00  0.00    +0.000 P 
ATOM     25  O   UNL     1      -8.310   3.466 123.622  0.00  0.00    +0.000 OA
BRANCH  24  26
ATOM     26  O   UNL     1      -9.671   2.316 125.126  0.00  0.00    +0.000 OA
ATOM     27  H   UNL     1      -9.502   1.375 125.290  0.00  0.00    +0.000 HD
ENDBRANCH  24  26
BRANCH  24  28
ATOM     28  O   UNL     1      -8.978   4.673 125.488  0.00  0.00    +0.000 OA
ATOM     29  H   UNL     1      -8.345   5.306 125.861  0.00  0.00    +0.000 HD
ENDBRANCH  24  28
ENDBRANCH  23  24
ENDBRANCH  22  23
ENDBRANCH   3  22
TORSDOF 9
ENDMDL
MODEL 5
REMARK VINA RESULT:      -6.7      6.621      8.640
REMARK  Name = Adenosine phosphate
REMARK  9 active torsions:
REMARK  status: ('A' for Active; 'I' for Inactive)
REMARK    1  A    between atoms: N_1  and  C_2
REMARK    2  A    between atoms: N_6  and  C_7
REMARK    3  A    between atoms: C_9  and  C_10
REMARK    4  A    between atoms: C_10  and  O_11
REMARK    5  A    between atoms: O_11  and  P_12
REMARK    6  A    between atoms: P_12  and  O_13
REMARK    7  A    between atoms: P_12  and  O_14
REMARK    8  A    between atoms: C_16  and  O_17
REMARK    9  A    between atoms: C_18  and  O_19
REMARK                            x       y       z     vdW  Elec       q    Type
REMARK                         _______ _______ _______ _____ _____    ______ ____
ROOT
ATOM      1  C   UNL     1      -9.131   4.426 130.401  0.00  0.00    +0.000 C 
ATOM      2  O   UNL     1     -10.356   4.784 129.738  0.00  0.00    +0.000 OA
ATOM      3  C   UNL     1     -10.925   5.934 130.409  0.00  0.00    +0.000 C 
ATOM      4  C   UNL     1     -10.139   6.151 131.695  0.00  0.00    +0.000 C 
ATOM      5  C   UNL     1      -8.782   5.529 131.395  0.00  0.00    +0.000 C 
ENDROOT
BRANCH   1  10
ATOM      6  C   UNL     1      -6.618   2.478 126.722  0.00  0.00    +0.000 A 
ATOM      7  C   UNL     1      -6.895   3.367 127.774  0.00  0.00    +0.000 A 
ATOM      8  N   UNL     1      -6.229   4.475 128.251  0.00  0.00    +0.000 NA
ATOM      9  C   UNL     1      -6.974   4.911 129.246  0.00  0.00    +0.000 A 
ATOM     10  N   UNL     1      -8.086   4.131 129.439  0.00  0.00    +0.000 N 
ATOM     11  C   UNL     1      -8.061   3.135 128.498  0.00  0.00    +0.000 A 
ATOM     12  N   UNL     1      -8.956   2.165 128.287  0.00  0.00    +0.000 NA
ATOM     13  C   UNL     1      -8.579   1.362 127.265  0.00  0.00    +0.000 A 
ATOM     14  N   UNL     1      -7.481   1.467 126.482  0.00  0.00    +0.000 NA
BRANCH   6  15
ATOM     15  N   UNL     1      -5.504   2.604 125.920  0.00  0.00    +0.000 N 
ATOM     16  H   UNL     1      -4.602   2.717 126.357  0.00  0.00    +0.000 HD
ATOM     17  H   UNL     1      -5.618   2.532 124.923  0.00  0.00    +0.000 HD
ENDBRANCH   6  15
ENDBRANCH   1  10
BRANCH   4  18
ATOM     18  O   UNL     1     -10.757   5.462 132.789  0.00  0.00    +0.000 OA
ATOM     19  H   UNL     1     -10.181   4.734 133.074  0.00  0.00    +0.000 HD
ENDBRANCH   4  18
BRANCH   5  20
ATOM     20  O   UNL     1      -8.153   5.003 132.564  0.00  0.00    +0.000 OA
ATOM     21  H   UNL     1      -8.785   4.388 132.983  0.00  0.00    +0.000 HD
ENDBRANCH   5  20
BRANCH   3  22
ATOM     22  C   UNL     1     -10.819   7.115 129.479  0.00  0.00    +0.000 C 
BRANCH  22  23
ATOM     23  O   UNL     1     -11.776   7.063 128.384  0.00  0.00    +0.000 OA
BRANCH  23  24
ATOM     24  P   UNL     1     -11.150   7.575 126.854  0.00  0.00    +0.000 P 
ATOM     25  O   UNL     1     -10.590   8.032 125.485  0.00  0.00    +0.000 OA
BRANCH  24  26
ATOM     26  O   UNL     1      -9.929   6.519 127.131  0.00  0.00    +0.000 OA
ATOM     27  H   UNL     1      -9.110   6.957 127.409  0.00  0.00    +0.000 HD
ENDBRANCH  24  26
BRANCH  24  28
ATOM     28  O   UNL     1     -12.223   6.539 126.181  0.00  0.00    +0.000 OA
ATOM     29  H   UNL     1     -12.337   5.724 126.695  0.00  0.00    +0.000 HD
ENDBRANCH  24  28
ENDBRANCH  23  24
ENDBRANCH  22  23
ENDBRANCH   3  22
TORSDOF 9
ENDMDL
MODEL 6
REMARK VINA RESULT:      -6.6      1.059      2.102
REMARK  Name = Adenosine phosphate
REMARK  9 active torsions:
REMARK  status: ('A' for Active; 'I' for Inactive)
REMARK    1  A    between atoms: N_1  and  C_2
REMARK    2  A    between atoms: N_6  and  C_7
REMARK    3  A    between atoms: C_9  and  C_10
REMARK    4  A    between atoms: C_10  and  O_11
REMARK    5  A    between atoms: O_11  and  P_12
REMARK    6  A    between atoms: P_12  and  O_13
REMARK    7  A    between atoms: P_12  and  O_14
REMARK    8  A    between atoms: C_16  and  O_17
REMARK    9  A    between atoms: C_18  and  O_19
REMARK                            x       y       z     vdW  Elec       q    Type
REMARK                         _______ _______ _______ _____ _____    ______ ____
ROOT
ATOM      1  C   UNL     1      -6.818   3.154 124.243  0.00  0.00    +0.000 C 
ATOM      2  O   UNL     1      -6.511   1.755 124.370  0.00  0.00    +0.000 OA
ATOM      3  C   UNL     1      -7.696   1.062 124.831  0.00  0.00    +0.000 C 
ATOM      4  C   UNL     1      -8.717   2.117 125.237  0.00  0.00    +0.000 C 
ATOM      5  C   UNL     1      -8.324   3.333 124.409  0.00  0.00    +0.000 C 
ENDROOT
BRANCH   1  10
ATOM      6  C   UNL     1      -6.392   4.782 119.682  0.00  0.00    +0.000 A 
ATOM      7  C   UNL     1      -5.993   4.501 120.999  0.00  0.00    +0.000 A 
ATOM      8  N   UNL     1      -4.836   4.772 121.694  0.00  0.00    +0.000 NA
ATOM      9  C   UNL     1      -5.045   4.279 122.898  0.00  0.00    +0.000 A 
ATOM     10  N   UNL     1      -6.281   3.695 123.009  0.00  0.00    +0.000 N 
ATOM     11  C   UNL     1      -6.914   3.832 121.802  0.00  0.00    +0.000 A 
ATOM     12  N   UNL     1      -8.144   3.443 121.456  0.00  0.00    +0.000 NA
ATOM     13  C   UNL     1      -8.413   3.748 120.165  0.00  0.00    +0.000 A 
ATOM     14  N   UNL     1      -7.619   4.389 119.277  0.00  0.00    +0.000 NA
BRANCH   6  15
ATOM     15  N   UNL     1      -5.581   5.450 118.789  0.00  0.00    +0.000 N 
ATOM     16  H   UNL     1      -5.806   6.403 118.549  0.00  0.00    +0.000 HD
ATOM     17  H   UNL     1      -4.761   4.982 118.441  0.00  0.00    +0.000 HD
ENDBRANCH   6  15
ENDBRANCH   1  10
BRANCH   4  18
ATOM     18  O   UNL     1      -8.601   2.422 126.633  0.00  0.00    +0.000 OA
ATOM     19  H   UNL     1      -9.289   3.064 126.877  0.00  0.00    +0.000 HD
ENDBRANCH   4  18
BRANCH   5  20
ATOM     20  O   UNL     1      -8.638   4.562 125.064  0.00  0.00    +0.000 OA
ATOM     21  H   UNL     1      -9.007   4.340 125.940  0.00  0.00    +0.000 HD
ENDBRANCH   5  20
BRANCH   3  22
ATOM     22  C   UNL     1      -8.199   0.200 123.701  0.00  0.00    +0.000 C 
BRANCH  22  23
ATOM     23  O   UNL     1      -7.744  -1.180 123.794  0.00  0.00    +0.000 OA
BRANCH  23  24
ATOM     24  P   UNL     1      -8.972  -2.365 123.513  0.00  0.00    +0.000 P 
ATOM     25  O   UNL     1     -10.072  -3.426 123.262  0.00  0.00    +0.000 OA
BRANCH  24  26
ATOM     26  O   UNL     1      -9.412  -2.109 125.070  0.00  0.00    +0.000 OA
ATOM     27  H   UNL     1     -10.109  -1.440 125.157  0.00  0.00    +0.000 HD
ENDBRANCH  24  26
BRANCH  24  28
ATOM     28  O   UNL     1      -9.833  -1.162 122.814  0.00  0.00    +0.000 OA
ATOM     29  H   UNL     1     -10.315  -1.452 122.023  0.00  0.00    +0.000 HD
ENDBRANCH  24  28
ENDBRANCH  23  24
ENDBRANCH  22  23
ENDBRANCH   3  22
TORSDOF 9
ENDMDL
MODEL 7
REMARK VINA RESULT:      -6.6      7.835      9.238
REMARK  Name = Adenosine phosphate
REMARK  9 active torsions:
REMARK  status: ('A' for Active; 'I' for Inactive)
REMARK    1  A    between atoms: N_1  and  C_2
REMARK    2  A    between atoms: N_6  and  C_7
REMARK    3  A    between atoms: C_9  and  C_10
REMARK    4  A    between atoms: C_10  and  O_11
REMARK    5  A    between atoms: O_11  and  P_12
REMARK    6  A    between atoms: P_12  and  O_13
REMARK    7  A    between atoms: P_12  and  O_14
REMARK    8  A    between atoms: C_16  and  O_17
REMARK    9  A    between atoms: C_18  and  O_19
REMARK                            x       y       z     vdW  Elec       q    Type
REMARK                         _______ _______ _______ _____ _____    ______ ____
ROOT
ATOM      1  C   UNL     1      -9.922   5.009 130.779  0.00  0.00    +0.000 C 
ATOM      2  O   UNL     1     -11.030   4.801 129.886  0.00  0.00    +0.000 OA
ATOM      3  C   UNL     1     -11.979   5.879 130.070  0.00  0.00    +0.000 C 
ATOM      4  C   UNL     1     -11.552   6.662 131.305  0.00  0.00    +0.000 C 
ATOM      5  C   UNL     1     -10.056   6.397 131.397  0.00  0.00    +0.000 C 
ENDROOT
BRANCH   1  10
ATOM      6  C   UNL     1      -5.265   5.275 129.408  0.00  0.00    +0.000 A 
ATOM      7  C   UNL     1      -6.573   4.766 129.458  0.00  0.00    +0.000 A 
ATOM      8  N   UNL     1      -7.157   3.655 128.890  0.00  0.00    +0.000 NA
ATOM      9  C   UNL     1      -8.408   3.686 129.304  0.00  0.00    +0.000 A 
ATOM     10  N   UNL     1      -8.659   4.770 130.106  0.00  0.00    +0.000 N 
ATOM     11  C   UNL     1      -7.491   5.476 130.227  0.00  0.00    +0.000 A 
ATOM     12  N   UNL     1      -7.256   6.583 130.936  0.00  0.00    +0.000 NA
ATOM     13  C   UNL     1      -5.973   6.992 130.799  0.00  0.00    +0.000 A 
ATOM     14  N   UNL     1      -4.982   6.406 130.090  0.00  0.00    +0.000 NA
BRANCH   6  15
ATOM     15  N   UNL     1      -4.258   4.661 128.695  0.00  0.00    +0.000 N 
ATOM     16  H   UNL     1      -3.300   4.830 128.962  0.00  0.00    +0.000 HD
ATOM     17  H   UNL     1      -4.510   4.022 127.959  0.00  0.00    +0.000 HD
ENDBRANCH   6  15
ENDBRANCH   1  10
BRANCH   4  18
ATOM     18  O   UNL     1     -12.208   6.159 132.476  0.00  0.00    +0.000 OA
ATOM     19  H   UNL     1     -13.114   6.507 132.508  0.00  0.00    +0.000 HD
ENDBRANCH   4  18
BRANCH   5  20
ATOM     20  O   UNL     1      -9.581   6.421 132.743  0.00  0.00    +0.000 OA
ATOM     21  H   UNL     1      -9.511   7.357 133.012  0.00  0.00    +0.000 HD
ENDBRANCH   5  20
BRANCH   3  22
ATOM     22  C   UNL     1     -11.959   6.734 128.829  0.00  0.00    +0.000 C 
BRANCH  22  23
ATOM     23  O   UNL     1     -10.711   6.628 128.087  0.00  0.00    +0.000 OA
BRANCH  23  24
ATOM     24  P   UNL     1     -10.725   7.399 126.539  0.00  0.00    +0.000 P 
ATOM     25  O   UNL     1     -10.737   8.089 125.152  0.00  0.00    +0.000 OA
BRANCH  24  26
ATOM     26  O   UNL     1      -9.618   6.275 126.098  0.00  0.00    +0.000 OA
ATOM     27  H   UNL     1      -9.311   5.738 126.846  0.00  0.00    +0.000 HD
ENDBRANCH  24  26
BRANCH  24  28
ATOM     28  O   UNL     1     -12.083   6.539 126.233  0.00  0.00    +0.000 OA
ATOM     29  H   UNL     1     -12.348   6.568 125.300  0.00  0.00    +0.000 HD
ENDBRANCH  24  28
ENDBRANCH  23  24
ENDBRANCH  22  23
ENDBRANCH   3  22
TORSDOF 9
ENDMDL
MODEL 8
REMARK VINA RESULT:      -6.5      8.366     10.201
REMARK  Name = Adenosine phosphate
REMARK  9 active torsions:
REMARK  status: ('A' for Active; 'I' for Inactive)
REMARK    1  A    between atoms: N_1  and  C_2
REMARK    2  A    between atoms: N_6  and  C_7
REMARK    3  A    between atoms: C_9  and  C_10
REMARK    4  A    between atoms: C_10  and  O_11
REMARK    5  A    between atoms: O_11  and  P_12
REMARK    6  A    between atoms: P_12  and  O_13
REMARK    7  A    between atoms: P_12  and  O_14
REMARK    8  A    between atoms: C_16  and  O_17
REMARK    9  A    between atoms: C_18  and  O_19
REMARK                            x       y       z     vdW  Elec       q    Type
REMARK                         _______ _______ _______ _____ _____    ______ ____
ROOT
ATOM      1  C   UNL     1     -10.137   4.245 131.156  0.00  0.00    +0.000 C 
ATOM      2  O   UNL     1     -10.920   4.521 129.982  0.00  0.00    +0.000 OA
ATOM      3  C   UNL     1     -11.424   5.875 130.070  0.00  0.00    +0.000 C 
ATOM      4  C   UNL     1     -11.137   6.381 131.478  0.00  0.00    +0.000 C 
ATOM      5  C   UNL     1      -9.941   5.550 131.921  0.00  0.00    +0.000 C 
ENDROOT
BRANCH   1  10
ATOM      6  C   UNL     1      -6.122   1.513 131.382  0.00  0.00    +0.000 A 
ATOM      7  C   UNL     1      -7.114   2.310 130.788  0.00  0.00    +0.000 A 
ATOM      8  N   UNL     1      -7.348   2.677 129.481  0.00  0.00    +0.000 NA
ATOM      9  C   UNL     1      -8.434   3.421 129.531  0.00  0.00    +0.000 A 
ATOM     10  N   UNL     1      -8.907   3.559 130.812  0.00  0.00    +0.000 N 
ATOM     11  C   UNL     1      -8.078   2.845 131.637  0.00  0.00    +0.000 A 
ATOM     12  N   UNL     1      -8.169   2.668 132.959  0.00  0.00    +0.000 NA
ATOM     13  C   UNL     1      -7.155   1.902 133.423  0.00  0.00    +0.000 A 
ATOM     14  N   UNL     1      -6.157   1.322 132.718  0.00  0.00    +0.000 NA
BRANCH   6  15
ATOM     15  N   UNL     1      -5.118   0.913 130.652  0.00  0.00    +0.000 N 
ATOM     16  H   UNL     1      -4.488   0.281 131.121  0.00  0.00    +0.000 HD
ATOM     17  H   UNL     1      -5.074   1.087 129.661  0.00  0.00    +0.000 HD
ENDBRANCH   6  15
ENDBRANCH   1  10
BRANCH   4  18
ATOM     18  O   UNL     1     -12.252   6.128 132.343  0.00  0.00    +0.000 OA
ATOM     19  H   UNL     1     -12.349   6.869 132.964  0.00  0.00    +0.000 HD
ENDBRANCH   4  18
BRANCH   5  20
ATOM     20  O   UNL     1      -9.920   5.334 133.332  0.00  0.00    +0.000 OA
ATOM     21  H   UNL     1     -10.836   5.436 133.656  0.00  0.00    +0.000 HD
ENDBRANCH   5  20
BRANCH   3  22
ATOM     22  C   UNL     1     -10.723   6.702 129.023  0.00  0.00    +0.000 C 
BRANCH  22  23
ATOM     23  O   UNL     1     -11.630   7.558 128.274  0.00  0.00    +0.000 OA
BRANCH  23  24
ATOM     24  P   UNL     1     -11.206   7.780 126.611  0.00  0.00    +0.000 P 
ATOM     25  O   UNL     1     -10.826   7.977 125.123  0.00  0.00    +0.000 OA
BRANCH  24  26
ATOM     26  O   UNL     1      -9.984   6.729 126.904  0.00  0.00    +0.000 OA
ATOM     27  H   UNL     1      -9.508   6.927 127.725  0.00  0.00    +0.000 HD
ENDBRANCH  24  26
BRANCH  24  28
ATOM     28  O   UNL     1     -12.385   6.697 126.270  0.00  0.00    +0.000 OA
ATOM     29  H   UNL     1     -12.038   5.839 125.978  0.00  0.00    +0.000 HD
ENDBRANCH  24  28
ENDBRANCH  23  24
ENDBRANCH  22  23
ENDBRANCH   3  22
TORSDOF 9
ENDMDL
MODEL 9
REMARK VINA RESULT:      -6.5      8.693     10.380
REMARK  Name = Adenosine phosphate
REMARK  9 active torsions:
REMARK  status: ('A' for Active; 'I' for Inactive)
REMARK    1  A    between atoms: N_1  and  C_2
REMARK    2  A    between atoms: N_6  and  C_7
REMARK    3  A    between atoms: C_9  and  C_10
REMARK    4  A    between atoms: C_10  and  O_11
REMARK    5  A    between atoms: O_11  and  P_12
REMARK    6  A    between atoms: P_12  and  O_13
REMARK    7  A    between atoms: P_12  and  O_14
REMARK    8  A    between atoms: C_16  and  O_17
REMARK    9  A    between atoms: C_18  and  O_19
REMARK                            x       y       z     vdW  Elec       q    Type
REMARK                         _______ _______ _______ _____ _____    ______ ____
ROOT
ATOM      1  C   UNL     1     -10.223   5.338 131.578  0.00  0.00    +0.000 C 
ATOM      2  O   UNL     1      -8.903   5.809 131.902  0.00  0.00    +0.000 OA
ATOM      3  C   UNL     1      -7.936   4.852 131.405  0.00  0.00    +0.000 C 
ATOM      4  C   UNL     1      -8.703   3.612 130.963  0.00  0.00    +0.000 C 
ATOM      5  C   UNL     1     -10.090   4.146 130.636  0.00  0.00    +0.000 C 
ENDROOT
BRANCH   1  10
ATOM      6  C   UNL     1     -12.232   8.683 128.677  0.00  0.00    +0.000 A 
ATOM      7  C   UNL     1     -12.060   7.910 129.838  0.00  0.00    +0.000 A 
ATOM      8  N   UNL     1     -12.778   7.826 131.010  0.00  0.00    +0.000 NA
ATOM      9  C   UNL     1     -12.147   6.917 131.725  0.00  0.00    +0.000 A 
ATOM     10  N   UNL     1     -11.050   6.416 131.072  0.00  0.00    +0.000 N 
ATOM     11  C   UNL     1     -10.978   7.034 129.851  0.00  0.00    +0.000 A 
ATOM     12  N   UNL     1     -10.093   6.839 128.869  0.00  0.00    +0.000 NA
ATOM     13  C   UNL     1     -10.344   7.646 127.812  0.00  0.00    +0.000 A 
ATOM     14  N   UNL     1     -11.350   8.538 127.665  0.00  0.00    +0.000 NA
BRANCH   6  15
ATOM     15  N   UNL     1     -13.270   9.578 128.531  0.00  0.00    +0.000 N 
ATOM     16  H   UNL     1     -13.861   9.507 127.716  0.00  0.00    +0.000 HD
ATOM     17  H   UNL     1     -13.438  10.244 129.266  0.00  0.00    +0.000 HD
ENDBRANCH   6  15
ENDBRANCH   1  10
BRANCH   4  18
ATOM     18  O   UNL     1      -8.788   2.662 132.033  0.00  0.00    +0.000 OA
ATOM     19  H   UNL     1      -9.702   2.339 132.100  0.00  0.00    +0.000 HD
ENDBRANCH   4  18
BRANCH   5  20
ATOM     20  O   UNL     1     -11.114   3.179 130.866  0.00  0.00    +0.000 OA
ATOM     21  H   UNL     1     -11.966   3.594 130.629  0.00  0.00    +0.000 HD
ENDBRANCH   5  20
BRANCH   3  22
ATOM     22  C   UNL     1      -7.195   5.492 130.259  0.00  0.00    +0.000 C 
BRANCH  22  23
ATOM     23  O   UNL     1      -6.663   6.806 130.590  0.00  0.00    +0.000 OA
BRANCH  23  24
ATOM     24  P   UNL     1      -4.936   6.891 130.647  0.00  0.00    +0.000 P 
ATOM     25  O   UNL     1      -3.391   6.968 130.698  0.00  0.00    +0.000 OA
BRANCH  24  26
ATOM     26  O   UNL     1      -4.960   5.911 129.335  0.00  0.00    +0.000 OA
ATOM     27  H   UNL     1      -5.529   6.248 128.626  0.00  0.00    +0.000 HD
ENDBRANCH  24  26
BRANCH  24  28
ATOM     28  O   UNL     1      -5.082   8.330 129.881  0.00  0.00    +0.000 OA
ATOM     29  H   UNL     1      -4.227   8.760 129.717  0.00  0.00    +0.000 HD
ENDBRANCH  24  28
ENDBRANCH  23  24
ENDBRANCH  22  23
ENDBRANCH   3  22
TORSDOF 9
ENDMDL
