MODEL 1
REMARK VINA RESULT:      -4.8      0.000      0.000
REMARK  Name = Adenine
REMARK  1 active torsions:
REMARK  status: ('A' for Active; 'I' for Inactive)
REMARK    1  A    between atoms: N_1  and  C_2
REMARK                            x       y       z     vdW  Elec       q    Type
REMARK                         _______ _______ _______ _____ _____    ______ ____
ROOT
ATOM      1  C   UNL     1     -12.680   9.097 129.591  0.00  0.00    +0.000 A 
ATOM      2  C   UNL     1     -11.869   8.345 128.773  0.00  0.00    +0.000 A 
ATOM      3  N   UNL     1     -11.294   8.544 127.552  0.00  0.00    +0.000 N 
ATOM      4  C   UNL     1     -10.583   7.420 127.239  0.00  0.00    +0.000 A 
ATOM      5  N   UNL     1     -10.669   6.512 128.187  0.00  0.00    +0.000 NA
ATOM      6  C   UNL     1     -11.468   7.077 129.148  0.00  0.00    +0.000 A 
ATOM      7  N   UNL     1     -11.830   6.501 130.307  0.00  0.00    +0.000 NA
ATOM      8  C   UNL     1     -12.616   7.297 131.046  0.00  0.00    +0.000 A 
ATOM      9  N   UNL     1     -13.055   8.544 130.757  0.00  0.00    +0.000 NA
ATOM     10  H   UNL     1     -11.380   9.375 126.983  0.00  0.00    +0.000 HD
ENDROOT
BRANCH   1  11
ATOM     11  N   UNL     1     -13.111  10.359 129.272  0.00  0.00    +0.000 N 
ATOM     12  H   UNL     1     -13.947  10.764 129.655  0.00  0.00    +0.000 HD
ATOM     13  H   UNL     1     -12.558  10.872 128.601  0.00  0.00    +0.000 HD
ENDBRANCH   1  11
TORSDOF 1
ENDMDL
MODEL 2
REMARK VINA RESULT:      -4.8      0.799      2.843
REMARK  Name = Adenine
REMARK  1 active torsions:
REMARK  status: ('A' for Active; 'I' for Inactive)
REMARK    1  A    between atoms: N_1  and  C_2
REMARK                            x       y       z     vdW  Elec       q    Type
REMARK                         _______ _______ _______ _____ _____    ______ ____
ROOT
ATOM      1  C   UNL     1     -12.115   8.649 128.689  0.00  0.00    +0.000 A 
ATOM      2  C   UNL     1     -11.981   7.750 129.722  0.00  0.00    +0.000 A 
ATOM      3  N   UNL     1     -12.521   7.641 130.971  0.00  0.00    +0.000 N 
ATOM      4  C   UNL     1     -12.000   6.520 131.552  0.00  0.00    +0.000 A 
ATOM      5  N   UNL     1     -11.158   5.905 130.750  0.00  0.00    +0.000 NA
ATOM      6  C   UNL     1     -11.137   6.662 129.607  0.00  0.00    +0.000 A 
ATOM      7  N   UNL     1     -10.407   6.407 128.508  0.00  0.00    +0.000 NA
ATOM      8  C   UNL     1     -10.595   7.326 127.549  0.00  0.00    +0.000 A 
ATOM      9  N   UNL     1     -11.396   8.416 127.578  0.00  0.00    +0.000 NA
ATOM     10  H   UNL     1     -13.186   8.277 131.388  0.00  0.00    +0.000 HD
ENDROOT
BRANCH   1  11
ATOM     11  N   UNL     1     -12.934   9.747 128.746  0.00  0.00    +0.000 N 
ATOM     12  H   UNL     1     -13.918   9.706 128.546  0.00  0.00    +0.000 HD
ATOM     13  H   UNL     1     -12.498  10.627 128.980  0.00  0.00    +0.000 HD
ENDBRANCH   1  11
TORSDOF 1
ENDMDL
MODEL 3
REMARK VINA RESULT:      -4.8      1.419      3.008
REMARK  Name = Adenine
REMARK  1 active torsions:
REMARK  status: ('A' for Active; 'I' for Inactive)
REMARK    1  A    between atoms: N_1  and  C_2
REMARK                            x       y       z     vdW  Elec       q    Type
REMARK                         _______ _______ _______ _____ _____    ______ ____
ROOT
ATOM      1  C   UNL     1     -12.429   7.183 128.090  0.00  0.00    +0.000 A 
ATOM      2  C   UNL     1     -12.751   8.326 128.785  0.00  0.00    +0.000 A 
ATOM      3  N   UNL     1     -13.154   9.580 128.428  0.00  0.00    +0.000 N 
ATOM      4  C   UNL     1     -13.324  10.304 129.575  0.00  0.00    +0.000 A 
ATOM      5  N   UNL     1     -13.054   9.587 130.645  0.00  0.00    +0.000 NA
ATOM      6  C   UNL     1     -12.695   8.354 130.165  0.00  0.00    +0.000 A 
ATOM      7  N   UNL     1     -12.333   7.296 130.910  0.00  0.00    +0.000 NA
ATOM      8  C   UNL     1     -12.038   6.223 130.160  0.00  0.00    +0.000 A 
ATOM      9  N   UNL     1     -12.065   6.110 128.812  0.00  0.00    +0.000 NA
ATOM     10  H   UNL     1     -13.300   9.911 127.485  0.00  0.00    +0.000 HD
ENDROOT
BRANCH   1  11
ATOM     11  N   UNL     1     -12.465   7.097 126.722  0.00  0.00    +0.000 N 
ATOM     12  H   UNL     1     -12.170   7.845 126.120  0.00  0.00    +0.000 HD
ATOM     13  H   UNL     1     -12.830   6.241 126.330  0.00  0.00    +0.000 HD
ENDBRANCH   1  11
TORSDOF 1
ENDMDL
MODEL 4
REMARK VINA RESULT:      -4.7      1.087      2.754
REMARK  Name = Adenine
REMARK  1 active torsions:
REMARK  status: ('A' for Active; 'I' for Inactive)
REMARK    1  A    between atoms: N_1  and  C_2
REMARK                            x       y       z     vdW  Elec       q    Type
REMARK                         _______ _______ _______ _____ _____    ______ ____
ROOT
ATOM      1  C   UNL     1     -11.563   6.088 130.758  0.00  0.00    +0.000 A 
ATOM      2  C   UNL     1     -11.274   6.872 129.664  0.00  0.00    +0.000 A 
ATOM      3  N   UNL     1     -10.456   6.737 128.580  0.00  0.00    +0.000 N 
ATOM      4  C   UNL     1     -10.590   7.863 127.817  0.00  0.00    +0.000 A 
ATOM      5  N   UNL     1     -11.444   8.710 128.348  0.00  0.00    +0.000 NA
ATOM      6  C   UNL     1     -11.877   8.104 129.499  0.00  0.00    +0.000 A 
ATOM      7  N   UNL     1     -12.765   8.614 130.370  0.00  0.00    +0.000 NA
ATOM      8  C   UNL     1     -12.993   7.790 131.404  0.00  0.00    +0.000 A 
ATOM      9  N   UNL     1     -12.449   6.574 131.643  0.00  0.00    +0.000 NA
ATOM     10  H   UNL     1      -9.861   5.946 128.380  0.00  0.00    +0.000 HD
ENDROOT
BRANCH   1  11
ATOM     11  N   UNL     1     -10.995   4.859 130.975  0.00  0.00    +0.000 N 
ATOM     12  H   UNL     1     -11.521   4.003 130.953  0.00  0.00    +0.000 HD
ATOM     13  H   UNL     1     -10.008   4.845 131.187  0.00  0.00    +0.000 HD
ENDBRANCH   1  11
TORSDOF 1
ENDMDL
MODEL 5
REMARK VINA RESULT:      -4.7      2.086      3.196
REMARK  Name = Adenine
REMARK  1 active torsions:
REMARK  status: ('A' for Active; 'I' for Inactive)
REMARK    1  A    between atoms: N_1  and  C_2
REMARK                            x       y       z     vdW  Elec       q    Type
REMARK                         _______ _______ _______ _____ _____    ______ ____
ROOT
ATOM      1  C   UNL     1     -10.917   6.565 131.330  0.00  0.00    +0.000 A 
ATOM      2  C   UNL     1     -10.988   7.258 130.142  0.00  0.00    +0.000 A 
ATOM      3  N   UNL     1     -12.008   7.655 129.327  0.00  0.00    +0.000 N 
ATOM      4  C   UNL     1     -11.457   8.320 128.268  0.00  0.00    +0.000 A 
ATOM      5  N   UNL     1     -10.146   8.372 128.357  0.00  0.00    +0.000 NA
ATOM      6  C   UNL     1      -9.842   7.713 129.520  0.00  0.00    +0.000 A 
ATOM      7  N   UNL     1      -8.607   7.520 130.014  0.00  0.00    +0.000 NA
ATOM      8  C   UNL     1      -8.624   6.841 131.171  0.00  0.00    +0.000 A 
ATOM      9  N   UNL     1      -9.694   6.359 131.845  0.00  0.00    +0.000 NA
ATOM     10  H   UNL     1     -12.992   7.487 129.481  0.00  0.00    +0.000 HD
ENDROOT
BRANCH   1  11
ATOM     11  N   UNL     1     -12.019   6.088 131.991  0.00  0.00    +0.000 N 
ATOM     12  H   UNL     1     -11.988   5.287 132.597  0.00  0.00    +0.000 HD
ATOM     13  H   UNL     1     -12.892   6.567 131.825  0.00  0.00    +0.000 HD
ENDBRANCH   1  11
TORSDOF 1
ENDMDL
MODEL 6
REMARK VINA RESULT:      -4.6      1.382      2.177
REMARK  Name = Adenine
REMARK  1 active torsions:
REMARK  status: ('A' for Active; 'I' for Inactive)
REMARK    1  A    between atoms: N_1  and  C_2
REMARK                            x       y       z     vdW  Elec       q    Type
REMARK                         _______ _______ _______ _____ _____    ______ ____
ROOT
ATOM      1  C   UNL     1     -12.053   7.032 130.827  0.00  0.00    +0.000 A 
ATOM      2  C   UNL     1     -11.487   7.450 129.644  0.00  0.00    +0.000 A 
ATOM      3  N   UNL     1     -11.621   8.558 128.858  0.00  0.00    +0.000 N 
ATOM      4  C   UNL     1     -10.788   8.410 127.786  0.00  0.00    +0.000 A 
ATOM      5  N   UNL     1     -10.129   7.272 127.837  0.00  0.00    +0.000 NA
ATOM      6  C   UNL     1     -10.556   6.665 128.990  0.00  0.00    +0.000 A 
ATOM      7  N   UNL     1     -10.145   5.471 129.448  0.00  0.00    +0.000 NA
ATOM      8  C   UNL     1     -10.740   5.138 130.604  0.00  0.00    +0.000 A 
ATOM      9  N   UNL     1     -11.658   5.842 131.307  0.00  0.00    +0.000 NA
ATOM     10  H   UNL     1     -12.228   9.345 129.040  0.00  0.00    +0.000 HD
ENDROOT
BRANCH   1  11
ATOM     11  N   UNL     1     -12.981   7.766 131.519  0.00  0.00    +0.000 N 
ATOM     12  H   UNL     1     -13.659   8.355 131.067  0.00  0.00    +0.000 HD
ATOM     13  H   UNL     1     -12.945   7.712 132.526  0.00  0.00    +0.000 HD
ENDBRANCH   1  11
TORSDOF 1
ENDMDL
MODEL 7
REMARK VINA RESULT:      -4.6      1.910      2.781
REMARK  Name = Adenine
REMARK  1 active torsions:
REMARK  status: ('A' for Active; 'I' for Inactive)
REMARK    1  A    between atoms: N_1  and  C_2
REMARK                            x       y       z     vdW  Elec       q    Type
REMARK                         _______ _______ _______ _____ _____    ______ ____
ROOT
ATOM      1  C   UNL     1     -11.311   8.010 129.268  0.00  0.00    +0.000 A 
ATOM      2  C   UNL     1     -10.493   7.393 130.187  0.00  0.00    +0.000 A 
ATOM      3  N   UNL     1      -9.144   7.226 130.307  0.00  0.00    +0.000 N 
ATOM      4  C   UNL     1      -8.913   6.512 131.448  0.00  0.00    +0.000 A 
ATOM      5  N   UNL     1     -10.035   6.211 132.067  0.00  0.00    +0.000 NA
ATOM      6  C   UNL     1     -11.026   6.753 131.291  0.00  0.00    +0.000 A 
ATOM      7  N   UNL     1     -12.344   6.690 131.541  0.00  0.00    +0.000 NA
ATOM      8  C   UNL     1     -13.071   7.315 130.603  0.00  0.00    +0.000 A 
ATOM      9  N   UNL     1     -12.634   7.961 129.497  0.00  0.00    +0.000 NA
ATOM     10  H   UNL     1      -8.444   7.571 129.665  0.00  0.00    +0.000 HD
ENDROOT
BRANCH   1  11
ATOM     11  N   UNL     1     -10.841   8.657 128.155  0.00  0.00    +0.000 N 
ATOM     12  H   UNL     1     -11.292   9.463 127.760  0.00  0.00    +0.000 HD
ATOM     13  H   UNL     1     -10.016   8.270 127.719  0.00  0.00    +0.000 HD
ENDBRANCH   1  11
TORSDOF 1
ENDMDL
MODEL 8
REMARK VINA RESULT:      -4.6      1.414      3.323
REMARK  Name = Adenine
REMARK  1 active torsions:
REMARK  status: ('A' for Active; 'I' for Inactive)
REMARK    1  A    between atoms: N_1  and  C_2
REMARK                            x       y       z     vdW  Elec       q    Type
REMARK                         _______ _______ _______ _____ _____    ______ ____
ROOT
ATOM      1  C   UNL     1     -10.612   7.330 128.609  0.00  0.00    +0.000 A 
ATOM      2  C   UNL     1     -11.442   7.329 129.707  0.00  0.00    +0.000 A 
ATOM      3  N   UNL     1     -12.473   8.118 130.126  0.00  0.00    +0.000 N 
ATOM      4  C   UNL     1     -12.921   7.619 131.317  0.00  0.00    +0.000 A 
ATOM      5  N   UNL     1     -12.238   6.556 131.684  0.00  0.00    +0.000 NA
ATOM      6  C   UNL     1     -11.314   6.366 130.690  0.00  0.00    +0.000 A 
ATOM      7  N   UNL     1     -10.394   5.387 130.647  0.00  0.00    +0.000 NA
ATOM      8  C   UNL     1      -9.628   5.456 129.548  0.00  0.00    +0.000 A 
ATOM      9  N   UNL     1      -9.685   6.360 128.543  0.00  0.00    +0.000 NA
ATOM     10  H   UNL     1     -12.838   8.926 129.642  0.00  0.00    +0.000 HD
ENDROOT
BRANCH   1  11
ATOM     11  N   UNL     1     -10.691   8.259 127.605  0.00  0.00    +0.000 N 
ATOM     12  H   UNL     1     -10.388   9.211 127.716  0.00  0.00    +0.000 HD
ATOM     13  H   UNL     1     -11.098   7.953 126.733  0.00  0.00    +0.000 HD
ENDBRANCH   1  11
TORSDOF 1
ENDMDL
MODEL 9
REMARK VINA RESULT:      -4.6      2.985      4.684
REMARK  Name = Adenine
REMARK  1 active torsions:
REMARK  status: ('A' for Active; 'I' for Inactive)
REMARK    1  A    between atoms: N_1  and  C_2
REMARK                            x       y       z     vdW  Elec       q    Type
REMARK                         _______ _______ _______ _____ _____    ______ ____
ROOT
ATOM      1  C   UNL     1      -9.467   5.611 132.522  0.00  0.00    +0.000 A 
ATOM      2  C   UNL     1     -10.459   6.164 131.744  0.00  0.00    +0.000 A 
ATOM      3  N   UNL     1     -11.823   6.115 131.755  0.00  0.00    +0.000 N 
ATOM      4  C   UNL     1     -12.274   6.878 130.715  0.00  0.00    +0.000 A 
ATOM      5  N   UNL     1     -11.280   7.411 130.038  0.00  0.00    +0.000 NA
ATOM      6  C   UNL     1     -10.144   6.974 130.669  0.00  0.00    +0.000 A 
ATOM      7  N   UNL     1      -8.883   7.273 130.315  0.00  0.00    +0.000 NA
ATOM      8  C   UNL     1      -7.979   6.699 131.122  0.00  0.00    +0.000 A 
ATOM      9  N   UNL     1      -8.198   5.896 132.189  0.00  0.00    +0.000 NA
ATOM     10  H   UNL     1     -12.393   5.606 132.416  0.00  0.00    +0.000 HD
ENDROOT
BRANCH   1  11
ATOM     11  N   UNL     1      -9.718   4.799 133.598  0.00  0.00    +0.000 N 
ATOM     12  H   UNL     1     -10.419   5.007 134.287  0.00  0.00    +0.000 HD
ATOM     13  H   UNL     1      -9.143   3.975 133.690  0.00  0.00    +0.000 HD
ENDBRANCH   1  11
TORSDOF 1
ENDMDL
