MODEL 1
REMARK VINA RESULT:      -7.2      0.000      0.000
REMARK  Name = Adiphenine
REMARK  11 active torsions:
REMARK  status: ('A' for Active; 'I' for Inactive)
REMARK    1  A    between atoms: C_1  and  C_2
REMARK    2  A    between atoms: C_2  and  N_3
REMARK    3  A    between atoms: N_3  and  C_4
REMARK    4  A    between atoms: N_3  and  C_6
REMARK    5  A    between atoms: C_4  and  C_5
REMARK    6  A    between atoms: C_6  and  C_7
REMARK    7  A    between atoms: C_7  and  O_8
REMARK    8  A    between atoms: O_8  and  C_9
REMARK    9  A    between atoms: C_9  and  C_11
REMARK   10  A    between atoms: C_11  and  C_12
REMARK   11  A    between atoms: C_11  and  C_18
REMARK                            x       y       z     vdW  Elec       q    Type
REMARK                         _______ _______ _______ _____ _____    ______ ____
ROOT
ATOM      1  C   UNL     1      -7.317   2.382 123.952  0.00  0.00    +0.000 C 
ENDROOT
BRANCH   1   2
ATOM      2  C   UNL     1      -7.201   2.997 122.539  0.00  0.00    +0.000 A 
ATOM      3  C   UNL     1      -8.365   3.323 121.820  0.00  0.00    +0.000 A 
ATOM      4  C   UNL     1      -8.302   3.879 120.543  0.00  0.00    +0.000 A 
ATOM      5  C   UNL     1      -7.072   4.091 119.934  0.00  0.00    +0.000 A 
ATOM      6  C   UNL     1      -5.910   3.751 120.603  0.00  0.00    +0.000 A 
ATOM      7  C   UNL     1      -5.980   3.277 121.908  0.00  0.00    +0.000 A 
ENDBRANCH   1   2
BRANCH   1   8
ATOM      8  C   UNL     1      -6.107   2.598 124.910  0.00  0.00    +0.000 A 
ATOM      9  C   UNL     1      -5.589   1.601 125.763  0.00  0.00    +0.000 A 
ATOM     10  C   UNL     1      -4.401   1.792 126.477  0.00  0.00    +0.000 A 
ATOM     11  C   UNL     1      -3.746   3.014 126.424  0.00  0.00    +0.000 A 
ATOM     12  C   UNL     1      -4.314   4.058 125.712  0.00  0.00    +0.000 A 
ATOM     13  C   UNL     1      -5.493   3.857 125.001  0.00  0.00    +0.000 A 
ENDBRANCH   1   8
BRANCH   1  14
ATOM     14  C   UNL     1      -8.675   2.842 124.586  0.00  0.00    +0.000 C 
ATOM     15  O   UNL     1      -8.908   3.933 125.075  0.00  0.00    +0.000 OA
BRANCH  14  16
ATOM     16  O   UNL     1      -9.640   1.861 124.528  0.00  0.00    +0.000 OA
BRANCH  16  17
ATOM     17  C   UNL     1      -9.045   0.558 124.473  0.00  0.00    +0.000 C 
BRANCH  17  18
ATOM     18  C   UNL     1      -9.332  -0.256 125.744  0.00  0.00    +0.000 C 
BRANCH  18  19
ATOM     19  N   UNL     1      -9.304  -1.735 125.527  0.00  0.00    +0.000 NA
BRANCH  19  21
ATOM     20  C   UNL     1      -9.460  -3.269 123.500  0.00  0.00    +0.000 C 
ATOM     21  C   UNL     1      -8.897  -1.996 124.129  0.00  0.00    +0.000 C 
ENDBRANCH  19  21
BRANCH  19  22
ATOM     22  C   UNL     1      -8.421  -2.368 126.529  0.00  0.00    +0.000 C 
ATOM     23  C   UNL     1      -8.949  -3.607 127.234  0.00  0.00    +0.000 C 
ENDBRANCH  19  22
ENDBRANCH  18  19
ENDBRANCH  17  18
ENDBRANCH  16  17
ENDBRANCH  14  16
ENDBRANCH   1  14
TORSDOF 9
ENDMDL
MODEL 2
REMARK VINA RESULT:      -7.1      2.883      7.114
REMARK  Name = Adiphenine
REMARK  11 active torsions:
REMARK  status: ('A' for Active; 'I' for Inactive)
REMARK    1  A    between atoms: C_1  and  C_2
REMARK    2  A    between atoms: C_2  and  N_3
REMARK    3  A    between atoms: N_3  and  C_4
REMARK    4  A    between atoms: N_3  and  C_6
REMARK    5  A    between atoms: C_4  and  C_5
REMARK    6  A    between atoms: C_6  and  C_7
REMARK    7  A    between atoms: C_7  and  O_8
REMARK    8  A    between atoms: O_8  and  C_9
REMARK    9  A    between atoms: C_9  and  C_11
REMARK   10  A    between atoms: C_11  and  C_12
REMARK   11  A    between atoms: C_11  and  C_18
REMARK                            x       y       z     vdW  Elec       q    Type
REMARK                         _______ _______ _______ _____ _____    ______ ____
ROOT
ATOM      1  C   UNL     1      -7.654  -2.283 124.959  0.00  0.00    +0.000 C 
ENDROOT
BRANCH   1   2
ATOM      2  C   UNL     1      -7.970  -2.655 126.425  0.00  0.00    +0.000 A 
ATOM      3  C   UNL     1      -7.273  -2.029 127.474  0.00  0.00    +0.000 A 
ATOM      4  C   UNL     1      -7.530  -2.339 128.809  0.00  0.00    +0.000 A 
ATOM      5  C   UNL     1      -8.468  -3.311 129.131  0.00  0.00    +0.000 A 
ATOM      6  C   UNL     1      -9.148  -3.968 128.122  0.00  0.00    +0.000 A 
ATOM      7  C   UNL     1      -8.946  -3.593 126.798  0.00  0.00    +0.000 A 
ENDBRANCH   1   2
BRANCH   1   8
ATOM      8  C   UNL     1      -6.399  -2.951 124.322  0.00  0.00    +0.000 A 
ATOM      9  C   UNL     1      -5.421  -2.251 123.586  0.00  0.00    +0.000 A 
ATOM     10  C   UNL     1      -4.232  -2.865 123.178  0.00  0.00    +0.000 A 
ATOM     11  C   UNL     1      -4.026  -4.215 123.423  0.00  0.00    +0.000 A 
ATOM     12  C   UNL     1      -5.035  -4.959 124.012  0.00  0.00    +0.000 A 
ATOM     13  C   UNL     1      -6.213  -4.339 124.418  0.00  0.00    +0.000 A 
ENDBRANCH   1   8
BRANCH   1  14
ATOM     14  C   UNL     1      -8.949  -2.494 124.101  0.00  0.00    +0.000 C 
ATOM     15  O   UNL     1      -9.320  -3.542 123.604  0.00  0.00    +0.000 OA
BRANCH  14  16
ATOM     16  O   UNL     1      -9.681  -1.336 123.961  0.00  0.00    +0.000 OA
BRANCH  16  17
ATOM     17  C   UNL     1      -8.866  -0.273 123.449  0.00  0.00    +0.000 C 
BRANCH  17  18
ATOM     18  C   UNL     1      -9.618   1.066 123.428  0.00  0.00    +0.000 C 
BRANCH  18  19
ATOM     19  N   UNL     1      -9.001   2.115 124.296  0.00  0.00    +0.000 NA
BRANCH  19  21
ATOM     20  C   UNL     1      -8.963   1.187 126.668  0.00  0.00    +0.000 C 
ATOM     21  C   UNL     1      -8.220   1.444 125.359  0.00  0.00    +0.000 C 
ENDBRANCH  19  21
BRANCH  19  22
ATOM     22  C   UNL     1      -8.199   3.039 123.467  0.00  0.00    +0.000 C 
ATOM     23  C   UNL     1      -8.568   3.149 121.996  0.00  0.00    +0.000 C 
ENDBRANCH  19  22
ENDBRANCH  18  19
ENDBRANCH  17  18
ENDBRANCH  16  17
ENDBRANCH  14  16
ENDBRANCH   1  14
TORSDOF 9
ENDMDL
MODEL 3
REMARK VINA RESULT:      -7.1      2.419      6.330
REMARK  Name = Adiphenine
REMARK  11 active torsions:
REMARK  status: ('A' for Active; 'I' for Inactive)
REMARK    1  A    between atoms: C_1  and  C_2
REMARK    2  A    between atoms: C_2  and  N_3
REMARK    3  A    between atoms: N_3  and  C_4
REMARK    4  A    between atoms: N_3  and  C_6
REMARK    5  A    between atoms: C_4  and  C_5
REMARK    6  A    between atoms: C_6  and  C_7
REMARK    7  A    between atoms: C_7  and  O_8
REMARK    8  A    between atoms: O_8  and  C_9
REMARK    9  A    between atoms: C_9  and  C_11
REMARK   10  A    between atoms: C_11  and  C_12
REMARK   11  A    between atoms: C_11  and  C_18
REMARK                            x       y       z     vdW  Elec       q    Type
REMARK                         _______ _______ _______ _____ _____    ______ ____
ROOT
ATOM      1  C   UNL     1      -8.571  -1.846 125.447  0.00  0.00    +0.000 C 
ENDROOT
BRANCH   1   2
ATOM      2  C   UNL     1      -7.352  -2.115 124.536  0.00  0.00    +0.000 A 
ATOM      3  C   UNL     1      -7.427  -1.825 123.162  0.00  0.00    +0.000 A 
ATOM      4  C   UNL     1      -6.349  -2.053 122.308  0.00  0.00    +0.000 A 
ATOM      5  C   UNL     1      -5.176  -2.613 122.799  0.00  0.00    +0.000 A 
ATOM      6  C   UNL     1      -5.083  -2.938 124.140  0.00  0.00    +0.000 A 
ATOM      7  C   UNL     1      -6.131  -2.629 124.999  0.00  0.00    +0.000 A 
ENDBRANCH   1   2
BRANCH   1   8
ATOM      8  C   UNL     1      -8.459  -2.326 126.926  0.00  0.00    +0.000 A 
ATOM      9  C   UNL     1      -8.935  -3.570 127.389  0.00  0.00    +0.000 A 
ATOM     10  C   UNL     1      -8.662  -4.023 128.684  0.00  0.00    +0.000 A 
ATOM     11  C   UNL     1      -7.978  -3.209 129.576  0.00  0.00    +0.000 A 
ATOM     12  C   UNL     1      -7.631  -1.924 129.193  0.00  0.00    +0.000 A 
ATOM     13  C   UNL     1      -7.903  -1.484 127.901  0.00  0.00    +0.000 A 
ENDBRANCH   1   8
BRANCH   1  14
ATOM     14  C   UNL     1      -8.953  -0.330 125.335  0.00  0.00    +0.000 C 
ATOM     15  O   UNL     1     -10.081   0.126 125.281  0.00  0.00    +0.000 OA
BRANCH  14  16
ATOM     16  O   UNL     1      -7.847   0.491 125.316  0.00  0.00    +0.000 OA
BRANCH  16  17
ATOM     17  C   UNL     1      -8.012   1.552 124.366  0.00  0.00    +0.000 C 
BRANCH  17  18
ATOM     18  C   UNL     1      -6.719   1.824 123.583  0.00  0.00    +0.000 C 
BRANCH  18  19
ATOM     19  N   UNL     1      -6.915   2.704 122.390  0.00  0.00    +0.000 NA
BRANCH  19  21
ATOM     20  C   UNL     1      -8.807   3.617 120.951  0.00  0.00    +0.000 C 
ATOM     21  C   UNL     1      -8.350   3.049 122.293  0.00  0.00    +0.000 C 
ENDBRANCH  19  21
BRANCH  19  22
ATOM     22  C   UNL     1      -6.028   3.882 122.489  0.00  0.00    +0.000 C 
ATOM     23  C   UNL     1      -5.086   4.141 121.325  0.00  0.00    +0.000 C 
ENDBRANCH  19  22
ENDBRANCH  18  19
ENDBRANCH  17  18
ENDBRANCH  16  17
ENDBRANCH  14  16
ENDBRANCH   1  14
TORSDOF 9
ENDMDL
MODEL 4
REMARK VINA RESULT:      -7.0      1.215      2.190
REMARK  Name = Adiphenine
REMARK  11 active torsions:
REMARK  status: ('A' for Active; 'I' for Inactive)
REMARK    1  A    between atoms: C_1  and  C_2
REMARK    2  A    between atoms: C_2  and  N_3
REMARK    3  A    between atoms: N_3  and  C_4
REMARK    4  A    between atoms: N_3  and  C_6
REMARK    5  A    between atoms: C_4  and  C_5
REMARK    6  A    between atoms: C_6  and  C_7
REMARK    7  A    between atoms: C_7  and  O_8
REMARK    8  A    between atoms: O_8  and  C_9
REMARK    9  A    between atoms: C_9  and  C_11
REMARK   10  A    between atoms: C_11  and  C_12
REMARK   11  A    between atoms: C_11  and  C_18
REMARK                            x       y       z     vdW  Elec       q    Type
REMARK                         _______ _______ _______ _____ _____    ______ ____
ROOT
ATOM      1  C   UNL     1      -7.136   2.466 123.962  0.00  0.00    +0.000 C 
ENDROOT
BRANCH   1   2
ATOM      2  C   UNL     1      -7.176   3.034 122.526  0.00  0.00    +0.000 A 
ATOM      3  C   UNL     1      -5.976   3.328 121.855  0.00  0.00    +0.000 A 
ATOM      4  C   UNL     1      -5.971   3.843 120.559  0.00  0.00    +0.000 A 
ATOM      5  C   UNL     1      -7.169   4.112 119.910  0.00  0.00    +0.000 A 
ATOM      6  C   UNL     1      -8.367   3.864 120.555  0.00  0.00    +0.000 A 
ATOM      7  C   UNL     1      -8.362   3.272 121.814  0.00  0.00    +0.000 A 
ENDBRANCH   1   2
BRANCH   1   8
ATOM      8  C   UNL     1      -6.091   3.090 124.934  0.00  0.00    +0.000 A 
ATOM      9  C   UNL     1      -5.908   4.478 125.109  0.00  0.00    +0.000 A 
ATOM     10  C   UNL     1      -5.076   4.986 126.113  0.00  0.00    +0.000 A 
ATOM     11  C   UNL     1      -4.341   4.121 126.912  0.00  0.00    +0.000 A 
ATOM     12  C   UNL     1      -4.389   2.760 126.661  0.00  0.00    +0.000 A 
ATOM     13  C   UNL     1      -5.223   2.263 125.663  0.00  0.00    +0.000 A 
ENDBRANCH   1   8
BRANCH   1  14
ATOM     14  C   UNL     1      -8.591   2.489 124.548  0.00  0.00    +0.000 C 
ATOM     15  O   UNL     1      -9.151   3.449 125.045  0.00  0.00    +0.000 OA
BRANCH  14  16
ATOM     16  O   UNL     1      -9.223   1.271 124.433  0.00  0.00    +0.000 OA
BRANCH  16  17
ATOM     17  C   UNL     1      -8.762   0.357 125.437  0.00  0.00    +0.000 C 
BRANCH  17  18
ATOM     18  C   UNL     1      -8.564  -1.059 124.876  0.00  0.00    +0.000 C 
BRANCH  18  19
ATOM     19  N   UNL     1      -7.964  -1.083 123.508  0.00  0.00    +0.000 NA
BRANCH  19  21
ATOM     20  C   UNL     1      -5.791  -2.411 123.451  0.00  0.00    +0.000 C 
ATOM     21  C   UNL     1      -6.490  -1.067 123.641  0.00  0.00    +0.000 C 
ENDBRANCH  19  21
BRANCH  19  22
ATOM     22  C   UNL     1      -8.478  -2.248 122.758  0.00  0.00    +0.000 C 
ATOM     23  C   UNL     1      -9.432  -3.178 123.490  0.00  0.00    +0.000 C 
ENDBRANCH  19  22
ENDBRANCH  18  19
ENDBRANCH  17  18
ENDBRANCH  16  17
ENDBRANCH  14  16
ENDBRANCH   1  14
TORSDOF 9
ENDMDL
MODEL 5
REMARK VINA RESULT:      -7.0      2.373      6.722
REMARK  Name = Adiphenine
REMARK  11 active torsions:
REMARK  status: ('A' for Active; 'I' for Inactive)
REMARK    1  A    between atoms: C_1  and  C_2
REMARK    2  A    between atoms: C_2  and  N_3
REMARK    3  A    between atoms: N_3  and  C_4
REMARK    4  A    between atoms: N_3  and  C_6
REMARK    5  A    between atoms: C_4  and  C_5
REMARK    6  A    between atoms: C_6  and  C_7
REMARK    7  A    between atoms: C_7  and  O_8
REMARK    8  A    between atoms: O_8  and  C_9
REMARK    9  A    between atoms: C_9  and  C_11
REMARK   10  A    between atoms: C_11  and  C_12
REMARK   11  A    between atoms: C_11  and  C_18
REMARK                            x       y       z     vdW  Elec       q    Type
REMARK                         _______ _______ _______ _____ _____    ______ ____
ROOT
ATOM      1  C   UNL     1      -7.531  -0.760 126.071  0.00  0.00    +0.000 C 
ENDROOT
BRANCH   1   2
ATOM      2  C   UNL     1      -7.832  -1.638 127.306  0.00  0.00    +0.000 A 
ATOM      3  C   UNL     1      -7.502  -1.176 128.592  0.00  0.00    +0.000 A 
ATOM      4  C   UNL     1      -7.758  -1.939 129.730  0.00  0.00    +0.000 A 
ATOM      5  C   UNL     1      -8.318  -3.204 129.611  0.00  0.00    +0.000 A 
ATOM      6  C   UNL     1      -8.625  -3.701 128.357  0.00  0.00    +0.000 A 
ATOM      7  C   UNL     1      -8.445  -2.899 127.235  0.00  0.00    +0.000 A 
ENDBRANCH   1   2
BRANCH   1   8
ATOM      8  C   UNL     1      -6.701  -1.419 124.928  0.00  0.00    +0.000 A 
ATOM      9  C   UNL     1      -5.685  -2.374 125.141  0.00  0.00    +0.000 A 
ATOM     10  C   UNL     1      -5.087  -3.058 124.077  0.00  0.00    +0.000 A 
ATOM     11  C   UNL     1      -5.429  -2.744 122.769  0.00  0.00    +0.000 A 
ATOM     12  C   UNL     1      -6.315  -1.706 122.529  0.00  0.00    +0.000 A 
ATOM     13  C   UNL     1      -6.907  -1.035 123.594  0.00  0.00    +0.000 A 
ENDBRANCH   1   8
BRANCH   1  14
ATOM     14  C   UNL     1      -8.878  -0.143 125.557  0.00  0.00    +0.000 C 
ATOM     15  O   UNL     1      -9.803  -0.755 125.055  0.00  0.00    +0.000 OA
BRANCH  14  16
ATOM     16  O   UNL     1      -8.937   1.219 125.745  0.00  0.00    +0.000 OA
BRANCH  16  17
ATOM     17  C   UNL     1      -9.341   1.886 124.542  0.00  0.00    +0.000 C 
BRANCH  17  18
ATOM     18  C   UNL     1      -8.366   3.008 124.155  0.00  0.00    +0.000 C 
BRANCH  18  19
ATOM     19  N   UNL     1      -6.989   2.522 123.835  0.00  0.00    +0.000 NA
BRANCH  19  21
ATOM     20  C   UNL     1      -5.708   3.969 122.175  0.00  0.00    +0.000 C 
ATOM     21  C   UNL     1      -6.700   2.833 122.417  0.00  0.00    +0.000 C 
ENDBRANCH  19  21
BRANCH  19  22
ATOM     22  C   UNL     1      -6.019   3.113 124.780  0.00  0.00    +0.000 C 
ATOM     23  C   UNL     1      -5.389   2.180 125.801  0.00  0.00    +0.000 C 
ENDBRANCH  19  22
ENDBRANCH  18  19
ENDBRANCH  17  18
ENDBRANCH  16  17
ENDBRANCH  14  16
ENDBRANCH   1  14
TORSDOF 9
ENDMDL
MODEL 6
REMARK VINA RESULT:      -6.8      2.839      7.045
REMARK  Name = Adiphenine
REMARK  11 active torsions:
REMARK  status: ('A' for Active; 'I' for Inactive)
REMARK    1  A    between atoms: C_1  and  C_2
REMARK    2  A    between atoms: C_2  and  N_3
REMARK    3  A    between atoms: N_3  and  C_4
REMARK    4  A    between atoms: N_3  and  C_6
REMARK    5  A    between atoms: C_4  and  C_5
REMARK    6  A    between atoms: C_6  and  C_7
REMARK    7  A    between atoms: C_7  and  O_8
REMARK    8  A    between atoms: O_8  and  C_9
REMARK    9  A    between atoms: C_9  and  C_11
REMARK   10  A    between atoms: C_11  and  C_12
REMARK   11  A    between atoms: C_11  and  C_18
REMARK                            x       y       z     vdW  Elec       q    Type
REMARK                         _______ _______ _______ _____ _____    ______ ____
ROOT
ATOM      1  C   UNL     1      -7.630  -2.219 125.048  0.00  0.00    +0.000 C 
ENDROOT
BRANCH   1   2
ATOM      2  C   UNL     1      -7.918  -2.602 126.517  0.00  0.00    +0.000 A 
ATOM      3  C   UNL     1      -8.846  -3.619 126.807  0.00  0.00    +0.000 A 
ATOM      4  C   UNL     1      -9.132  -3.993 128.119  0.00  0.00    +0.000 A 
ATOM      5  C   UNL     1      -8.525  -3.334 129.181  0.00  0.00    +0.000 A 
ATOM      6  C   UNL     1      -7.632  -2.309 128.929  0.00  0.00    +0.000 A 
ATOM      7  C   UNL     1      -7.288  -2.001 127.617  0.00  0.00    +0.000 A 
ENDBRANCH   1   2
BRANCH   1   8
ATOM      8  C   UNL     1      -6.405  -2.906 124.372  0.00  0.00    +0.000 A 
ATOM      9  C   UNL     1      -5.423  -2.216 123.632  0.00  0.00    +0.000 A 
ATOM     10  C   UNL     1      -4.258  -2.851 123.189  0.00  0.00    +0.000 A 
ATOM     11  C   UNL     1      -4.083  -4.212 123.402  0.00  0.00    +0.000 A 
ATOM     12  C   UNL     1      -5.100  -4.942 123.995  0.00  0.00    +0.000 A 
ATOM     13  C   UNL     1      -6.253  -4.300 124.436  0.00  0.00    +0.000 A 
ENDBRANCH   1   8
BRANCH   1  14
ATOM     14  C   UNL     1      -8.949  -2.393 124.219  0.00  0.00    +0.000 C 
ATOM     15  O   UNL     1      -9.356  -3.429 123.724  0.00  0.00    +0.000 OA
BRANCH  14  16
ATOM     16  O   UNL     1      -9.657  -1.218 124.105  0.00  0.00    +0.000 OA
BRANCH  16  17
ATOM     17  C   UNL     1      -9.071  -0.360 123.117  0.00  0.00    +0.000 C 
BRANCH  17  18
ATOM     18  C   UNL     1      -8.737   1.026 123.687  0.00  0.00    +0.000 C 
BRANCH  18  19
ATOM     19  N   UNL     1      -7.307   1.421 123.504  0.00  0.00    +0.000 NA
BRANCH  19  21
ATOM     20  C   UNL     1      -6.283   3.056 121.842  0.00  0.00    +0.000 C 
ATOM     21  C   UNL     1      -7.265   2.805 122.984  0.00  0.00    +0.000 C 
ENDBRANCH  19  21
BRANCH  19  22
ATOM     22  C   UNL     1      -6.575   1.244 124.776  0.00  0.00    +0.000 C 
ATOM     23  C   UNL     1      -6.085   2.501 125.475  0.00  0.00    +0.000 C 
ENDBRANCH  19  22
ENDBRANCH  18  19
ENDBRANCH  17  18
ENDBRANCH  16  17
ENDBRANCH  14  16
ENDBRANCH   1  14
TORSDOF 9
ENDMDL
MODEL 7
REMARK VINA RESULT:      -6.7      7.148      9.580
REMARK  Name = Adiphenine
REMARK  11 active torsions:
REMARK  status: ('A' for Active; 'I' for Inactive)
REMARK    1  A    between atoms: C_1  and  C_2
REMARK    2  A    between atoms: C_2  and  N_3
REMARK    3  A    between atoms: N_3  and  C_4
REMARK    4  A    between atoms: N_3  and  C_6
REMARK    5  A    between atoms: C_4  and  C_5
REMARK    6  A    between atoms: C_6  and  C_7
REMARK    7  A    between atoms: C_7  and  O_8
REMARK    8  A    between atoms: O_8  and  C_9
REMARK    9  A    between atoms: C_9  and  C_11
REMARK   10  A    between atoms: C_11  and  C_12
REMARK   11  A    between atoms: C_11  and  C_18
REMARK                            x       y       z     vdW  Elec       q    Type
REMARK                         _______ _______ _______ _____ _____    ______ ____
ROOT
ATOM      1  C   UNL     1      -8.914   6.037 130.672  0.00  0.00    +0.000 C 
ENDROOT
BRANCH   1   2
ATOM      2  C   UNL     1     -10.222   6.801 130.371  0.00  0.00    +0.000 A 
ATOM      3  C   UNL     1     -10.282   7.686 129.279  0.00  0.00    +0.000 A 
ATOM      4  C   UNL     1     -11.444   8.393 128.975  0.00  0.00    +0.000 A 
ATOM      5  C   UNL     1     -12.570   8.264 129.779  0.00  0.00    +0.000 A 
ATOM      6  C   UNL     1     -12.533   7.427 130.879  0.00  0.00    +0.000 A 
ATOM      7  C   UNL     1     -11.398   6.661 131.124  0.00  0.00    +0.000 A 
ENDBRANCH   1   2
BRANCH   1   8
ATOM      8  C   UNL     1      -8.801   5.367 132.075  0.00  0.00    +0.000 A 
ATOM      9  C   UNL     1      -9.329   4.097 132.387  0.00  0.00    +0.000 A 
ATOM     10  C   UNL     1      -9.056   3.470 133.608  0.00  0.00    +0.000 A 
ATOM     11  C   UNL     1      -8.320   4.132 134.581  0.00  0.00    +0.000 A 
ATOM     12  C   UNL     1      -7.918   5.438 134.356  0.00  0.00    +0.000 A 
ATOM     13  C   UNL     1      -8.190   6.051 133.137  0.00  0.00    +0.000 A 
ENDBRANCH   1   8
BRANCH   1  14
ATOM     14  C   UNL     1      -8.645   5.029 129.502  0.00  0.00    +0.000 C 
ATOM     15  O   UNL     1      -9.406   4.162 129.110  0.00  0.00    +0.000 OA
BRANCH  14  16
ATOM     16  O   UNL     1      -7.418   5.225 128.911  0.00  0.00    +0.000 OA
BRANCH  16  17
ATOM     17  C   UNL     1      -6.398   4.474 129.583  0.00  0.00    +0.000 C 
BRANCH  17  18
ATOM     18  C   UNL     1      -4.994   5.025 129.292  0.00  0.00    +0.000 C 
BRANCH  18  19
ATOM     19  N   UNL     1      -4.889   6.508 129.444  0.00  0.00    +0.000 NA
BRANCH  19  21
ATOM     20  C   UNL     1      -3.733   7.495 131.488  0.00  0.00    +0.000 C 
ATOM     21  C   UNL     1      -4.972   6.839 130.884  0.00  0.00    +0.000 C 
ENDBRANCH  19  21
BRANCH  19  22
ATOM     22  C   UNL     1      -3.650   6.988 128.797  0.00  0.00    +0.000 C 
ATOM     23  C   UNL     1      -2.696   5.935 128.256  0.00  0.00    +0.000 C 
ENDBRANCH  19  22
ENDBRANCH  18  19
ENDBRANCH  17  18
ENDBRANCH  16  17
ENDBRANCH  14  16
ENDBRANCH   1  14
TORSDOF 9
ENDMDL
MODEL 8
REMARK VINA RESULT:      -6.7      2.283      6.189
REMARK  Name = Adiphenine
REMARK  11 active torsions:
REMARK  status: ('A' for Active; 'I' for Inactive)
REMARK    1  A    between atoms: C_1  and  C_2
REMARK    2  A    between atoms: C_2  and  N_3
REMARK    3  A    between atoms: N_3  and  C_4
REMARK    4  A    between atoms: N_3  and  C_6
REMARK    5  A    between atoms: C_4  and  C_5
REMARK    6  A    between atoms: C_6  and  C_7
REMARK    7  A    between atoms: C_7  and  O_8
REMARK    8  A    between atoms: O_8  and  C_9
REMARK    9  A    between atoms: C_9  and  C_11
REMARK   10  A    between atoms: C_11  and  C_12
REMARK   11  A    between atoms: C_11  and  C_18
REMARK                            x       y       z     vdW  Elec       q    Type
REMARK                         _______ _______ _______ _____ _____    ______ ____
ROOT
ATOM      1  C   UNL     1      -7.199   1.963 123.503  0.00  0.00    +0.000 C 
ENDROOT
BRANCH   1   2
ATOM      2  C   UNL     1      -7.648   0.493 123.348  0.00  0.00    +0.000 A 
ATOM      3  C   UNL     1      -6.685  -0.528 123.258  0.00  0.00    +0.000 A 
ATOM      4  C   UNL     1      -7.051  -1.866 123.118  0.00  0.00    +0.000 A 
ATOM      5  C   UNL     1      -8.391  -2.218 123.027  0.00  0.00    +0.000 A 
ATOM      6  C   UNL     1      -9.362  -1.233 123.080  0.00  0.00    +0.000 A 
ATOM      7  C   UNL     1      -8.991   0.088 123.306  0.00  0.00    +0.000 A 
ENDBRANCH   1   2
BRANCH   1   8
ATOM      8  C   UNL     1      -7.298   2.863 122.234  0.00  0.00    +0.000 A 
ATOM      9  C   UNL     1      -6.183   3.426 121.579  0.00  0.00    +0.000 A 
ATOM     10  C   UNL     1      -6.312   4.085 120.351  0.00  0.00    +0.000 A 
ATOM     11  C   UNL     1      -7.567   4.272 119.789  0.00  0.00    +0.000 A 
ATOM     12  C   UNL     1      -8.691   3.859 120.487  0.00  0.00    +0.000 A 
ATOM     13  C   UNL     1      -8.553   3.201 121.705  0.00  0.00    +0.000 A 
ENDBRANCH   1   8
BRANCH   1  14
ATOM     14  C   UNL     1      -7.939   2.583 124.739  0.00  0.00    +0.000 C 
ATOM     15  O   UNL     1      -8.917   3.308 124.702  0.00  0.00    +0.000 OA
BRANCH  14  16
ATOM     16  O   UNL     1      -7.371   2.206 125.935  0.00  0.00    +0.000 OA
BRANCH  16  17
ATOM     17  C   UNL     1      -5.976   2.535 125.966  0.00  0.00    +0.000 C 
BRANCH  17  18
ATOM     18  C   UNL     1      -5.723   3.895 126.635  0.00  0.00    +0.000 C 
BRANCH  18  19
ATOM     19  N   UNL     1      -4.408   3.982 127.340  0.00  0.00    +0.000 NA
BRANCH  19  21
ATOM     20  C   UNL     1      -2.152   3.014 126.662  0.00  0.00    +0.000 C 
ATOM     21  C   UNL     1      -3.329   3.927 126.329  0.00  0.00    +0.000 C 
ENDBRANCH  19  21
BRANCH  19  22
ATOM     22  C   UNL     1      -4.372   5.197 128.179  0.00  0.00    +0.000 C 
ATOM     23  C   UNL     1      -3.212   6.155 127.965  0.00  0.00    +0.000 C 
ENDBRANCH  19  22
ENDBRANCH  18  19
ENDBRANCH  17  18
ENDBRANCH  16  17
ENDBRANCH  14  16
ENDBRANCH   1  14
TORSDOF 9
ENDMDL
MODEL 9
REMARK VINA RESULT:      -6.7      2.397      6.431
REMARK  Name = Adiphenine
REMARK  11 active torsions:
REMARK  status: ('A' for Active; 'I' for Inactive)
REMARK    1  A    between atoms: C_1  and  C_2
REMARK    2  A    between atoms: C_2  and  N_3
REMARK    3  A    between atoms: N_3  and  C_4
REMARK    4  A    between atoms: N_3  and  C_6
REMARK    5  A    between atoms: C_4  and  C_5
REMARK    6  A    between atoms: C_6  and  C_7
REMARK    7  A    between atoms: C_7  and  O_8
REMARK    8  A    between atoms: O_8  and  C_9
REMARK    9  A    between atoms: C_9  and  C_11
REMARK   10  A    between atoms: C_11  and  C_12
REMARK   11  A    between atoms: C_11  and  C_18
REMARK                            x       y       z     vdW  Elec       q    Type
REMARK                         _______ _______ _______ _____ _____    ______ ____
ROOT
ATOM      1  C   UNL     1      -8.463  -1.847 125.407  0.00  0.00    +0.000 C 
ENDROOT
BRANCH   1   2
ATOM      2  C   UNL     1      -7.269  -2.133 124.469  0.00  0.00    +0.000 A 
ATOM      3  C   UNL     1      -7.352  -1.797 123.106  0.00  0.00    +0.000 A 
ATOM      4  C   UNL     1      -6.295  -2.039 122.229  0.00  0.00    +0.000 A 
ATOM      5  C   UNL     1      -5.138  -2.659 122.684  0.00  0.00    +0.000 A 
ATOM      6  C   UNL     1      -5.039  -3.030 124.013  0.00  0.00    +0.000 A 
ATOM      7  C   UNL     1      -6.062  -2.708 124.897  0.00  0.00    +0.000 A 
ENDBRANCH   1   2
BRANCH   1   8
ATOM      8  C   UNL     1      -8.325  -2.326 126.883  0.00  0.00    +0.000 A 
ATOM      9  C   UNL     1      -7.670  -1.589 127.892  0.00  0.00    +0.000 A 
ATOM     10  C   UNL     1      -7.719  -1.982 129.234  0.00  0.00    +0.000 A 
ATOM     11  C   UNL     1      -8.351  -3.165 129.591  0.00  0.00    +0.000 A 
ATOM     12  C   UNL     1      -8.872  -3.981 128.600  0.00  0.00    +0.000 A 
ATOM     13  C   UNL     1      -8.823  -3.580 127.269  0.00  0.00    +0.000 A 
ENDBRANCH   1   8
BRANCH   1  14
ATOM     14  C   UNL     1      -8.828  -0.325 125.300  0.00  0.00    +0.000 C 
ATOM     15  O   UNL     1      -9.950   0.147 125.299  0.00  0.00    +0.000 OA
BRANCH  14  16
ATOM     16  O   UNL     1      -7.712   0.478 125.219  0.00  0.00    +0.000 OA
BRANCH  16  17
ATOM     17  C   UNL     1      -8.073   1.864 125.273  0.00  0.00    +0.000 C 
BRANCH  17  18
ATOM     18  C   UNL     1      -7.697   2.604 123.980  0.00  0.00    +0.000 C 
BRANCH  18  19
ATOM     19  N   UNL     1      -6.863   3.823 124.209  0.00  0.00    +0.000 NA
BRANCH  19  21
ATOM     20  C   UNL     1      -4.708   3.878 125.565  0.00  0.00    +0.000 C 
ATOM     21  C   UNL     1      -6.225   3.713 125.540  0.00  0.00    +0.000 C 
ENDBRANCH  19  21
BRANCH  19  22
ATOM     22  C   UNL     1      -5.898   3.981 123.101  0.00  0.00    +0.000 C 
ATOM     23  C   UNL     1      -6.171   3.200 121.826  0.00  0.00    +0.000 C 
ENDBRANCH  19  22
ENDBRANCH  18  19
ENDBRANCH  17  18
ENDBRANCH  16  17
ENDBRANCH  14  16
ENDBRANCH   1  14
TORSDOF 9
ENDMDL
