MODEL 1
REMARK VINA RESULT:      -6.4      0.000      0.000
REMARK  Name = Agomelatine
REMARK  6 active torsions:
REMARK  status: ('A' for Active; 'I' for Inactive)
REMARK    1  A    between atoms: C_1  and  O_2
REMARK    2  A    between atoms: O_2  and  C_3
REMARK    3  A    between atoms: C_6  and  C_7
REMARK    4  A    between atoms: C_7  and  C_8
REMARK    5  A    between atoms: C_8  and  N_9
REMARK    6  A    between atoms: C_10  and  C_11
REMARK                            x       y       z     vdW  Elec       q    Type
REMARK                         _______ _______ _______ _____ _____    ______ ____
ROOT
ATOM      1  C   UNL     1      -7.574  -2.180 128.120  0.00  0.00    +0.000 A 
ATOM      2  C   UNL     1      -7.323  -1.609 126.885  0.00  0.00    +0.000 A 
ATOM      3  C   UNL     1      -7.869  -1.995 125.634  0.00  0.00    +0.000 A 
ATOM      4  C   UNL     1      -7.602  -1.394 124.338  0.00  0.00    +0.000 A 
ATOM      5  C   UNL     1      -8.271  -1.898 123.205  0.00  0.00    +0.000 A 
ATOM      6  C   UNL     1      -9.165  -2.959 123.318  0.00  0.00    +0.000 A 
ATOM      7  C   UNL     1      -9.406  -3.540 124.562  0.00  0.00    +0.000 A 
ATOM      8  C   UNL     1      -8.767  -3.076 125.725  0.00  0.00    +0.000 A 
ATOM      9  C   UNL     1      -9.029  -3.680 126.984  0.00  0.00    +0.000 A 
ATOM     10  C   UNL     1      -8.446  -3.230 128.178  0.00  0.00    +0.000 A 
ENDROOT
BRANCH   1  12
ATOM     11  C   UNL     1      -7.753  -1.507 130.355  0.00  0.00    +0.000 C 
ATOM     12  O   UNL     1      -6.976  -1.541 129.168  0.00  0.00    +0.000 OA
ENDBRANCH   1  12
BRANCH   4  13
ATOM     13  C   UNL     1      -6.629  -0.230 124.055  0.00  0.00    +0.000 C 
BRANCH  13  14
ATOM     14  C   UNL     1      -7.269   0.951 123.354  0.00  0.00    +0.000 C 
BRANCH  14  15
ATOM     15  N   UNL     1      -7.546   2.182 124.014  0.00  0.00    +0.000 N 
ATOM     16  C   UNL     1      -8.785   2.509 124.506  0.00  0.00    +0.000 C 
ATOM     17  C   UNL     1      -9.955   1.540 124.394  0.00  0.00    +0.000 C 
ATOM     18  O   UNL     1      -8.937   3.608 125.048  0.00  0.00    +0.000 OA
ATOM     19  H   UNL     1      -6.825   2.883 124.115  0.00  0.00    +0.000 HD
ENDBRANCH  14  15
ENDBRANCH  13  14
ENDBRANCH   4  13
TORSDOF 4
ENDMDL
MODEL 2
REMARK VINA RESULT:      -6.2      3.706      7.707
REMARK  Name = Agomelatine
REMARK  6 active torsions:
REMARK  status: ('A' for Active; 'I' for Inactive)
REMARK    1  A    between atoms: C_1  and  O_2
REMARK    2  A    between atoms: O_2  and  C_3
REMARK    3  A    between atoms: C_6  and  C_7
REMARK    4  A    between atoms: C_7  and  C_8
REMARK    5  A    between atoms: C_8  and  N_9
REMARK    6  A    between atoms: C_10  and  C_11
REMARK                            x       y       z     vdW  Elec       q    Type
REMARK                         _______ _______ _______ _____ _____    ______ ____
ROOT
ATOM      1  C   UNL     1      -6.519   4.078 120.313  0.00  0.00    +0.000 A 
ATOM      2  C   UNL     1      -7.281   3.516 121.321  0.00  0.00    +0.000 A 
ATOM      3  C   UNL     1      -6.954   3.430 122.699  0.00  0.00    +0.000 A 
ATOM      4  C   UNL     1      -7.756   2.837 123.756  0.00  0.00    +0.000 A 
ATOM      5  C   UNL     1      -7.275   2.880 125.079  0.00  0.00    +0.000 A 
ATOM      6  C   UNL     1      -6.049   3.469 125.373  0.00  0.00    +0.000 A 
ATOM      7  C   UNL     1      -5.278   4.024 124.352  0.00  0.00    +0.000 A 
ATOM      8  C   UNL     1      -5.710   4.011 123.016  0.00  0.00    +0.000 A 
ATOM      9  C   UNL     1      -4.911   4.584 121.991  0.00  0.00    +0.000 A 
ATOM     10  C   UNL     1      -5.315   4.630 120.648  0.00  0.00    +0.000 A 
ENDROOT
BRANCH   1  12
ATOM     11  C   UNL     1      -8.533   4.291 119.138  0.00  0.00    +0.000 C 
ATOM     12  O   UNL     1      -7.128   4.099 119.092  0.00  0.00    +0.000 OA
ENDBRANCH   1  12
BRANCH   4  13
ATOM     13  C   UNL     1      -9.120   2.137 123.582  0.00  0.00    +0.000 C 
BRANCH  13  14
ATOM     14  C   UNL     1      -9.039   0.624 123.571  0.00  0.00    +0.000 C 
BRANCH  14  15
ATOM     15  N   UNL     1      -7.853  -0.083 123.221  0.00  0.00    +0.000 N 
ATOM     16  C   UNL     1      -7.813  -1.445 123.049  0.00  0.00    +0.000 C 
ATOM     17  C   UNL     1      -9.069  -2.293 123.202  0.00  0.00    +0.000 C 
ATOM     18  O   UNL     1      -6.735  -1.975 122.763  0.00  0.00    +0.000 OA
ATOM     19  H   UNL     1      -6.977   0.408 123.114  0.00  0.00    +0.000 HD
ENDBRANCH  14  15
ENDBRANCH  13  14
ENDBRANCH   4  13
TORSDOF 4
ENDMDL
MODEL 3
REMARK VINA RESULT:      -6.1      2.962      5.809
REMARK  Name = Agomelatine
REMARK  6 active torsions:
REMARK  status: ('A' for Active; 'I' for Inactive)
REMARK    1  A    between atoms: C_1  and  O_2
REMARK    2  A    between atoms: O_2  and  C_3
REMARK    3  A    between atoms: C_6  and  C_7
REMARK    4  A    between atoms: C_7  and  C_8
REMARK    5  A    between atoms: C_8  and  N_9
REMARK    6  A    between atoms: C_10  and  C_11
REMARK                            x       y       z     vdW  Elec       q    Type
REMARK                         _______ _______ _______ _____ _____    ______ ____
ROOT
ATOM      1  C   UNL     1      -7.859  -1.807 124.286  0.00  0.00    +0.000 A 
ATOM      2  C   UNL     1      -7.455  -1.468 125.564  0.00  0.00    +0.000 A 
ATOM      3  C   UNL     1      -7.818  -2.106 126.778  0.00  0.00    +0.000 A 
ATOM      4  C   UNL     1      -7.393  -1.746 128.120  0.00  0.00    +0.000 A 
ATOM      5  C   UNL     1      -7.835  -2.528 129.206  0.00  0.00    +0.000 A 
ATOM      6  C   UNL     1      -8.674  -3.620 129.003  0.00  0.00    +0.000 A 
ATOM      7  C   UNL     1      -9.090  -3.951 127.714  0.00  0.00    +0.000 A 
ATOM      8  C   UNL     1      -8.677  -3.208 126.595  0.00  0.00    +0.000 A 
ATOM      9  C   UNL     1      -9.110  -3.565 125.290  0.00  0.00    +0.000 A 
ATOM     10  C   UNL     1      -8.696  -2.878 124.139  0.00  0.00    +0.000 A 
ENDROOT
BRANCH   1  12
ATOM     11  C   UNL     1      -6.338  -1.783 122.507  0.00  0.00    +0.000 C 
ATOM     12  O   UNL     1      -7.277  -1.070 123.296  0.00  0.00    +0.000 OA
ENDBRANCH   1  12
BRANCH   4  13
ATOM     13  C   UNL     1      -6.484  -0.559 128.500  0.00  0.00    +0.000 C 
BRANCH  13  14
ATOM     14  C   UNL     1      -5.003  -0.871 128.435  0.00  0.00    +0.000 C 
BRANCH  14  15
ATOM     15  N   UNL     1      -4.201  -1.053 129.598  0.00  0.00    +0.000 N 
ATOM     16  C   UNL     1      -3.627  -2.254 129.934  0.00  0.00    +0.000 C 
ATOM     17  C   UNL     1      -3.798  -3.481 129.048  0.00  0.00    +0.000 C 
ATOM     18  O   UNL     1      -2.961  -2.325 130.972  0.00  0.00    +0.000 OA
ATOM     19  H   UNL     1      -4.052  -0.290 130.243  0.00  0.00    +0.000 HD
ENDBRANCH  14  15
ENDBRANCH  13  14
ENDBRANCH   4  13
TORSDOF 4
ENDMDL
MODEL 4
REMARK VINA RESULT:      -6.0      9.593     10.821
REMARK  Name = Agomelatine
REMARK  6 active torsions:
REMARK  status: ('A' for Active; 'I' for Inactive)
REMARK    1  A    between atoms: C_1  and  O_2
REMARK    2  A    between atoms: O_2  and  C_3
REMARK    3  A    between atoms: C_6  and  C_7
REMARK    4  A    between atoms: C_7  and  C_8
REMARK    5  A    between atoms: C_8  and  N_9
REMARK    6  A    between atoms: C_10  and  C_11
REMARK                            x       y       z     vdW  Elec       q    Type
REMARK                         _______ _______ _______ _____ _____    ______ ____
ROOT
ATOM      1  C   UNL     1      -4.522   7.263 130.738  0.00  0.00    +0.000 A 
ATOM      2  C   UNL     1      -5.879   7.040 130.888  0.00  0.00    +0.000 A 
ATOM      3  C   UNL     1      -6.533   6.446 131.998  0.00  0.00    +0.000 A 
ATOM      4  C   UNL     1      -7.959   6.211 132.151  0.00  0.00    +0.000 A 
ATOM      5  C   UNL     1      -8.428   5.636 133.350  0.00  0.00    +0.000 A 
ATOM      6  C   UNL     1      -7.543   5.289 134.367  0.00  0.00    +0.000 A 
ATOM      7  C   UNL     1      -6.175   5.504 134.207  0.00  0.00    +0.000 A 
ATOM      8  C   UNL     1      -5.654   6.075 133.034  0.00  0.00    +0.000 A 
ATOM      9  C   UNL     1      -4.257   6.289 132.892  0.00  0.00    +0.000 A 
ATOM     10  C   UNL     1      -3.692   6.890 131.757  0.00  0.00    +0.000 A 
ENDROOT
BRANCH   1  12
ATOM     11  C   UNL     1      -3.601   7.129 128.590  0.00  0.00    +0.000 C 
ATOM     12  O   UNL     1      -4.184   7.937 129.600  0.00  0.00    +0.000 OA
ENDBRANCH   1  12
BRANCH   4  13
ATOM     13  C   UNL     1      -9.053   6.526 131.110  0.00  0.00    +0.000 C 
BRANCH  13  14
ATOM     14  C   UNL     1     -10.292   5.662 131.237  0.00  0.00    +0.000 C 
BRANCH  14  15
ATOM     15  N   UNL     1     -11.500   6.129 131.828  0.00  0.00    +0.000 N 
ATOM     16  C   UNL     1     -12.467   6.808 131.127  0.00  0.00    +0.000 C 
ATOM     17  C   UNL     1     -12.308   7.084 129.638  0.00  0.00    +0.000 C 
ATOM     18  O   UNL     1     -13.476   7.191 131.727  0.00  0.00    +0.000 OA
ATOM     19  H   UNL     1     -11.673   5.996 132.814  0.00  0.00    +0.000 HD
ENDBRANCH  14  15
ENDBRANCH  13  14
ENDBRANCH   4  13
TORSDOF 4
ENDMDL
MODEL 5
REMARK VINA RESULT:      -5.9      2.049      4.624
REMARK  Name = Agomelatine
REMARK  6 active torsions:
REMARK  status: ('A' for Active; 'I' for Inactive)
REMARK    1  A    between atoms: C_1  and  O_2
REMARK    2  A    between atoms: O_2  and  C_3
REMARK    3  A    between atoms: C_6  and  C_7
REMARK    4  A    between atoms: C_7  and  C_8
REMARK    5  A    between atoms: C_8  and  N_9
REMARK    6  A    between atoms: C_10  and  C_11
REMARK                            x       y       z     vdW  Elec       q    Type
REMARK                         _______ _______ _______ _____ _____    ______ ____
ROOT
ATOM      1  C   UNL     1      -9.122   1.783 124.937  0.00  0.00    +0.000 A 
ATOM      2  C   UNL     1      -8.906   0.547 125.518  0.00  0.00    +0.000 A 
ATOM      3  C   UNL     1      -8.990  -0.723 124.893  0.00  0.00    +0.000 A 
ATOM      4  C   UNL     1      -8.764  -2.020 125.507  0.00  0.00    +0.000 A 
ATOM      5  C   UNL     1      -8.861  -3.177 124.707  0.00  0.00    +0.000 A 
ATOM      6  C   UNL     1      -9.179  -3.084 123.355  0.00  0.00    +0.000 A 
ATOM      7  C   UNL     1      -9.409  -1.837 122.776  0.00  0.00    +0.000 A 
ATOM      8  C   UNL     1      -9.323  -0.652 123.525  0.00  0.00    +0.000 A 
ATOM      9  C   UNL     1      -9.558   0.609 122.915  0.00  0.00    +0.000 A 
ATOM     10  C   UNL     1      -9.448   1.822 123.611  0.00  0.00    +0.000 A 
ENDROOT
BRANCH   1  12
ATOM     11  C   UNL     1      -8.101   3.876 125.178  0.00  0.00    +0.000 C 
ATOM     12  O   UNL     1      -8.881   2.844 125.762  0.00  0.00    +0.000 OA
ENDBRANCH   1  12
BRANCH   4  13
ATOM     13  C   UNL     1      -8.424  -2.281 126.989  0.00  0.00    +0.000 C 
BRANCH  13  14
ATOM     14  C   UNL     1      -6.944  -2.199 127.305  0.00  0.00    +0.000 C 
BRANCH  14  15
ATOM     15  N   UNL     1      -6.201  -0.987 127.213  0.00  0.00    +0.000 N 
ATOM     16  C   UNL     1      -5.444  -0.651 126.119  0.00  0.00    +0.000 C 
ATOM     17  C   UNL     1      -5.374  -1.564 124.902  0.00  0.00    +0.000 C 
ATOM     18  O   UNL     1      -4.818   0.414 126.134  0.00  0.00    +0.000 OA
ATOM     19  H   UNL     1      -6.187  -0.335 127.985  0.00  0.00    +0.000 HD
ENDBRANCH  14  15
ENDBRANCH  13  14
ENDBRANCH   4  13
TORSDOF 4
ENDMDL
MODEL 6
REMARK VINA RESULT:      -5.9      9.463     10.713
REMARK  Name = Agomelatine
REMARK  6 active torsions:
REMARK  status: ('A' for Active; 'I' for Inactive)
REMARK    1  A    between atoms: C_1  and  O_2
REMARK    2  A    between atoms: O_2  and  C_3
REMARK    3  A    between atoms: C_6  and  C_7
REMARK    4  A    between atoms: C_7  and  C_8
REMARK    5  A    between atoms: C_8  and  N_9
REMARK    6  A    between atoms: C_10  and  C_11
REMARK                            x       y       z     vdW  Elec       q    Type
REMARK                         _______ _______ _______ _____ _____    ______ ____
ROOT
ATOM      1  C   UNL     1     -10.232   7.713 129.535  0.00  0.00    +0.000 A 
ATOM      2  C   UNL     1      -8.920   7.525 129.931  0.00  0.00    +0.000 A 
ATOM      3  C   UNL     1      -8.459   6.807 131.064  0.00  0.00    +0.000 A 
ATOM      4  C   UNL     1      -7.080   6.613 131.478  0.00  0.00    +0.000 A 
ATOM      5  C   UNL     1      -6.818   5.833 132.622  0.00  0.00    +0.000 A 
ATOM      6  C   UNL     1      -7.858   5.264 133.351  0.00  0.00    +0.000 A 
ATOM      7  C   UNL     1      -9.180   5.466 132.956  0.00  0.00    +0.000 A 
ATOM      8  C   UNL     1      -9.499   6.233 131.823  0.00  0.00    +0.000 A 
ATOM      9  C   UNL     1     -10.852   6.424 131.435  0.00  0.00    +0.000 A 
ATOM     10  C   UNL     1     -11.220   7.149 130.292  0.00  0.00    +0.000 A 
ENDROOT
BRANCH   1  12
ATOM     11  C   UNL     1     -10.892   7.581 127.293  0.00  0.00    +0.000 C 
ATOM     12  O   UNL     1     -10.374   8.374 128.349  0.00  0.00    +0.000 OA
ENDBRANCH   1  12
BRANCH   4  13
ATOM     13  C   UNL     1      -5.830   7.192 130.785  0.00  0.00    +0.000 C 
BRANCH  13  14
ATOM     14  C   UNL     1      -4.682   6.211 130.664  0.00  0.00    +0.000 C 
BRANCH  14  15
ATOM     15  N   UNL     1      -3.429   6.405 131.313  0.00  0.00    +0.000 N 
ATOM     16  C   UNL     1      -2.235   6.468 130.638  0.00  0.00    +0.000 C 
ATOM     17  C   UNL     1      -2.184   6.357 129.120  0.00  0.00    +0.000 C 
ATOM     18  O   UNL     1      -1.194   6.621 131.286  0.00  0.00    +0.000 OA
ATOM     19  H   UNL     1      -3.378   6.474 132.320  0.00  0.00    +0.000 HD
ENDBRANCH  14  15
ENDBRANCH  13  14
ENDBRANCH   4  13
TORSDOF 4
ENDMDL
MODEL 7
REMARK VINA RESULT:      -5.8      9.147     12.228
REMARK  Name = Agomelatine
REMARK  6 active torsions:
REMARK  status: ('A' for Active; 'I' for Inactive)
REMARK    1  A    between atoms: C_1  and  O_2
REMARK    2  A    between atoms: O_2  and  C_3
REMARK    3  A    between atoms: C_6  and  C_7
REMARK    4  A    between atoms: C_7  and  C_8
REMARK    5  A    between atoms: C_8  and  N_9
REMARK    6  A    between atoms: C_10  and  C_11
REMARK                            x       y       z     vdW  Elec       q    Type
REMARK                         _______ _______ _______ _____ _____    ______ ____
ROOT
ATOM      1  C   UNL     1     -13.457  10.811 130.186  0.00  0.00    +0.000 A 
ATOM      2  C   UNL     1     -12.996   9.580 130.616  0.00  0.00    +0.000 A 
ATOM      3  C   UNL     1     -12.919   8.380 129.863  0.00  0.00    +0.000 A 
ATOM      4  C   UNL     1     -12.436   7.088 130.318  0.00  0.00    +0.000 A 
ATOM      5  C   UNL     1     -12.404   6.014 129.405  0.00  0.00    +0.000 A 
ATOM      6  C   UNL     1     -12.836   6.181 128.093  0.00  0.00    +0.000 A 
ATOM      7  C   UNL     1     -13.313   7.421 127.667  0.00  0.00    +0.000 A 
ATOM      8  C   UNL     1     -13.365   8.525 128.534  0.00  0.00    +0.000 A 
ATOM      9  C   UNL     1     -13.850   9.780 128.079  0.00  0.00    +0.000 A 
ATOM     10  C   UNL     1     -13.887  10.921 128.894  0.00  0.00    +0.000 A 
ENDROOT
BRANCH   1  12
ATOM     11  C   UNL     1     -13.763  13.085 130.650  0.00  0.00    +0.000 C 
ATOM     12  O   UNL     1     -13.330  11.812 131.105  0.00  0.00    +0.000 OA
ENDBRANCH   1  12
BRANCH   4  13
ATOM     13  C   UNL     1     -11.943   6.748 131.739  0.00  0.00    +0.000 C 
BRANCH  13  14
ATOM     14  C   UNL     1     -10.456   6.468 131.826  0.00  0.00    +0.000 C 
BRANCH  14  15
ATOM     15  N   UNL     1      -9.823   6.020 133.020  0.00  0.00    +0.000 N 
ATOM     16  C   UNL     1      -8.950   4.961 133.057  0.00  0.00    +0.000 C 
ATOM     17  C   UNL     1      -8.581   4.204 131.788  0.00  0.00    +0.000 C 
ATOM     18  O   UNL     1      -8.462   4.631 134.143  0.00  0.00    +0.000 OA
ATOM     19  H   UNL     1     -10.027   6.463 133.905  0.00  0.00    +0.000 HD
ENDBRANCH  14  15
ENDBRANCH  13  14
ENDBRANCH   4  13
TORSDOF 4
ENDMDL
MODEL 8
REMARK VINA RESULT:      -5.8      2.404      3.739
REMARK  Name = Agomelatine
REMARK  6 active torsions:
REMARK  status: ('A' for Active; 'I' for Inactive)
REMARK    1  A    between atoms: C_1  and  O_2
REMARK    2  A    between atoms: O_2  and  C_3
REMARK    3  A    between atoms: C_6  and  C_7
REMARK    4  A    between atoms: C_7  and  C_8
REMARK    5  A    between atoms: C_8  and  N_9
REMARK    6  A    between atoms: C_10  and  C_11
REMARK                            x       y       z     vdW  Elec       q    Type
REMARK                         _______ _______ _______ _____ _____    ______ ____
ROOT
ATOM      1  C   UNL     1      -4.888  -2.078 130.040  0.00  0.00    +0.000 A 
ATOM      2  C   UNL     1      -5.454  -1.857 128.798  0.00  0.00    +0.000 A 
ATOM      3  C   UNL     1      -6.639  -2.439 128.277  0.00  0.00    +0.000 A 
ATOM      4  C   UNL     1      -7.229  -2.206 126.970  0.00  0.00    +0.000 A 
ATOM      5  C   UNL     1      -8.438  -2.855 126.646  0.00  0.00    +0.000 A 
ATOM      6  C   UNL     1      -9.052  -3.713 127.553  0.00  0.00    +0.000 A 
ATOM      7  C   UNL     1      -8.472  -3.943 128.800  0.00  0.00    +0.000 A 
ATOM      8  C   UNL     1      -7.270  -3.321 129.177  0.00  0.00    +0.000 A 
ATOM      9  C   UNL     1      -6.698  -3.567 130.453  0.00  0.00    +0.000 A 
ATOM     10  C   UNL     1      -5.520  -2.942 130.890  0.00  0.00    +0.000 A 
ENDROOT
BRANCH   1  12
ATOM     11  C   UNL     1      -4.081   0.055 130.569  0.00  0.00    +0.000 C 
ATOM     12  O   UNL     1      -3.792  -1.309 130.305  0.00  0.00    +0.000 OA
ENDBRANCH   1  12
BRANCH   4  13
ATOM     13  C   UNL     1      -6.658  -1.301 125.860  0.00  0.00    +0.000 C 
BRANCH  13  14
ATOM     14  C   UNL     1      -7.091  -1.692 124.461  0.00  0.00    +0.000 C 
BRANCH  14  15
ATOM     15  N   UNL     1      -8.068  -0.963 123.724  0.00  0.00    +0.000 N 
ATOM     16  C   UNL     1      -9.152  -1.554 123.124  0.00  0.00    +0.000 C 
ATOM     17  C   UNL     1      -9.392  -3.054 123.238  0.00  0.00    +0.000 C 
ATOM     18  O   UNL     1      -9.939  -0.845 122.489  0.00  0.00    +0.000 OA
ATOM     19  H   UNL     1      -7.971   0.034 123.592  0.00  0.00    +0.000 HD
ENDBRANCH  14  15
ENDBRANCH  13  14
ENDBRANCH   4  13
TORSDOF 4
ENDMDL
MODEL 9
REMARK VINA RESULT:      -5.7      2.371      4.490
REMARK  Name = Agomelatine
REMARK  6 active torsions:
REMARK  status: ('A' for Active; 'I' for Inactive)
REMARK    1  A    between atoms: C_1  and  O_2
REMARK    2  A    between atoms: O_2  and  C_3
REMARK    3  A    between atoms: C_6  and  C_7
REMARK    4  A    between atoms: C_7  and  C_8
REMARK    5  A    between atoms: C_8  and  N_9
REMARK    6  A    between atoms: C_10  and  C_11
REMARK                            x       y       z     vdW  Elec       q    Type
REMARK                         _______ _______ _______ _____ _____    ______ ____
ROOT
ATOM      1  C   UNL     1      -8.134  -1.862 124.584  0.00  0.00    +0.000 A 
ATOM      2  C   UNL     1      -7.340  -1.595 125.684  0.00  0.00    +0.000 A 
ATOM      3  C   UNL     1      -7.472  -2.133 126.990  0.00  0.00    +0.000 A 
ATOM      4  C   UNL     1      -6.637  -1.848 128.144  0.00  0.00    +0.000 A 
ATOM      5  C   UNL     1      -6.907  -2.512 129.358  0.00  0.00    +0.000 A 
ATOM      6  C   UNL     1      -7.960  -3.417 129.457  0.00  0.00    +0.000 A 
ATOM      7  C   UNL     1      -8.766  -3.674 128.349  0.00  0.00    +0.000 A 
ATOM      8  C   UNL     1      -8.542  -3.042 127.115  0.00  0.00    +0.000 A 
ATOM      9  C   UNL     1      -9.373  -3.320 125.997  0.00  0.00    +0.000 A 
ATOM     10  C   UNL     1      -9.167  -2.744 124.734  0.00  0.00    +0.000 A 
ENDROOT
BRANCH   1  12
ATOM     11  C   UNL     1      -7.763   0.150 123.446  0.00  0.00    +0.000 C 
ATOM     12  O   UNL     1      -7.715  -1.268 123.428  0.00  0.00    +0.000 OA
ENDBRANCH   1  12
BRANCH   4  13
ATOM     13  C   UNL     1      -5.451  -0.863 128.192  0.00  0.00    +0.000 C 
BRANCH  13  14
ATOM     14  C   UNL     1      -5.819   0.521 128.688  0.00  0.00    +0.000 C 
BRANCH  14  15
ATOM     15  N   UNL     1      -6.895   1.276 128.142  0.00  0.00    +0.000 N 
ATOM     16  C   UNL     1      -8.091   1.459 128.792  0.00  0.00    +0.000 C 
ATOM     17  C   UNL     1      -8.330   0.873 130.176  0.00  0.00    +0.000 C 
ATOM     18  O   UNL     1      -8.975   2.115 128.233  0.00  0.00    +0.000 OA
ATOM     19  H   UNL     1      -6.818   1.686 127.222  0.00  0.00    +0.000 HD
ENDBRANCH  14  15
ENDBRANCH  13  14
ENDBRANCH   4  13
TORSDOF 4
ENDMDL
