MODEL 1
REMARK VINA RESULT:      -8.1      0.000      0.000
REMARK  Name = Ajmaline
REMARK  5 active torsions:
REMARK  status: ('A' for Active; 'I' for Inactive)
REMARK    1  A    between atoms: C_5  and  O_6
REMARK    2  A    between atoms: C_14  and  O_15
REMARK    3  A    between atoms: C_16  and  C_17
REMARK    4  A    between atoms: C_17  and  C_18
REMARK    5  A    between atoms: N_21  and  C_22
REMARK                            x       y       z     vdW  Elec       q    Type
REMARK                         _______ _______ _______ _____ _____    ______ ____
ROOT
ATOM      1  C   UNL     1      -8.176  -1.716 123.186  0.00  0.00    +0.000 C 
ATOM      2  C   UNL     1      -7.237  -0.330 123.047  0.00  0.00    +0.000 C 
ATOM      3  C   UNL     1      -8.091   0.938 123.854  0.00  0.00    +0.000 C 
ATOM      4  C   UNL     1      -9.318   0.567 123.231  0.00  0.00    +0.000 C 
ATOM      5  C   UNL     1      -8.976  -0.841 123.881  0.00  0.00    +0.000 C 
ATOM      6  C   UNL     1      -7.260  -1.517 124.983  0.00  0.00    +0.000 C 
ATOM      7  C   UNL     1      -6.983  -0.400 125.833  0.00  0.00    +0.000 C 
ATOM      8  C   UNL     1      -8.526  -0.466 125.902  0.00  0.00    +0.000 C 
ATOM      9  N   UNL     1      -9.194  -1.876 124.813  0.00  0.00    +0.000 NA
ATOM     10  C   UNL     1      -8.794  -3.161 125.400  0.00  0.00    +0.000 C 
ATOM     11  C   UNL     1      -7.296  -3.089 125.198  0.00  0.00    +0.000 C 
ATOM     12  C   UNL     1      -8.701   0.942 125.358  0.00  0.00    +0.000 C 
ATOM     13  N   UNL     1      -7.967   1.979 126.036  0.00  0.00    +0.000 N 
ATOM     14  C   UNL     1      -8.133   2.158 127.445  0.00  0.00    +0.000 C 
ATOM     15  C   UNL     1      -7.278   2.701 125.092  0.00  0.00    +0.000 A 
ATOM     16  C   UNL     1      -6.467   3.776 125.287  0.00  0.00    +0.000 A 
ATOM     17  C   UNL     1      -5.791   4.317 124.183  0.00  0.00    +0.000 A 
ATOM     18  C   UNL     1      -5.910   3.778 122.889  0.00  0.00    +0.000 A 
ATOM     19  C   UNL     1      -6.716   2.685 122.677  0.00  0.00    +0.000 A 
ATOM     20  C   UNL     1      -7.377   2.194 123.786  0.00  0.00    +0.000 A 
ENDROOT
BRANCH   4  21
ATOM     21  O   UNL     1     -10.630   0.925 123.693  0.00  0.00    +0.000 OA
ATOM     22  H   UNL     1     -11.102   1.343 122.941  0.00  0.00    +0.000 HD
ENDBRANCH   4  21
BRANCH  10  23
ATOM     23  O   UNL     1      -9.191  -3.166 126.774  0.00  0.00    +0.000 OA
ATOM     24  H   UNL     1     -10.129  -2.933 126.858  0.00  0.00    +0.000 HD
ENDBRANCH  10  23
BRANCH  11  25
ATOM     25  C   UNL     1      -6.524  -3.580 123.994  0.00  0.00    +0.000 C 
ATOM     26  C   UNL     1      -5.015  -3.454 124.075  0.00  0.00    +0.000 C 
ENDBRANCH  11  25
TORSDOF 3
ENDMDL
MODEL 2
REMARK VINA RESULT:      -7.6      7.812     10.089
REMARK  Name = Ajmaline
REMARK  5 active torsions:
REMARK  status: ('A' for Active; 'I' for Inactive)
REMARK    1  A    between atoms: C_5  and  O_6
REMARK    2  A    between atoms: C_14  and  O_15
REMARK    3  A    between atoms: C_16  and  C_17
REMARK    4  A    between atoms: C_17  and  C_18
REMARK    5  A    between atoms: N_21  and  C_22
REMARK                            x       y       z     vdW  Elec       q    Type
REMARK                         _______ _______ _______ _____ _____    ______ ____
ROOT
ATOM      1  C   UNL     1     -12.007   6.029 130.480  0.00  0.00    +0.000 C 
ATOM      2  C   UNL     1     -11.054   5.871 131.855  0.00  0.00    +0.000 C 
ATOM      3  C   UNL     1      -9.729   4.843 131.433  0.00  0.00    +0.000 C 
ATOM      4  C   UNL     1     -10.598   3.921 130.780  0.00  0.00    +0.000 C 
ATOM      5  C   UNL     1     -11.020   5.220 129.970  0.00  0.00    +0.000 C 
ATOM      6  C   UNL     1     -10.438   7.277 130.182  0.00  0.00    +0.000 C 
ATOM      7  C   UNL     1      -9.032   7.173 130.425  0.00  0.00    +0.000 C 
ATOM      8  C   UNL     1      -9.232   6.116 129.316  0.00  0.00    +0.000 C 
ATOM      9  N   UNL     1     -11.062   6.009 128.802  0.00  0.00    +0.000 NA
ATOM     10  C   UNL     1     -11.439   7.257 128.126  0.00  0.00    +0.000 C 
ATOM     11  C   UNL     1     -11.339   8.226 129.283  0.00  0.00    +0.000 C 
ATOM     12  C   UNL     1      -8.710   4.980 130.178  0.00  0.00    +0.000 C 
ATOM     13  N   UNL     1      -7.421   5.187 130.788  0.00  0.00    +0.000 N 
ATOM     14  C   UNL     1      -6.295   5.510 129.969  0.00  0.00    +0.000 C 
ATOM     15  C   UNL     1      -7.536   4.913 132.129  0.00  0.00    +0.000 A 
ATOM     16  C   UNL     1      -6.565   4.968 133.081  0.00  0.00    +0.000 A 
ATOM     17  C   UNL     1      -6.918   4.725 134.416  0.00  0.00    +0.000 A 
ATOM     18  C   UNL     1      -8.241   4.444 134.806  0.00  0.00    +0.000 A 
ATOM     19  C   UNL     1      -9.235   4.396 133.859  0.00  0.00    +0.000 A 
ATOM     20  C   UNL     1      -8.843   4.623 132.554  0.00  0.00    +0.000 A 
ENDROOT
BRANCH   4  21
ATOM     21  O   UNL     1     -10.196   2.943 129.807  0.00  0.00    +0.000 OA
ATOM     22  H   UNL     1     -10.979   2.383 129.612  0.00  0.00    +0.000 HD
ENDBRANCH   4  21
BRANCH  10  23
ATOM     23  O   UNL     1     -10.493   7.503 127.082  0.00  0.00    +0.000 OA
ATOM     24  H   UNL     1      -9.599   7.592 127.448  0.00  0.00    +0.000 HD
ENDBRANCH  10  23
BRANCH  11  25
ATOM     25  C   UNL     1     -12.443   8.600 130.246  0.00  0.00    +0.000 C 
ATOM     26  C   UNL     1     -13.149   9.913 129.971  0.00  0.00    +0.000 C 
ENDBRANCH  11  25
TORSDOF 3
ENDMDL
MODEL 3
REMARK VINA RESULT:      -7.6      7.219      9.740
REMARK  Name = Ajmaline
REMARK  5 active torsions:
REMARK  status: ('A' for Active; 'I' for Inactive)
REMARK    1  A    between atoms: C_5  and  O_6
REMARK    2  A    between atoms: C_14  and  O_15
REMARK    3  A    between atoms: C_16  and  C_17
REMARK    4  A    between atoms: C_17  and  C_18
REMARK    5  A    between atoms: N_21  and  C_22
REMARK                            x       y       z     vdW  Elec       q    Type
REMARK                         _______ _______ _______ _____ _____    ______ ____
ROOT
ATOM      1  C   UNL     1      -2.626   6.247 128.224  0.00  0.00    +0.000 C 
ATOM      2  C   UNL     1      -2.070   6.388 129.803  0.00  0.00    +0.000 C 
ATOM      3  C   UNL     1      -3.343   7.113 130.721  0.00  0.00    +0.000 C 
ATOM      4  C   UNL     1      -3.570   8.094 129.712  0.00  0.00    +0.000 C 
ATOM      5  C   UNL     1      -3.741   6.807 128.798  0.00  0.00    +0.000 C 
ATOM      6  C   UNL     1      -3.496   4.717 129.228  0.00  0.00    +0.000 C 
ATOM      7  C   UNL     1      -4.098   4.598 130.521  0.00  0.00    +0.000 C 
ATOM      8  C   UNL     1      -5.089   5.543 129.804  0.00  0.00    +0.000 C 
ATOM      9  N   UNL     1      -4.512   5.912 128.029  0.00  0.00    +0.000 NA
ATOM     10  C   UNL     1      -4.611   4.682 127.232  0.00  0.00    +0.000 C 
ATOM     11  C   UNL     1      -3.543   3.846 127.902  0.00  0.00    +0.000 C 
ATOM     12  C   UNL     1      -4.898   6.659 130.817  0.00  0.00    +0.000 C 
ATOM     13  N   UNL     1      -5.078   6.298 132.200  0.00  0.00    +0.000 N 
ATOM     14  C   UNL     1      -6.303   5.691 132.620  0.00  0.00    +0.000 C 
ATOM     15  C   UNL     1      -3.981   6.737 132.901  0.00  0.00    +0.000 A 
ATOM     16  C   UNL     1      -3.737   6.619 134.235  0.00  0.00    +0.000 A 
ATOM     17  C   UNL     1      -2.506   7.068 134.734  0.00  0.00    +0.000 A 
ATOM     18  C   UNL     1      -1.512   7.620 133.905  0.00  0.00    +0.000 A 
ATOM     19  C   UNL     1      -1.738   7.735 132.555  0.00  0.00    +0.000 A 
ATOM     20  C   UNL     1      -2.969   7.298 132.105  0.00  0.00    +0.000 A 
ENDROOT
BRANCH   4  21
ATOM     21  O   UNL     1      -4.768   8.871 129.558  0.00  0.00    +0.000 OA
ATOM     22  H   UNL     1      -5.519   8.316 129.862  0.00  0.00    +0.000 HD
ENDBRANCH   4  21
BRANCH  10  23
ATOM     23  O   UNL     1      -5.933   4.158 127.382  0.00  0.00    +0.000 OA
ATOM     24  H   UNL     1      -6.418   4.648 128.064  0.00  0.00    +0.000 HD
ENDBRANCH  10  23
BRANCH  11  25
ATOM     25  C   UNL     1      -2.078   3.783 127.527  0.00  0.00    +0.000 C 
ATOM     26  C   UNL     1      -1.745   2.985 126.282  0.00  0.00    +0.000 C 
ENDBRANCH  11  25
TORSDOF 3
ENDMDL
MODEL 4
REMARK VINA RESULT:      -7.5      2.886      5.250
REMARK  Name = Ajmaline
REMARK  5 active torsions:
REMARK  status: ('A' for Active; 'I' for Inactive)
REMARK    1  A    between atoms: C_5  and  O_6
REMARK    2  A    between atoms: C_14  and  O_15
REMARK    3  A    between atoms: C_16  and  C_17
REMARK    4  A    between atoms: C_17  and  C_18
REMARK    5  A    between atoms: N_21  and  C_22
REMARK                            x       y       z     vdW  Elec       q    Type
REMARK                         _______ _______ _______ _____ _____    ______ ____
ROOT
ATOM      1  C   UNL     1      -6.384  -0.657 124.772  0.00  0.00    +0.000 C 
ATOM      2  C   UNL     1      -5.608  -1.438 126.042  0.00  0.00    +0.000 C 
ATOM      3  C   UNL     1      -6.737  -1.516 127.349  0.00  0.00    +0.000 C 
ATOM      4  C   UNL     1      -7.106  -0.151 127.168  0.00  0.00    +0.000 C 
ATOM      5  C   UNL     1      -7.406  -0.649 125.690  0.00  0.00    +0.000 C 
ATOM      6  C   UNL     1      -7.101  -2.553 124.744  0.00  0.00    +0.000 C 
ATOM      7  C   UNL     1      -7.512  -3.470 125.763  0.00  0.00    +0.000 C 
ATOM      8  C   UNL     1      -8.595  -2.374 125.877  0.00  0.00    +0.000 C 
ATOM      9  N   UNL     1      -8.278  -0.972 124.631  0.00  0.00    +0.000 NA
ATOM     10  C   UNL     1      -8.489  -1.487 123.272  0.00  0.00    +0.000 C 
ATOM     11  C   UNL     1      -7.336  -2.462 123.176  0.00  0.00    +0.000 C 
ATOM     12  C   UNL     1      -8.262  -2.070 127.328  0.00  0.00    +0.000 C 
ATOM     13  N   UNL     1      -8.243  -3.198 128.224  0.00  0.00    +0.000 N 
ATOM     14  C   UNL     1      -9.395  -4.037 128.330  0.00  0.00    +0.000 C 
ATOM     15  C   UNL     1      -7.057  -3.170 128.918  0.00  0.00    +0.000 A 
ATOM     16  C   UNL     1      -6.625  -4.038 129.873  0.00  0.00    +0.000 A 
ATOM     17  C   UNL     1      -5.336  -3.870 130.399  0.00  0.00    +0.000 A 
ATOM     18  C   UNL     1      -4.471  -2.850 129.962  0.00  0.00    +0.000 A 
ATOM     19  C   UNL     1      -4.887  -1.973 128.990  0.00  0.00    +0.000 A 
ATOM     20  C   UNL     1      -6.169  -2.160 128.511  0.00  0.00    +0.000 A 
ENDROOT
BRANCH   4  21
ATOM     21  O   UNL     1      -8.315   0.458 127.650  0.00  0.00    +0.000 OA
ATOM     22  H   UNL     1      -8.163   0.712 128.586  0.00  0.00    +0.000 HD
ENDBRANCH   4  21
BRANCH  10  23
ATOM     23  O   UNL     1      -9.776  -2.110 123.225  0.00  0.00    +0.000 OA
ATOM     24  H   UNL     1     -10.053  -2.250 122.306  0.00  0.00    +0.000 HD
ENDBRANCH  10  23
BRANCH  11  25
ATOM     25  C   UNL     1      -5.940  -2.163 122.676  0.00  0.00    +0.000 C 
ATOM     26  C   UNL     1      -4.887  -3.212 122.974  0.00  0.00    +0.000 C 
ENDBRANCH  11  25
TORSDOF 3
ENDMDL
MODEL 5
REMARK VINA RESULT:      -7.2      2.512      5.644
REMARK  Name = Ajmaline
REMARK  5 active torsions:
REMARK  status: ('A' for Active; 'I' for Inactive)
REMARK    1  A    between atoms: C_5  and  O_6
REMARK    2  A    between atoms: C_14  and  O_15
REMARK    3  A    between atoms: C_16  and  C_17
REMARK    4  A    between atoms: C_17  and  C_18
REMARK    5  A    between atoms: N_21  and  C_22
REMARK                            x       y       z     vdW  Elec       q    Type
REMARK                         _______ _______ _______ _____ _____    ______ ____
ROOT
ATOM      1  C   UNL     1      -5.537   1.966 127.678  0.00  0.00    +0.000 C 
ATOM      2  C   UNL     1      -5.934   0.548 126.868  0.00  0.00    +0.000 C 
ATOM      3  C   UNL     1      -7.584   0.697 126.375  0.00  0.00    +0.000 C 
ATOM      4  C   UNL     1      -7.967   1.186 127.657  0.00  0.00    +0.000 C 
ATOM      5  C   UNL     1      -6.838   2.260 127.350  0.00  0.00    +0.000 C 
ATOM      6  C   UNL     1      -5.463   2.444 125.710  0.00  0.00    +0.000 C 
ATOM      7  C   UNL     1      -6.286   2.126 124.584  0.00  0.00    +0.000 C 
ATOM      8  C   UNL     1      -7.239   3.006 125.424  0.00  0.00    +0.000 C 
ATOM      9  N   UNL     1      -6.402   3.563 127.039  0.00  0.00    +0.000 NA
ATOM     10  C   UNL     1      -5.313   4.494 126.713  0.00  0.00    +0.000 C 
ATOM     11  C   UNL     1      -4.366   3.554 126.000  0.00  0.00    +0.000 C 
ATOM     12  C   UNL     1      -8.283   1.909 125.554  0.00  0.00    +0.000 C 
ATOM     13  N   UNL     1      -8.719   1.301 124.324  0.00  0.00    +0.000 N 
ATOM     14  C   UNL     1      -9.245   2.120 123.276  0.00  0.00    +0.000 C 
ATOM     15  C   UNL     1      -8.620  -0.063 124.464  0.00  0.00    +0.000 A 
ATOM     16  C   UNL     1      -8.937  -1.024 123.554  0.00  0.00    +0.000 A 
ATOM     17  C   UNL     1      -8.679  -2.364 123.876  0.00  0.00    +0.000 A 
ATOM     18  C   UNL     1      -8.093  -2.747 125.097  0.00  0.00    +0.000 A 
ATOM     19  C   UNL     1      -7.757  -1.788 126.022  0.00  0.00    +0.000 A 
ATOM     20  C   UNL     1      -8.042  -0.482 125.674  0.00  0.00    +0.000 A 
ENDROOT
BRANCH   4  21
ATOM     21  O   UNL     1      -9.167   1.923 127.944  0.00  0.00    +0.000 OA
ATOM     22  H   UNL     1      -8.929   2.641 128.569  0.00  0.00    +0.000 HD
ENDBRANCH   4  21
BRANCH  10  23
ATOM     23  O   UNL     1      -5.843   5.525 125.875  0.00  0.00    +0.000 OA
ATOM     24  H   UNL     1      -6.564   5.992 126.326  0.00  0.00    +0.000 HD
ENDBRANCH  10  23
BRANCH  11  25
ATOM     25  C   UNL     1      -3.263   2.734 126.632  0.00  0.00    +0.000 C 
ATOM     26  C   UNL     1      -1.859   3.293 126.500  0.00  0.00    +0.000 C 
ENDBRANCH  11  25
TORSDOF 3
ENDMDL
MODEL 6
REMARK VINA RESULT:      -7.1      2.724      5.013
REMARK  Name = Ajmaline
REMARK  5 active torsions:
REMARK  status: ('A' for Active; 'I' for Inactive)
REMARK    1  A    between atoms: C_5  and  O_6
REMARK    2  A    between atoms: C_14  and  O_15
REMARK    3  A    between atoms: C_16  and  C_17
REMARK    4  A    between atoms: C_17  and  C_18
REMARK    5  A    between atoms: N_21  and  C_22
REMARK                            x       y       z     vdW  Elec       q    Type
REMARK                         _______ _______ _______ _____ _____    ______ ____
ROOT
ATOM      1  C   UNL     1      -6.523  -1.579 124.306  0.00  0.00    +0.000 C 
ATOM      2  C   UNL     1      -6.766  -2.255 125.826  0.00  0.00    +0.000 C 
ATOM      3  C   UNL     1      -6.455  -1.010 126.985  0.00  0.00    +0.000 C 
ATOM      4  C   UNL     1      -5.263  -0.619 126.309  0.00  0.00    +0.000 C 
ATOM      5  C   UNL     1      -6.259  -0.475 125.080  0.00  0.00    +0.000 C 
ATOM      6  C   UNL     1      -8.350  -0.925 124.889  0.00  0.00    +0.000 C 
ATOM      7  C   UNL     1      -8.881  -0.448 126.129  0.00  0.00    +0.000 C 
ATOM      8  C   UNL     1      -7.882   0.674 125.768  0.00  0.00    +0.000 C 
ATOM      9  N   UNL     1      -6.982   0.284 124.138  0.00  0.00    +0.000 NA
ATOM     10  C   UNL     1      -7.948   0.349 123.034  0.00  0.00    +0.000 C 
ATOM     11  C   UNL     1      -8.823  -0.836 123.376  0.00  0.00    +0.000 C 
ATOM     12  C   UNL     1      -7.074   0.489 127.041  0.00  0.00    +0.000 C 
ATOM     13  N   UNL     1      -7.818   0.520 128.274  0.00  0.00    +0.000 N 
ATOM     14  C   UNL     1      -8.638   1.651 128.578  0.00  0.00    +0.000 C 
ATOM     15  C   UNL     1      -7.479  -0.594 129.004  0.00  0.00    +0.000 A 
ATOM     16  C   UNL     1      -7.934  -0.960 130.234  0.00  0.00    +0.000 A 
ATOM     17  C   UNL     1      -7.516  -2.188 130.765  0.00  0.00    +0.000 A 
ATOM     18  C   UNL     1      -6.660  -3.060 130.068  0.00  0.00    +0.000 A 
ATOM     19  C   UNL     1      -6.201  -2.711 128.821  0.00  0.00    +0.000 A 
ATOM     20  C   UNL     1      -6.621  -1.486 128.340  0.00  0.00    +0.000 A 
ENDROOT
BRANCH   4  21
ATOM     21  O   UNL     1      -4.600   0.647 126.451  0.00  0.00    +0.000 OA
ATOM     22  H   UNL     1      -4.386   0.762 127.402  0.00  0.00    +0.000 HD
ENDBRANCH   4  21
BRANCH  10  23
ATOM     23  O   UNL     1      -8.625   1.607 123.108  0.00  0.00    +0.000 OA
ATOM     24  H   UNL     1      -7.988   2.331 123.215  0.00  0.00    +0.000 HD
ENDBRANCH  10  23
BRANCH  11  25
ATOM     25  C   UNL     1      -8.631  -2.263 122.912  0.00  0.00    +0.000 C 
ATOM     26  C   UNL     1      -9.590  -3.285 123.490  0.00  0.00    +0.000 C 
ENDBRANCH  11  25
TORSDOF 3
ENDMDL
MODEL 7
REMARK VINA RESULT:      -6.9      2.791      5.153
REMARK  Name = Ajmaline
REMARK  5 active torsions:
REMARK  status: ('A' for Active; 'I' for Inactive)
REMARK    1  A    between atoms: C_5  and  O_6
REMARK    2  A    between atoms: C_14  and  O_15
REMARK    3  A    between atoms: C_16  and  C_17
REMARK    4  A    between atoms: C_17  and  C_18
REMARK    5  A    between atoms: N_21  and  C_22
REMARK                            x       y       z     vdW  Elec       q    Type
REMARK                         _______ _______ _______ _____ _____    ______ ____
ROOT
ATOM      1  C   UNL     1      -7.121  -2.118 126.464  0.00  0.00    +0.000 C 
ATOM      2  C   UNL     1      -7.924  -1.711 127.883  0.00  0.00    +0.000 C 
ATOM      3  C   UNL     1      -7.185  -0.268 128.481  0.00  0.00    +0.000 C 
ATOM      4  C   UNL     1      -5.879  -0.792 128.257  0.00  0.00    +0.000 C 
ATOM      5  C   UNL     1      -6.435  -0.971 126.780  0.00  0.00    +0.000 C 
ATOM      6  C   UNL     1      -8.383  -0.620 125.945  0.00  0.00    +0.000 C 
ATOM      7  C   UNL     1      -8.765   0.611 126.567  0.00  0.00    +0.000 C 
ATOM      8  C   UNL     1      -7.279   0.879 126.239  0.00  0.00    +0.000 C 
ATOM      9  N   UNL     1      -6.482  -0.638 125.411  0.00  0.00    +0.000 NA
ATOM     10  C   UNL     1      -7.075  -0.820 124.080  0.00  0.00    +0.000 C 
ATOM     11  C   UNL     1      -8.489  -1.193 124.468  0.00  0.00    +0.000 C 
ATOM     12  C   UNL     1      -6.908   1.123 127.691  0.00  0.00    +0.000 C 
ATOM     13  N   UNL     1      -7.705   2.095 128.395  0.00  0.00    +0.000 N 
ATOM     14  C   UNL     1      -7.831   3.420 127.871  0.00  0.00    +0.000 C 
ATOM     15  C   UNL     1      -8.133   1.526 129.570  0.00  0.00    +0.000 A 
ATOM     16  C   UNL     1      -8.901   2.089 130.542  0.00  0.00    +0.000 A 
ATOM     17  C   UNL     1      -9.293   1.297 131.630  0.00  0.00    +0.000 A 
ATOM     18  C   UNL     1      -8.936  -0.060 131.743  0.00  0.00    +0.000 A 
ATOM     19  C   UNL     1      -8.171  -0.646 130.764  0.00  0.00    +0.000 A 
ATOM     20  C   UNL     1      -7.790   0.172 129.718  0.00  0.00    +0.000 A 
ENDROOT
BRANCH   4  21
ATOM     21  O   UNL     1      -4.675  -0.015 128.151  0.00  0.00    +0.000 OA
ATOM     22  H   UNL     1      -4.370   0.181 129.063  0.00  0.00    +0.000 HD
ENDBRANCH   4  21
BRANCH  10  23
ATOM     23  O   UNL     1      -6.978   0.421 123.376  0.00  0.00    +0.000 OA
ATOM     24  H   UNL     1      -6.082   0.546 123.027  0.00  0.00    +0.000 HD
ENDBRANCH  10  23
BRANCH  11  25
ATOM     25  C   UNL     1      -9.017  -2.588 124.720  0.00  0.00    +0.000 C 
ATOM     26  C   UNL     1      -9.526  -3.335 123.503  0.00  0.00    +0.000 C 
ENDBRANCH  11  25
TORSDOF 3
ENDMDL
MODEL 8
REMARK VINA RESULT:      -6.8      4.218      6.098
REMARK  Name = Ajmaline
REMARK  5 active torsions:
REMARK  status: ('A' for Active; 'I' for Inactive)
REMARK    1  A    between atoms: C_5  and  O_6
REMARK    2  A    between atoms: C_14  and  O_15
REMARK    3  A    between atoms: C_16  and  C_17
REMARK    4  A    between atoms: C_17  and  C_18
REMARK    5  A    between atoms: N_21  and  C_22
REMARK                            x       y       z     vdW  Elec       q    Type
REMARK                         _______ _______ _______ _____ _____    ______ ____
ROOT
ATOM      1  C   UNL     1      -7.143  -2.957 130.405  0.00  0.00    +0.000 C 
ATOM      2  C   UNL     1      -7.712  -3.351 128.874  0.00  0.00    +0.000 C 
ATOM      3  C   UNL     1      -7.675  -1.900 127.935  0.00  0.00    +0.000 C 
ATOM      4  C   UNL     1      -8.266  -1.150 128.994  0.00  0.00    +0.000 C 
ATOM      5  C   UNL     1      -7.029  -1.726 129.807  0.00  0.00    +0.000 C 
ATOM      6  C   UNL     1      -5.485  -3.111 129.249  0.00  0.00    +0.000 C 
ATOM      7  C   UNL     1      -5.165  -2.694 127.918  0.00  0.00    +0.000 C 
ATOM      8  C   UNL     1      -5.322  -1.336 128.639  0.00  0.00    +0.000 C 
ATOM      9  N   UNL     1      -5.791  -1.587 130.466  0.00  0.00    +0.000 NA
ATOM     10  C   UNL     1      -4.653  -2.192 131.170  0.00  0.00    +0.000 C 
ATOM     11  C   UNL     1      -4.624  -3.552 130.508  0.00  0.00    +0.000 C 
ATOM     12  C   UNL     1      -6.438  -0.873 127.718  0.00  0.00    +0.000 C 
ATOM     13  N   UNL     1      -6.163  -0.941 126.306  0.00  0.00    +0.000 N 
ATOM     14  C   UNL     1      -5.014  -0.276 125.775  0.00  0.00    +0.000 C 
ATOM     15  C   UNL     1      -7.203  -1.606 125.701  0.00  0.00    +0.000 A 
ATOM     16  C   UNL     1      -7.361  -1.886 124.379  0.00  0.00    +0.000 A 
ATOM     17  C   UNL     1      -8.467  -2.653 123.984  0.00  0.00    +0.000 A 
ATOM     18  C   UNL     1      -9.405  -3.155 124.905  0.00  0.00    +0.000 A 
ATOM     19  C   UNL     1      -9.252  -2.891 126.244  0.00  0.00    +0.000 A 
ATOM     20  C   UNL     1      -8.162  -2.117 126.591  0.00  0.00    +0.000 A 
ENDROOT
BRANCH   4  21
ATOM     21  O   UNL     1      -8.218   0.280 129.131  0.00  0.00    +0.000 OA
ATOM     22  H   UNL     1      -9.013   0.644 128.686  0.00  0.00    +0.000 HD
ENDBRANCH   4  21
BRANCH  10  23
ATOM     23  O   UNL     1      -3.492  -1.398 130.908  0.00  0.00    +0.000 OA
ATOM     24  H   UNL     1      -2.873  -1.878 130.336  0.00  0.00    +0.000 HD
ENDBRANCH  10  23
BRANCH  11  25
ATOM     25  C   UNL     1      -5.361  -4.793 130.962  0.00  0.00    +0.000 C 
ATOM     26  C   UNL     1      -5.141  -5.206 132.404  0.00  0.00    +0.000 C 
ENDBRANCH  11  25
TORSDOF 3
ENDMDL
MODEL 9
REMARK VINA RESULT:      -6.8      2.453      4.069
REMARK  Name = Ajmaline
REMARK  5 active torsions:
REMARK  status: ('A' for Active; 'I' for Inactive)
REMARK    1  A    between atoms: C_5  and  O_6
REMARK    2  A    between atoms: C_14  and  O_15
REMARK    3  A    between atoms: C_16  and  C_17
REMARK    4  A    between atoms: C_17  and  C_18
REMARK    5  A    between atoms: N_21  and  C_22
REMARK                            x       y       z     vdW  Elec       q    Type
REMARK                         _______ _______ _______ _____ _____    ______ ____
ROOT
ATOM      1  C   UNL     1      -7.465   2.677 124.010  0.00  0.00    +0.000 C 
ATOM      2  C   UNL     1      -6.097   3.080 124.897  0.00  0.00    +0.000 C 
ATOM      3  C   UNL     1      -6.644   3.877 126.330  0.00  0.00    +0.000 C 
ATOM      4  C   UNL     1      -7.553   4.684 125.586  0.00  0.00    +0.000 C 
ATOM      5  C   UNL     1      -8.073   3.267 125.091  0.00  0.00    +0.000 C 
ATOM      6  C   UNL     1      -7.354   1.279 125.472  0.00  0.00    +0.000 C 
ATOM      7  C   UNL     1      -7.038   1.330 126.867  0.00  0.00    +0.000 C 
ATOM      8  C   UNL     1      -8.371   2.110 126.823  0.00  0.00    +0.000 C 
ATOM      9  N   UNL     1      -9.029   2.232 125.042  0.00  0.00    +0.000 NA
ATOM     10  C   UNL     1      -9.427   0.892 124.590  0.00  0.00    +0.000 C 
ATOM     11  C   UNL     1      -8.075   0.216 124.540  0.00  0.00    +0.000 C 
ATOM     12  C   UNL     1      -7.756   3.374 127.399  0.00  0.00    +0.000 C 
ATOM     13  N   UNL     1      -7.022   3.218 128.629  0.00  0.00    +0.000 N 
ATOM     14  C   UNL     1      -7.660   2.628 129.764  0.00  0.00    +0.000 C 
ATOM     15  C   UNL     1      -5.791   3.807 128.468  0.00  0.00    +0.000 A 
ATOM     16  C   UNL     1      -4.783   3.903 129.377  0.00  0.00    +0.000 A 
ATOM     17  C   UNL     1      -3.569   4.478 128.975  0.00  0.00    +0.000 A 
ATOM     18  C   UNL     1      -3.352   4.942 127.664  0.00  0.00    +0.000 A 
ATOM     19  C   UNL     1      -4.355   4.842 126.731  0.00  0.00    +0.000 A 
ATOM     20  C   UNL     1      -5.541   4.286 127.171  0.00  0.00    +0.000 A 
ENDROOT
BRANCH   4  21
ATOM     21  O   UNL     1      -8.692   5.373 126.126  0.00  0.00    +0.000 OA
ATOM     22  H   UNL     1      -9.433   4.731 126.165  0.00  0.00    +0.000 HD
ENDBRANCH   4  21
BRANCH  10  23
ATOM     23  O   UNL     1     -10.314   0.338 125.565  0.00  0.00    +0.000 OA
ATOM     24  H   UNL     1     -10.796  -0.419 125.196  0.00  0.00    +0.000 HD
ENDBRANCH  10  23
BRANCH  11  25
ATOM     25  C   UNL     1      -7.136   0.163 123.355  0.00  0.00    +0.000 C 
ATOM     26  C   UNL     1      -6.618  -1.211 122.977  0.00  0.00    +0.000 C 
ENDBRANCH  11  25
TORSDOF 3
ENDMDL
