MODEL 1
REMARK VINA RESULT:      -9.0      0.000      0.000
REMARK  Name = Alatrofloxacin
REMARK  10 active torsions:
REMARK  status: ('A' for Active; 'I' for Inactive)
REMARK    1  A    between atoms: C_8  and  N_9
REMARK    2  A    between atoms: C_10  and  C_12
REMARK    3  A    between atoms: C_12  and  C_13
REMARK    4  A    between atoms: C_12  and  N_14
REMARK    5  A    between atoms: C_15  and  C_17
REMARK    6  A    between atoms: C_17  and  C_18
REMARK    7  A    between atoms: C_17  and  N_19
REMARK    8  A    between atoms: C_29  and  C_40
REMARK    9  A    between atoms: N_31  and  C_32
REMARK   10  A    between atoms: C_40  and  O_41
REMARK                            x       y       z     vdW  Elec       q    Type
REMARK                         _______ _______ _______ _____ _____    ______ ____
ROOT
ATOM      1  C   UNL     1      -9.105   4.269 133.505  0.00  0.00    +0.000 C 
ATOM      2  C   UNL     1      -8.690   3.300 132.426  0.00  0.00    +0.000 C 
ATOM      3  N   UNL     1      -8.193   4.182 131.370  0.00  0.00    +0.000 N 
ATOM      4  C   UNL     1      -8.672   5.553 131.493  0.00  0.00    +0.000 C 
ATOM      5  C   UNL     1      -9.136   5.644 132.926  0.00  0.00    +0.000 C 
ATOM      6  C   UNL     1      -8.130   5.327 133.982  0.00  0.00    +0.000 C 
ATOM      7  C   UNL     1      -7.208   3.804 130.492  0.00  0.00    +0.000 A 
ATOM      8  N   UNL     1      -6.035   4.496 130.465  0.00  0.00    +0.000 NA
ATOM      9  C   UNL     1      -5.048   4.131 129.587  0.00  0.00    +0.000 A 
ATOM     10  C   UNL     1      -5.248   3.100 128.671  0.00  0.00    +0.000 A 
ATOM     11  C   UNL     1      -6.448   2.397 128.682  0.00  0.00    +0.000 A 
ATOM     12  C   UNL     1      -7.414   2.737 129.613  0.00  0.00    +0.000 A 
ATOM     13  F   UNL     1      -8.577   2.067 129.603  0.00  0.00    +0.000 F 
ATOM     14  C   UNL     1      -4.217   2.752 127.675  0.00  0.00    +0.000 A 
ATOM     15  O   UNL     1      -4.467   1.850 126.882  0.00  0.00    +0.000 OA
ATOM     16  C   UNL     1      -2.928   3.505 127.667  0.00  0.00    +0.000 A 
ATOM     17  C   UNL     1      -2.833   4.468 128.605  0.00  0.00    +0.000 A 
ATOM     18  N   UNL     1      -3.790   4.824 129.565  0.00  0.00    +0.000 N 
ENDROOT
BRANCH  18  19
ATOM     19  C   UNL     1      -3.512   5.881 130.486  0.00  0.00    +0.000 A 
ATOM     20  C   UNL     1      -2.992   5.608 131.762  0.00  0.00    +0.000 A 
ATOM     21  C   UNL     1      -2.530   6.651 132.569  0.00  0.00    +0.000 A 
ATOM     22  C   UNL     1      -2.830   7.962 132.225  0.00  0.00    +0.000 A 
ATOM     23  F   UNL     1      -2.520   8.953 133.072  0.00  0.00    +0.000 F 
ATOM     24  C   UNL     1      -3.461   8.259 131.027  0.00  0.00    +0.000 A 
ATOM     25  C   UNL     1      -3.714   7.225 130.133  0.00  0.00    +0.000 A 
ATOM     26  F   UNL     1      -4.173   7.532 128.909  0.00  0.00    +0.000 F 
ENDBRANCH  18  19
BRANCH   6  27
ATOM     27  N   UNL     1      -8.119   5.768 135.353  0.00  0.00    +0.000 N 
ATOM     28  C   UNL     1      -6.846   5.900 135.901  0.00  0.00    +0.000 C 
ATOM     29  O   UNL     1      -5.886   5.383 135.319  0.00  0.00    +0.000 OA
ATOM     30  H   UNL     1      -8.836   6.426 135.633  0.00  0.00    +0.000 HD
BRANCH  28  31
ATOM     31  C   UNL     1      -6.672   6.699 137.220  0.00  0.00    +0.000 C 
ATOM     32  C   UNL     1      -6.552   5.794 138.450  0.00  0.00    +0.000 C 
BRANCH  31  33
ATOM     33  N   UNL     1      -7.872   7.522 137.407  0.00  0.00    +0.000 N 
ATOM     34  C   UNL     1      -7.880   8.901 137.526  0.00  0.00    +0.000 C 
ATOM     35  O   UNL     1      -6.862   9.588 137.533  0.00  0.00    +0.000 OA
ATOM     36  H   UNL     1      -8.722   7.020 137.600  0.00  0.00    +0.000 HD
BRANCH  34  37
ATOM     37  C   UNL     1      -9.295   9.547 137.550  0.00  0.00    +0.000 C 
ATOM     38  C   UNL     1      -9.904   9.576 138.947  0.00  0.00    +0.000 C 
BRANCH  37  39
ATOM     39  N   UNL     1     -10.214   8.827 136.647  0.00  0.00    +0.000 NA
ATOM     40  H   UNL     1     -11.112   9.307 136.631  0.00  0.00    +0.000 HD
ATOM     41  H   UNL     1     -10.417   7.915 137.066  0.00  0.00    +0.000 HD
ENDBRANCH  37  39
ENDBRANCH  34  37
ENDBRANCH  31  33
ENDBRANCH  28  31
ENDBRANCH   6  27
BRANCH  16  42
ATOM     42  C   UNL     1      -1.877   3.151 126.670  0.00  0.00    +0.000 C 
ATOM     43  O   UNL     1      -1.808   3.654 125.551  0.00  0.00    +0.000 OA
BRANCH  42  44
ATOM     44  O   UNL     1      -0.965   2.225 127.028  0.00  0.00    +0.000 OA
ATOM     45  H   UNL     1      -0.683   2.157 127.952  0.00  0.00    +0.000 HD
ENDBRANCH  42  44
ENDBRANCH  16  42
TORSDOF 8
ENDMDL
MODEL 2
REMARK VINA RESULT:      -8.7      4.963      7.342
REMARK  Name = Alatrofloxacin
REMARK  10 active torsions:
REMARK  status: ('A' for Active; 'I' for Inactive)
REMARK    1  A    between atoms: C_8  and  N_9
REMARK    2  A    between atoms: C_10  and  C_12
REMARK    3  A    between atoms: C_12  and  C_13
REMARK    4  A    between atoms: C_12  and  N_14
REMARK    5  A    between atoms: C_15  and  C_17
REMARK    6  A    between atoms: C_17  and  C_18
REMARK    7  A    between atoms: C_17  and  N_19
REMARK    8  A    between atoms: C_29  and  C_40
REMARK    9  A    between atoms: N_31  and  C_32
REMARK   10  A    between atoms: C_40  and  O_41
REMARK                            x       y       z     vdW  Elec       q    Type
REMARK                         _______ _______ _______ _____ _____    ______ ____
ROOT
ATOM      1  C   UNL     1      -5.342  -0.013 132.467  0.00  0.00    +0.000 C 
ATOM      2  C   UNL     1      -5.846  -1.217 131.711  0.00  0.00    +0.000 C 
ATOM      3  N   UNL     1      -6.944  -0.667 130.918  0.00  0.00    +0.000 N 
ATOM      4  C   UNL     1      -7.451   0.598 131.436  0.00  0.00    +0.000 C 
ATOM      5  C   UNL     1      -6.341   1.086 132.336  0.00  0.00    +0.000 C 
ATOM      6  C   UNL     1      -4.995   1.256 131.715  0.00  0.00    +0.000 C 
ATOM      7  C   UNL     1      -7.305  -1.181 129.697  0.00  0.00    +0.000 A 
ATOM      8  N   UNL     1      -7.223  -0.391 128.590  0.00  0.00    +0.000 NA
ATOM      9  C   UNL     1      -7.588  -0.892 127.367  0.00  0.00    +0.000 A 
ATOM     10  C   UNL     1      -8.106  -2.180 127.246  0.00  0.00    +0.000 A 
ATOM     11  C   UNL     1      -8.207  -2.988 128.374  0.00  0.00    +0.000 A 
ATOM     12  C   UNL     1      -7.781  -2.491 129.593  0.00  0.00    +0.000 A 
ATOM     13  F   UNL     1      -7.900  -3.270 130.680  0.00  0.00    +0.000 F 
ATOM     14  C   UNL     1      -8.570  -2.697 125.944  0.00  0.00    +0.000 A 
ATOM     15  O   UNL     1      -9.038  -3.831 125.912  0.00  0.00    +0.000 OA
ATOM     16  C   UNL     1      -8.457  -1.831 124.734  0.00  0.00    +0.000 A 
ATOM     17  C   UNL     1      -7.927  -0.613 124.961  0.00  0.00    +0.000 A 
ATOM     18  N   UNL     1      -7.477  -0.091 126.182  0.00  0.00    +0.000 N 
ENDROOT
BRANCH  18  19
ATOM     19  C   UNL     1      -6.939   1.233 126.231  0.00  0.00    +0.000 A 
ATOM     20  C   UNL     1      -7.774   2.343 126.440  0.00  0.00    +0.000 A 
ATOM     21  C   UNL     1      -7.219   3.600 126.694  0.00  0.00    +0.000 A 
ATOM     22  C   UNL     1      -5.862   3.802 126.476  0.00  0.00    +0.000 A 
ATOM     23  F   UNL     1      -5.356   5.039 126.574  0.00  0.00    +0.000 F 
ATOM     24  C   UNL     1      -5.028   2.746 126.141  0.00  0.00    +0.000 A 
ATOM     25  C   UNL     1      -5.558   1.462 126.110  0.00  0.00    +0.000 A 
ATOM     26  F   UNL     1      -4.722   0.425 125.949  0.00  0.00    +0.000 F 
ENDBRANCH  18  19
BRANCH   6  27
ATOM     27  N   UNL     1      -3.923   2.114 132.152  0.00  0.00    +0.000 N 
ATOM     28  C   UNL     1      -3.637   3.161 131.279  0.00  0.00    +0.000 C 
ATOM     29  O   UNL     1      -4.084   3.121 130.128  0.00  0.00    +0.000 OA
ATOM     30  H   UNL     1      -3.837   2.277 133.147  0.00  0.00    +0.000 HD
BRANCH  28  31
ATOM     31  C   UNL     1      -2.774   4.348 131.784  0.00  0.00    +0.000 C 
ATOM     32  C   UNL     1      -2.529   4.304 133.294  0.00  0.00    +0.000 C 
BRANCH  31  33
ATOM     33  N   UNL     1      -3.509   5.587 131.503  0.00  0.00    +0.000 N 
ATOM     34  C   UNL     1      -3.082   6.590 130.651  0.00  0.00    +0.000 C 
ATOM     35  O   UNL     1      -2.002   6.570 130.066  0.00  0.00    +0.000 OA
ATOM     36  H   UNL     1      -4.310   5.763 132.087  0.00  0.00    +0.000 HD
BRANCH  34  37
ATOM     37  C   UNL     1      -4.119   7.722 130.400  0.00  0.00    +0.000 C 
ATOM     38  C   UNL     1      -5.541   7.305 130.756  0.00  0.00    +0.000 C 
BRANCH  37  39
ATOM     39  N   UNL     1      -4.090   8.154 128.989  0.00  0.00    +0.000 NA
ATOM     40  H   UNL     1      -3.744   7.389 128.412  0.00  0.00    +0.000 HD
ATOM     41  H   UNL     1      -3.378   8.885 128.900  0.00  0.00    +0.000 HD
ENDBRANCH  37  39
ENDBRANCH  34  37
ENDBRANCH  31  33
ENDBRANCH  28  31
ENDBRANCH   6  27
BRANCH  16  42
ATOM     42  C   UNL     1      -8.913  -2.351 123.413  0.00  0.00    +0.000 C 
ATOM     43  O   UNL     1      -8.314  -2.147 122.360  0.00  0.00    +0.000 OA
BRANCH  42  44
ATOM     44  O   UNL     1     -10.049  -3.077 123.388  0.00  0.00    +0.000 OA
ATOM     45  H   UNL     1     -10.784  -2.845 123.975  0.00  0.00    +0.000 HD
ENDBRANCH  42  44
ENDBRANCH  16  42
TORSDOF 8
ENDMDL
MODEL 3
REMARK VINA RESULT:      -8.6      4.943      7.529
REMARK  Name = Alatrofloxacin
REMARK  10 active torsions:
REMARK  status: ('A' for Active; 'I' for Inactive)
REMARK    1  A    between atoms: C_8  and  N_9
REMARK    2  A    between atoms: C_10  and  C_12
REMARK    3  A    between atoms: C_12  and  C_13
REMARK    4  A    between atoms: C_12  and  N_14
REMARK    5  A    between atoms: C_15  and  C_17
REMARK    6  A    between atoms: C_17  and  C_18
REMARK    7  A    between atoms: C_17  and  N_19
REMARK    8  A    between atoms: C_29  and  C_40
REMARK    9  A    between atoms: N_31  and  C_32
REMARK   10  A    between atoms: C_40  and  O_41
REMARK                            x       y       z     vdW  Elec       q    Type
REMARK                         _______ _______ _______ _____ _____    ______ ____
ROOT
ATOM      1  C   UNL     1      -5.255   1.864 131.602  0.00  0.00    +0.000 C 
ATOM      2  C   UNL     1      -5.628   0.486 131.117  0.00  0.00    +0.000 C 
ATOM      3  N   UNL     1      -6.841   0.732 130.338  0.00  0.00    +0.000 N 
ATOM      4  C   UNL     1      -7.490   1.996 130.667  0.00  0.00    +0.000 C 
ATOM      5  C   UNL     1      -6.408   2.782 131.366  0.00  0.00    +0.000 C 
ATOM      6  C   UNL     1      -5.141   3.005 130.611  0.00  0.00    +0.000 C 
ATOM      7  C   UNL     1      -7.200  -0.043 129.263  0.00  0.00    +0.000 A 
ATOM      8  N   UNL     1      -7.301   0.530 128.031  0.00  0.00    +0.000 NA
ATOM      9  C   UNL     1      -7.665  -0.233 126.952  0.00  0.00    +0.000 A 
ATOM     10  C   UNL     1      -8.001  -1.577 127.105  0.00  0.00    +0.000 A 
ATOM     11  C   UNL     1      -7.916  -2.166 128.362  0.00  0.00    +0.000 A 
ATOM     12  C   UNL     1      -7.489  -1.400 129.433  0.00  0.00    +0.000 A 
ATOM     13  F   UNL     1      -7.429  -1.970 130.646  0.00  0.00    +0.000 F 
ATOM     14  C   UNL     1      -8.466  -2.383 125.960  0.00  0.00    +0.000 A 
ATOM     15  O   UNL     1      -8.768  -3.553 126.169  0.00  0.00    +0.000 OA
ATOM     16  C   UNL     1      -8.553  -1.750 124.612  0.00  0.00    +0.000 A 
ATOM     17  C   UNL     1      -8.188  -0.453 124.573  0.00  0.00    +0.000 A 
ATOM     18  N   UNL     1      -7.743   0.341 125.639  0.00  0.00    +0.000 N 
ENDROOT
BRANCH  18  19
ATOM     19  C   UNL     1      -7.398   1.709 125.407  0.00  0.00    +0.000 A 
ATOM     20  C   UNL     1      -8.392   2.678 125.197  0.00  0.00    +0.000 A 
ATOM     21  C   UNL     1      -8.057   4.035 125.181  0.00  0.00    +0.000 A 
ATOM     22  C   UNL     1      -6.720   4.405 125.105  0.00  0.00    +0.000 A 
ATOM     23  F   UNL     1      -6.403   5.696 124.938  0.00  0.00    +0.000 F 
ATOM     24  C   UNL     1      -5.711   3.457 125.180  0.00  0.00    +0.000 A 
ATOM     25  C   UNL     1      -6.058   2.132 125.419  0.00  0.00    +0.000 A 
ATOM     26  F   UNL     1      -5.080   1.245 125.655  0.00  0.00    +0.000 F 
ENDBRANCH  18  19
BRANCH   6  27
ATOM     27  N   UNL     1      -4.177   4.060 130.795  0.00  0.00    +0.000 N 
ATOM     28  C   UNL     1      -3.942   4.825 129.655  0.00  0.00    +0.000 C 
ATOM     29  O   UNL     1      -4.321   4.399 128.559  0.00  0.00    +0.000 OA
ATOM     30  H   UNL     1      -4.160   4.519 131.697  0.00  0.00    +0.000 HD
BRANCH  28  31
ATOM     31  C   UNL     1      -3.220   6.191 129.799  0.00  0.00    +0.000 C 
ATOM     32  C   UNL     1      -2.257   6.477 128.644  0.00  0.00    +0.000 C 
BRANCH  31  33
ATOM     33  N   UNL     1      -2.418   6.147 131.027  0.00  0.00    +0.000 N 
ATOM     34  C   UNL     1      -2.359   7.153 131.975  0.00  0.00    +0.000 C 
ATOM     35  O   UNL     1      -2.945   8.226 131.864  0.00  0.00    +0.000 OA
ATOM     36  H   UNL     1      -1.766   5.383 131.097  0.00  0.00    +0.000 HD
BRANCH  34  37
ATOM     37  C   UNL     1      -1.565   6.792 133.263  0.00  0.00    +0.000 C 
ATOM     38  C   UNL     1      -0.142   7.335 133.249  0.00  0.00    +0.000 C 
BRANCH  37  39
ATOM     39  N   UNL     1      -1.513   5.329 133.452  0.00  0.00    +0.000 NA
ATOM     40  H   UNL     1      -0.880   4.925 132.762  0.00  0.00    +0.000 HD
ATOM     41  H   UNL     1      -2.432   4.948 133.212  0.00  0.00    +0.000 HD
ENDBRANCH  37  39
ENDBRANCH  34  37
ENDBRANCH  31  33
ENDBRANCH  28  31
ENDBRANCH   6  27
BRANCH  16  42
ATOM     42  C   UNL     1      -9.011  -2.562 123.448  0.00  0.00    +0.000 C 
ATOM     43  O   UNL     1      -8.421  -2.596 122.370  0.00  0.00    +0.000 OA
BRANCH  42  44
ATOM     44  O   UNL     1     -10.137  -3.288 123.599  0.00  0.00    +0.000 OA
ATOM     45  H   UNL     1     -10.729  -3.425 122.845  0.00  0.00    +0.000 HD
ENDBRANCH  42  44
ENDBRANCH  16  42
TORSDOF 8
ENDMDL
MODEL 4
REMARK VINA RESULT:      -8.4      4.232      7.619
REMARK  Name = Alatrofloxacin
REMARK  10 active torsions:
REMARK  status: ('A' for Active; 'I' for Inactive)
REMARK    1  A    between atoms: C_8  and  N_9
REMARK    2  A    between atoms: C_10  and  C_12
REMARK    3  A    between atoms: C_12  and  C_13
REMARK    4  A    between atoms: C_12  and  N_14
REMARK    5  A    between atoms: C_15  and  C_17
REMARK    6  A    between atoms: C_17  and  C_18
REMARK    7  A    between atoms: C_17  and  N_19
REMARK    8  A    between atoms: C_29  and  C_40
REMARK    9  A    between atoms: N_31  and  C_32
REMARK   10  A    between atoms: C_40  and  O_41
REMARK                            x       y       z     vdW  Elec       q    Type
REMARK                         _______ _______ _______ _____ _____    ______ ____
ROOT
ATOM      1  C   UNL     1      -3.439   5.201 128.150  0.00  0.00    +0.000 C 
ATOM      2  C   UNL     1      -4.401   5.342 126.997  0.00  0.00    +0.000 C 
ATOM      3  N   UNL     1      -4.259   4.067 126.296  0.00  0.00    +0.000 N 
ATOM      4  C   UNL     1      -3.018   3.370 126.614  0.00  0.00    +0.000 C 
ATOM      5  C   UNL     1      -2.563   4.019 127.899  0.00  0.00    +0.000 C 
ATOM      6  C   UNL     1      -3.513   3.982 129.048  0.00  0.00    +0.000 C 
ATOM      7  C   UNL     1      -5.285   3.492 125.588  0.00  0.00    +0.000 A 
ATOM      8  N   UNL     1      -5.758   2.272 125.967  0.00  0.00    +0.000 NA
ATOM      9  C   UNL     1      -6.777   1.687 125.263  0.00  0.00    +0.000 A 
ATOM     10  C   UNL     1      -7.298   2.291 124.120  0.00  0.00    +0.000 A 
ATOM     11  C   UNL     1      -6.812   3.530 123.717  0.00  0.00    +0.000 A 
ATOM     12  C   UNL     1      -5.822   4.138 124.470  0.00  0.00    +0.000 A 
ATOM     13  F   UNL     1      -5.344   5.324 124.063  0.00  0.00    +0.000 F 
ATOM     14  C   UNL     1      -8.344   1.630 123.316  0.00  0.00    +0.000 A 
ATOM     15  O   UNL     1      -8.741   2.206 122.308  0.00  0.00    +0.000 OA
ATOM     16  C   UNL     1      -8.868   0.303 123.752  0.00  0.00    +0.000 A 
ATOM     17  C   UNL     1      -8.309  -0.181 124.879  0.00  0.00    +0.000 A 
ATOM     18  N   UNL     1      -7.316   0.419 125.666  0.00  0.00    +0.000 N 
ENDROOT
BRANCH  18  19
ATOM     19  C   UNL     1      -6.840  -0.249 126.836  0.00  0.00    +0.000 A 
ATOM     20  C   UNL     1      -7.488  -0.089 128.072  0.00  0.00    +0.000 A 
ATOM     21  C   UNL     1      -7.144  -0.904 129.154  0.00  0.00    +0.000 A 
ATOM     22  C   UNL     1      -5.991  -1.676 129.087  0.00  0.00    +0.000 A 
ATOM     23  F   UNL     1      -5.579  -2.339 130.175  0.00  0.00    +0.000 F 
ATOM     24  C   UNL     1      -5.253  -1.755 127.916  0.00  0.00    +0.000 A 
ATOM     25  C   UNL     1      -5.733  -1.113 126.781  0.00  0.00    +0.000 A 
ATOM     26  F   UNL     1      -5.109  -1.323 125.612  0.00  0.00    +0.000 F 
ENDBRANCH  18  19
BRANCH   6  27
ATOM     27  N   UNL     1      -3.206   4.069 130.452  0.00  0.00    +0.000 N 
ATOM     28  C   UNL     1      -4.306   3.902 131.290  0.00  0.00    +0.000 C 
ATOM     29  O   UNL     1      -5.442   3.983 130.811  0.00  0.00    +0.000 OA
ATOM     30  H   UNL     1      -2.310   3.706 130.753  0.00  0.00    +0.000 HD
BRANCH  28  31
ATOM     31  C   UNL     1      -4.070   3.613 132.796  0.00  0.00    +0.000 C 
ATOM     32  C   UNL     1      -3.194   2.379 133.033  0.00  0.00    +0.000 C 
BRANCH  31  33
ATOM     33  N   UNL     1      -5.374   3.340 133.409  0.00  0.00    +0.000 N 
ATOM     34  C   UNL     1      -6.137   4.263 134.103  0.00  0.00    +0.000 C 
ATOM     35  O   UNL     1      -5.775   5.416 134.321  0.00  0.00    +0.000 OA
ATOM     36  H   UNL     1      -5.651   2.372 133.437  0.00  0.00    +0.000 HD
BRANCH  34  37
ATOM     37  C   UNL     1      -7.554   3.767 134.511  0.00  0.00    +0.000 C 
ATOM     38  C   UNL     1      -8.245   2.984 133.402  0.00  0.00    +0.000 C 
BRANCH  37  39
ATOM     39  N   UNL     1      -8.413   4.903 134.898  0.00  0.00    +0.000 NA
ATOM     40  H   UNL     1      -7.831   5.652 135.269  0.00  0.00    +0.000 HD
ATOM     41  H   UNL     1      -8.986   4.606 135.694  0.00  0.00    +0.000 HD
ENDBRANCH  37  39
ENDBRANCH  34  37
ENDBRANCH  31  33
ENDBRANCH  28  31
ENDBRANCH   6  27
BRANCH  16  42
ATOM     42  C   UNL     1      -9.934  -0.366 122.951  0.00  0.00    +0.000 C 
ATOM     43  O   UNL     1      -9.925  -1.564 122.676  0.00  0.00    +0.000 OA
BRANCH  42  44
ATOM     44  O   UNL     1     -10.950   0.399 122.505  0.00  0.00    +0.000 OA
ATOM     45  H   UNL     1     -10.764   1.240 122.062  0.00  0.00    +0.000 HD
ENDBRANCH  42  44
ENDBRANCH  16  42
TORSDOF 8
ENDMDL
MODEL 5
REMARK VINA RESULT:      -8.4      4.303      7.375
REMARK  Name = Alatrofloxacin
REMARK  10 active torsions:
REMARK  status: ('A' for Active; 'I' for Inactive)
REMARK    1  A    between atoms: C_8  and  N_9
REMARK    2  A    between atoms: C_10  and  C_12
REMARK    3  A    between atoms: C_12  and  C_13
REMARK    4  A    between atoms: C_12  and  N_14
REMARK    5  A    between atoms: C_15  and  C_17
REMARK    6  A    between atoms: C_17  and  C_18
REMARK    7  A    between atoms: C_17  and  N_19
REMARK    8  A    between atoms: C_29  and  C_40
REMARK    9  A    between atoms: N_31  and  C_32
REMARK   10  A    between atoms: C_40  and  O_41
REMARK                            x       y       z     vdW  Elec       q    Type
REMARK                         _______ _______ _______ _____ _____    ______ ____
ROOT
ATOM      1  C   UNL     1      -4.860   5.574 127.094  0.00  0.00    +0.000 C 
ATOM      2  C   UNL     1      -5.575   4.921 125.938  0.00  0.00    +0.000 C 
ATOM      3  N   UNL     1      -5.026   3.566 125.939  0.00  0.00    +0.000 N 
ATOM      4  C   UNL     1      -3.758   3.459 126.651  0.00  0.00    +0.000 C 
ATOM      5  C   UNL     1      -3.722   4.702 127.506  0.00  0.00    +0.000 C 
ATOM      6  C   UNL     1      -4.857   4.902 128.453  0.00  0.00    +0.000 C 
ATOM      7  C   UNL     1      -5.741   2.476 125.506  0.00  0.00    +0.000 A 
ATOM      8  N   UNL     1      -6.012   1.466 126.379  0.00  0.00    +0.000 NA
ATOM      9  C   UNL     1      -6.719   0.371 125.955  0.00  0.00    +0.000 A 
ATOM     10  C   UNL     1      -7.111   0.242 124.624  0.00  0.00    +0.000 A 
ATOM     11  C   UNL     1      -6.826   1.262 123.722  0.00  0.00    +0.000 A 
ATOM     12  C   UNL     1      -6.162   2.390 124.176  0.00  0.00    +0.000 A 
ATOM     13  F   UNL     1      -5.873   3.361 123.297  0.00  0.00    +0.000 F 
ATOM     14  C   UNL     1      -7.807  -0.968 124.146  0.00  0.00    +0.000 A 
ATOM     15  O   UNL     1      -8.102  -1.028 122.957  0.00  0.00    +0.000 OA
ATOM     16  C   UNL     1      -8.116  -2.061 125.115  0.00  0.00    +0.000 A 
ATOM     17  C   UNL     1      -7.709  -1.826 126.378  0.00  0.00    +0.000 A 
ATOM     18  N   UNL     1      -7.047  -0.690 126.865  0.00  0.00    +0.000 N 
ENDROOT
BRANCH  18  19
ATOM     19  C   UNL     1      -6.690  -0.616 128.247  0.00  0.00    +0.000 A 
ATOM     20  C   UNL     1      -7.518   0.041 129.172  0.00  0.00    +0.000 A 
ATOM     21  C   UNL     1      -7.267  -0.073 130.542  0.00  0.00    +0.000 A 
ATOM     22  C   UNL     1      -6.058  -0.606 130.971  0.00  0.00    +0.000 A 
ATOM     23  F   UNL     1      -5.752  -0.578 132.275  0.00  0.00    +0.000 F 
ATOM     24  C   UNL     1      -5.156  -1.148 130.068  0.00  0.00    +0.000 A 
ATOM     25  C   UNL     1      -5.520  -1.227 128.729  0.00  0.00    +0.000 A 
ATOM     26  F   UNL     1      -4.722  -1.898 127.885  0.00  0.00    +0.000 F 
ENDBRANCH  18  19
BRANCH   6  27
ATOM     27  N   UNL     1      -4.868   5.676 129.668  0.00  0.00    +0.000 N 
ATOM     28  C   UNL     1      -6.079   5.645 130.354  0.00  0.00    +0.000 C 
ATOM     29  O   UNL     1      -7.088   5.232 129.772  0.00  0.00    +0.000 OA
ATOM     30  H   UNL     1      -4.010   5.708 130.204  0.00  0.00    +0.000 HD
BRANCH  28  31
ATOM     31  C   UNL     1      -6.122   6.121 131.831  0.00  0.00    +0.000 C 
ATOM     32  C   UNL     1      -4.728   6.350 132.421  0.00  0.00    +0.000 C 
BRANCH  31  33
ATOM     33  N   UNL     1      -6.757   5.064 132.625  0.00  0.00    +0.000 N 
ATOM     34  C   UNL     1      -7.981   5.173 133.263  0.00  0.00    +0.000 C 
ATOM     35  O   UNL     1      -8.653   6.201 133.269  0.00  0.00    +0.000 OA
ATOM     36  H   UNL     1      -6.184   4.260 132.823  0.00  0.00    +0.000 HD
BRANCH  34  37
ATOM     37  C   UNL     1      -8.507   3.856 133.900  0.00  0.00    +0.000 C 
ATOM     38  C   UNL     1      -8.044   2.613 133.149  0.00  0.00    +0.000 C 
BRANCH  37  39
ATOM     39  N   UNL     1      -9.982   3.855 133.956  0.00  0.00    +0.000 NA
ATOM     40  H   UNL     1     -10.347   3.387 133.128  0.00  0.00    +0.000 HD
ATOM     41  H   UNL     1     -10.300   4.824 133.866  0.00  0.00    +0.000 HD
ENDBRANCH  37  39
ENDBRANCH  34  37
ENDBRANCH  31  33
ENDBRANCH  28  31
ENDBRANCH   6  27
BRANCH  16  42
ATOM     42  C   UNL     1      -8.829  -3.282 124.641  0.00  0.00    +0.000 C 
ATOM     43  O   UNL     1      -8.421  -4.425 124.838  0.00  0.00    +0.000 OA
BRANCH  42  44
ATOM     44  O   UNL     1      -9.978  -3.107 123.958  0.00  0.00    +0.000 OA
ATOM     45  H   UNL     1     -10.239  -2.220 123.671  0.00  0.00    +0.000 HD
ENDBRANCH  42  44
ENDBRANCH  16  42
TORSDOF 8
ENDMDL
MODEL 6
REMARK VINA RESULT:      -8.4      4.161      9.558
REMARK  Name = Alatrofloxacin
REMARK  10 active torsions:
REMARK  status: ('A' for Active; 'I' for Inactive)
REMARK    1  A    between atoms: C_8  and  N_9
REMARK    2  A    between atoms: C_10  and  C_12
REMARK    3  A    between atoms: C_12  and  C_13
REMARK    4  A    between atoms: C_12  and  N_14
REMARK    5  A    between atoms: C_15  and  C_17
REMARK    6  A    between atoms: C_17  and  C_18
REMARK    7  A    between atoms: C_17  and  N_19
REMARK    8  A    between atoms: C_29  and  C_40
REMARK    9  A    between atoms: N_31  and  C_32
REMARK   10  A    between atoms: C_40  and  O_41
REMARK                            x       y       z     vdW  Elec       q    Type
REMARK                         _______ _______ _______ _____ _____    ______ ____
ROOT
ATOM      1  C   UNL     1      -5.537   1.504 126.168  0.00  0.00    +0.000 C 
ATOM      2  C   UNL     1      -4.324   2.232 126.690  0.00  0.00    +0.000 C 
ATOM      3  N   UNL     1      -4.907   3.389 127.369  0.00  0.00    +0.000 N 
ATOM      4  C   UNL     1      -6.267   3.686 126.936  0.00  0.00    +0.000 C 
ATOM      5  C   UNL     1      -6.721   2.405 126.278  0.00  0.00    +0.000 C 
ATOM      6  C   UNL     1      -6.676   1.168 127.110  0.00  0.00    +0.000 C 
ATOM      7  C   UNL     1      -4.312   3.989 128.451  0.00  0.00    +0.000 A 
ATOM      8  N   UNL     1      -4.969   4.015 129.645  0.00  0.00    +0.000 NA
ATOM      9  C   UNL     1      -4.388   4.617 130.730  0.00  0.00    +0.000 A 
ATOM     10  C   UNL     1      -3.159   5.265 130.617  0.00  0.00    +0.000 A 
ATOM     11  C   UNL     1      -2.488   5.257 129.399  0.00  0.00    +0.000 A 
ATOM     12  C   UNL     1      -3.058   4.594 128.325  0.00  0.00    +0.000 A 
ATOM     13  F   UNL     1      -2.415   4.608 127.148  0.00  0.00    +0.000 F 
ATOM     14  C   UNL     1      -2.564   5.979 131.763  0.00  0.00    +0.000 A 
ATOM     15  O   UNL     1      -1.492   6.549 131.589  0.00  0.00    +0.000 OA
ATOM     16  C   UNL     1      -3.283   5.984 133.071  0.00  0.00    +0.000 A 
ATOM     17  C   UNL     1      -4.452   5.313 133.074  0.00  0.00    +0.000 A 
ATOM     18  N   UNL     1      -5.045   4.625 132.006  0.00  0.00    +0.000 N 
ENDROOT
BRANCH  18  19
ATOM     19  C   UNL     1      -6.300   3.967 132.196  0.00  0.00    +0.000 A 
ATOM     20  C   UNL     1      -6.356   2.635 132.636  0.00  0.00    +0.000 A 
ATOM     21  C   UNL     1      -7.577   2.073 133.017  0.00  0.00    +0.000 A 
ATOM     22  C   UNL     1      -8.758   2.736 132.709  0.00  0.00    +0.000 A 
ATOM     23  F   UNL     1      -9.931   2.132 132.937  0.00  0.00    +0.000 F 
ATOM     24  C   UNL     1      -8.738   4.006 132.152  0.00  0.00    +0.000 A 
ATOM     25  C   UNL     1      -7.514   4.642 131.984  0.00  0.00    +0.000 A 
ATOM     26  F   UNL     1      -7.505   5.928 131.602  0.00  0.00    +0.000 F 
ENDBRANCH  18  19
BRANCH   6  27
ATOM     27  N   UNL     1      -7.451  -0.036 126.945  0.00  0.00    +0.000 N 
ATOM     28  C   UNL     1      -7.155  -1.037 127.866  0.00  0.00    +0.000 C 
ATOM     29  O   UNL     1      -6.116  -0.953 128.530  0.00  0.00    +0.000 OA
ATOM     30  H   UNL     1      -8.410   0.070 126.637  0.00  0.00    +0.000 HD
BRANCH  28  31
ATOM     31  C   UNL     1      -8.143  -2.222 128.036  0.00  0.00    +0.000 C 
ATOM     32  C   UNL     1      -7.695  -3.218 129.109  0.00  0.00    +0.000 C 
BRANCH  31  33
ATOM     33  N   UNL     1      -8.189  -2.952 126.763  0.00  0.00    +0.000 N 
ATOM     34  C   UNL     1      -9.044  -2.667 125.713  0.00  0.00    +0.000 C 
ATOM     35  O   UNL     1      -9.900  -1.788 125.754  0.00  0.00    +0.000 OA
ATOM     36  H   UNL     1      -7.651  -3.802 126.726  0.00  0.00    +0.000 HD
BRANCH  34  37
ATOM     37  C   UNL     1      -8.780  -3.483 124.415  0.00  0.00    +0.000 C 
ATOM     38  C   UNL     1      -7.506  -3.052 123.699  0.00  0.00    +0.000 C 
BRANCH  37  39
ATOM     39  N   UNL     1      -9.916  -3.359 123.481  0.00  0.00    +0.000 NA
ATOM     40  H   UNL     1     -10.720  -3.854 123.864  0.00  0.00    +0.000 HD
ATOM     41  H   UNL     1      -9.679  -3.875 122.628  0.00  0.00    +0.000 HD
ENDBRANCH  37  39
ENDBRANCH  34  37
ENDBRANCH  31  33
ENDBRANCH  28  31
ENDBRANCH   6  27
BRANCH  16  42
ATOM     42  C   UNL     1      -2.682   6.694 134.237  0.00  0.00    +0.000 C 
ATOM     43  O   UNL     1      -3.214   7.651 134.796  0.00  0.00    +0.000 OA
BRANCH  42  44
ATOM     44  O   UNL     1      -1.489   6.256 134.686  0.00  0.00    +0.000 OA
ATOM     45  H   UNL     1      -1.443   5.460 135.236  0.00  0.00    +0.000 HD
ENDBRANCH  42  44
ENDBRANCH  16  42
TORSDOF 8
ENDMDL
MODEL 7
REMARK VINA RESULT:      -8.4      3.451      9.655
REMARK  Name = Alatrofloxacin
REMARK  10 active torsions:
REMARK  status: ('A' for Active; 'I' for Inactive)
REMARK    1  A    between atoms: C_8  and  N_9
REMARK    2  A    between atoms: C_10  and  C_12
REMARK    3  A    between atoms: C_12  and  C_13
REMARK    4  A    between atoms: C_12  and  N_14
REMARK    5  A    between atoms: C_15  and  C_17
REMARK    6  A    between atoms: C_17  and  C_18
REMARK    7  A    between atoms: C_17  and  N_19
REMARK    8  A    between atoms: C_29  and  C_40
REMARK    9  A    between atoms: N_31  and  C_32
REMARK   10  A    between atoms: C_40  and  O_41
REMARK                            x       y       z     vdW  Elec       q    Type
REMARK                         _______ _______ _______ _____ _____    ______ ____
ROOT
ATOM      1  C   UNL     1      -3.221   3.129 126.435  0.00  0.00    +0.000 C 
ATOM      2  C   UNL     1      -2.461   3.965 127.435  0.00  0.00    +0.000 C 
ATOM      3  N   UNL     1      -3.509   4.795 128.028  0.00  0.00    +0.000 N 
ATOM      4  C   UNL     1      -4.708   4.885 127.203  0.00  0.00    +0.000 C 
ATOM      5  C   UNL     1      -4.582   3.714 126.260  0.00  0.00    +0.000 C 
ATOM      6  C   UNL     1      -4.451   2.362 126.877  0.00  0.00    +0.000 C 
ATOM      7  C   UNL     1      -3.447   5.255 129.320  0.00  0.00    +0.000 A 
ATOM      8  N   UNL     1      -4.407   4.879 130.210  0.00  0.00    +0.000 NA
ATOM      9  C   UNL     1      -4.358   5.338 131.500  0.00  0.00    +0.000 A 
ATOM     10  C   UNL     1      -3.375   6.239 131.904  0.00  0.00    +0.000 A 
ATOM     11  C   UNL     1      -2.398   6.640 130.998  0.00  0.00    +0.000 A 
ATOM     12  C   UNL     1      -2.425   6.124 129.714  0.00  0.00    +0.000 A 
ATOM     13  F   UNL     1      -1.491   6.531 128.840  0.00  0.00    +0.000 F 
ATOM     14  C   UNL     1      -3.362   6.794 133.271  0.00  0.00    +0.000 A 
ATOM     15  O   UNL     1      -2.483   7.601 133.553  0.00  0.00    +0.000 OA
ATOM     16  C   UNL     1      -4.408   6.360 134.243  0.00  0.00    +0.000 A 
ATOM     17  C   UNL     1      -5.298   5.473 133.755  0.00  0.00    +0.000 A 
ATOM     18  N   UNL     1      -5.339   4.927 132.464  0.00  0.00    +0.000 N 
ENDROOT
BRANCH  18  19
ATOM     19  C   UNL     1      -6.366   3.993 132.123  0.00  0.00    +0.000 A 
ATOM     20  C   UNL     1      -6.185   2.615 132.328  0.00  0.00    +0.000 A 
ATOM     21  C   UNL     1      -7.264   1.738 132.188  0.00  0.00    +0.000 A 
ATOM     22  C   UNL     1      -8.435   2.188 131.593  0.00  0.00    +0.000 A 
ATOM     23  F   UNL     1      -9.414   1.314 131.322  0.00  0.00    +0.000 F 
ATOM     24  C   UNL     1      -8.598   3.524 131.259  0.00  0.00    +0.000 A 
ATOM     25  C   UNL     1      -7.599   4.425 131.608  0.00  0.00    +0.000 A 
ATOM     26  F   UNL     1      -7.828   5.736 131.434  0.00  0.00    +0.000 F 
ENDBRANCH  18  19
BRANCH   6  27
ATOM     27  N   UNL     1      -4.786   1.088 126.293  0.00  0.00    +0.000 N 
ATOM     28  C   UNL     1      -6.087   0.665 126.552  0.00  0.00    +0.000 C 
ATOM     29  O   UNL     1      -6.732   1.222 127.447  0.00  0.00    +0.000 OA
ATOM     30  H   UNL     1      -4.376   0.869 125.394  0.00  0.00    +0.000 HD
BRANCH  28  31
ATOM     31  C   UNL     1      -6.688  -0.486 125.702  0.00  0.00    +0.000 C 
ATOM     32  C   UNL     1      -5.621  -1.296 124.960  0.00  0.00    +0.000 C 
BRANCH  31  33
ATOM     33  N   UNL     1      -7.558   0.116 124.684  0.00  0.00    +0.000 N 
ATOM     34  C   UNL     1      -8.938   0.029 124.665  0.00  0.00    +0.000 C 
ATOM     35  O   UNL     1      -9.590  -0.611 125.486  0.00  0.00    +0.000 OA
ATOM     36  H   UNL     1      -7.090   0.495 123.877  0.00  0.00    +0.000 HD
BRANCH  34  37
ATOM     37  C   UNL     1      -9.633   0.891 123.572  0.00  0.00    +0.000 C 
ATOM     38  C   UNL     1      -8.829   2.132 123.203  0.00  0.00    +0.000 C 
BRANCH  37  39
ATOM     39  N   UNL     1     -10.978   1.310 124.014  0.00  0.00    +0.000 NA
ATOM     40  H   UNL     1     -11.099   2.303 123.819  0.00  0.00    +0.000 HD
ATOM     41  H   UNL     1     -11.007   1.244 125.036  0.00  0.00    +0.000 HD
ENDBRANCH  37  39
ENDBRANCH  34  37
ENDBRANCH  31  33
ENDBRANCH  28  31
ENDBRANCH   6  27
BRANCH  16  42
ATOM     42  C   UNL     1      -4.394   6.908 135.630  0.00  0.00    +0.000 C 
ATOM     43  O   UNL     1      -5.407   7.059 136.310  0.00  0.00    +0.000 OA
BRANCH  42  44
ATOM     44  O   UNL     1      -3.200   7.256 136.150  0.00  0.00    +0.000 OA
ATOM     45  H   UNL     1      -2.538   7.689 135.592  0.00  0.00    +0.000 HD
ENDBRANCH  42  44
ENDBRANCH  16  42
TORSDOF 8
ENDMDL
MODEL 8
REMARK VINA RESULT:      -8.4      6.029     10.831
REMARK  Name = Alatrofloxacin
REMARK  10 active torsions:
REMARK  status: ('A' for Active; 'I' for Inactive)
REMARK    1  A    between atoms: C_8  and  N_9
REMARK    2  A    between atoms: C_10  and  C_12
REMARK    3  A    between atoms: C_12  and  C_13
REMARK    4  A    between atoms: C_12  and  N_14
REMARK    5  A    between atoms: C_15  and  C_17
REMARK    6  A    between atoms: C_17  and  C_18
REMARK    7  A    between atoms: C_17  and  N_19
REMARK    8  A    between atoms: C_29  and  C_40
REMARK    9  A    between atoms: N_31  and  C_32
REMARK   10  A    between atoms: C_40  and  O_41
REMARK                            x       y       z     vdW  Elec       q    Type
REMARK                         _______ _______ _______ _____ _____    ______ ____
ROOT
ATOM      1  C   UNL     1      -5.477   3.627 128.575  0.00  0.00    +0.000 C 
ATOM      2  C   UNL     1      -4.525   3.081 129.609  0.00  0.00    +0.000 C 
ATOM      3  N   UNL     1      -5.367   2.166 130.377  0.00  0.00    +0.000 N 
ATOM      4  C   UNL     1      -6.793   2.432 130.225  0.00  0.00    +0.000 C 
ATOM      5  C   UNL     1      -6.870   3.267 128.971  0.00  0.00    +0.000 C 
ATOM      6  C   UNL     1      -6.296   2.673 127.728  0.00  0.00    +0.000 C 
ATOM      7  C   UNL     1      -4.872   1.044 130.994  0.00  0.00    +0.000 A 
ATOM      8  N   UNL     1      -5.331  -0.183 130.620  0.00  0.00    +0.000 NA
ATOM      9  C   UNL     1      -4.847  -1.308 131.235  0.00  0.00    +0.000 A 
ATOM     10  C   UNL     1      -3.938  -1.216 132.287  0.00  0.00    +0.000 A 
ATOM     11  C   UNL     1      -3.475   0.034 132.686  0.00  0.00    +0.000 A 
ATOM     12  C   UNL     1      -3.926   1.159 132.018  0.00  0.00    +0.000 A 
ATOM     13  F   UNL     1      -3.491   2.362 132.422  0.00  0.00    +0.000 F 
ATOM     14  C   UNL     1      -3.472  -2.420 133.001  0.00  0.00    +0.000 A 
ATOM     15  O   UNL     1      -2.690  -2.265 133.934  0.00  0.00    +0.000 OA
ATOM     16  C   UNL     1      -3.966  -3.760 132.569  0.00  0.00    +0.000 A 
ATOM     17  C   UNL     1      -4.826  -3.736 131.532  0.00  0.00    +0.000 A 
ATOM     18  N   UNL     1      -5.289  -2.613 130.832  0.00  0.00    +0.000 N 
ENDROOT
BRANCH  18  19
ATOM     19  C   UNL     1      -6.208  -2.782 129.750  0.00  0.00    +0.000 A 
ATOM     20  C   UNL     1      -7.526  -3.207 129.983  0.00  0.00    +0.000 A 
ATOM     21  C   UNL     1      -8.468  -3.167 128.951  0.00  0.00    +0.000 A 
ATOM     22  C   UNL     1      -8.040  -2.965 127.645  0.00  0.00    +0.000 A 
ATOM     23  F   UNL     1      -8.918  -3.076 126.640  0.00  0.00    +0.000 F 
ATOM     24  C   UNL     1      -6.714  -2.670 127.366  0.00  0.00    +0.000 A 
ATOM     25  C   UNL     1      -5.833  -2.494 128.427  0.00  0.00    +0.000 A 
ATOM     26  F   UNL     1      -4.595  -2.048 128.166  0.00  0.00    +0.000 F 
ENDBRANCH  18  19
BRANCH   6  27
ATOM     27  N   UNL     1      -6.632   2.986 126.363  0.00  0.00    +0.000 N 
ATOM     28  C   UNL     1      -6.320   1.980 125.453  0.00  0.00    +0.000 C 
ATOM     29  O   UNL     1      -5.559   1.070 125.801  0.00  0.00    +0.000 OA
ATOM     30  H   UNL     1      -7.465   3.538 126.206  0.00  0.00    +0.000 HD
BRANCH  28  31
ATOM     31  C   UNL     1      -6.945   2.027 124.033  0.00  0.00    +0.000 C 
ATOM     32  C   UNL     1      -7.661   3.349 123.744  0.00  0.00    +0.000 C 
BRANCH  31  33
ATOM     33  N   UNL     1      -7.953   0.964 123.951  0.00  0.00    +0.000 N 
ATOM     34  C   UNL     1      -7.728  -0.311 123.464  0.00  0.00    +0.000 C 
ATOM     35  O   UNL     1      -6.653  -0.680 122.998  0.00  0.00    +0.000 OA
ATOM     36  H   UNL     1      -8.902   1.245 124.137  0.00  0.00    +0.000 HD
BRANCH  34  37
ATOM     37  C   UNL     1      -8.918  -1.298 123.638  0.00  0.00    +0.000 C 
ATOM     38  C   UNL     1      -8.538  -2.739 123.317  0.00  0.00    +0.000 C 
BRANCH  37  39
ATOM     39  N   UNL     1     -10.053  -0.904 122.782  0.00  0.00    +0.000 NA
ATOM     40  H   UNL     1     -10.168  -1.593 122.040  0.00  0.00    +0.000 HD
ATOM     41  H   UNL     1      -9.794  -0.041 122.294  0.00  0.00    +0.000 HD
ENDBRANCH  37  39
ENDBRANCH  34  37
ENDBRANCH  31  33
ENDBRANCH  28  31
ENDBRANCH   6  27
BRANCH  16  42
ATOM     42  C   UNL     1      -3.490  -4.982 133.280  0.00  0.00    +0.000 C 
ATOM     43  O   UNL     1      -4.245  -5.831 133.748  0.00  0.00    +0.000 OA
BRANCH  42  44
ATOM     44  O   UNL     1      -2.158  -5.147 133.412  0.00  0.00    +0.000 OA
ATOM     45  H   UNL     1      -1.767  -5.225 134.294  0.00  0.00    +0.000 HD
ENDBRANCH  42  44
ENDBRANCH  16  42
TORSDOF 8
ENDMDL
MODEL 9
REMARK VINA RESULT:      -8.4      5.346      8.161
REMARK  Name = Alatrofloxacin
REMARK  10 active torsions:
REMARK  status: ('A' for Active; 'I' for Inactive)
REMARK    1  A    between atoms: C_8  and  N_9
REMARK    2  A    between atoms: C_10  and  C_12
REMARK    3  A    between atoms: C_12  and  C_13
REMARK    4  A    between atoms: C_12  and  N_14
REMARK    5  A    between atoms: C_15  and  C_17
REMARK    6  A    between atoms: C_17  and  C_18
REMARK    7  A    between atoms: C_17  and  N_19
REMARK    8  A    between atoms: C_29  and  C_40
REMARK    9  A    between atoms: N_31  and  C_32
REMARK   10  A    between atoms: C_40  and  O_41
REMARK                            x       y       z     vdW  Elec       q    Type
REMARK                         _______ _______ _______ _____ _____    ______ ____
ROOT
ATOM      1  C   UNL     1      -3.466   5.116 128.155  0.00  0.00    +0.000 C 
ATOM      2  C   UNL     1      -4.427   5.277 127.003  0.00  0.00    +0.000 C 
ATOM      3  N   UNL     1      -4.292   4.010 126.286  0.00  0.00    +0.000 N 
ATOM      4  C   UNL     1      -3.056   3.302 126.596  0.00  0.00    +0.000 C 
ATOM      5  C   UNL     1      -2.597   3.932 127.889  0.00  0.00    +0.000 C 
ATOM      6  C   UNL     1      -3.549   3.886 129.037  0.00  0.00    +0.000 C 
ATOM      7  C   UNL     1      -5.321   3.451 125.569  0.00  0.00    +0.000 A 
ATOM      8  N   UNL     1      -5.801   2.229 125.933  0.00  0.00    +0.000 NA
ATOM      9  C   UNL     1      -6.824   1.659 125.220  0.00  0.00    +0.000 A 
ATOM     10  C   UNL     1      -7.340   2.281 124.085  0.00  0.00    +0.000 A 
ATOM     11  C   UNL     1      -6.845   3.522 123.698  0.00  0.00    +0.000 A 
ATOM     12  C   UNL     1      -5.853   4.114 124.460  0.00  0.00    +0.000 A 
ATOM     13  F   UNL     1      -5.367   5.302 124.068  0.00  0.00    +0.000 F 
ATOM     14  C   UNL     1      -8.389   1.637 123.272  0.00  0.00    +0.000 A 
ATOM     15  O   UNL     1      -8.781   2.227 122.271  0.00  0.00    +0.000 OA
ATOM     16  C   UNL     1      -8.921   0.307 123.690  0.00  0.00    +0.000 A 
ATOM     17  C   UNL     1      -8.366  -0.195 124.811  0.00  0.00    +0.000 A 
ATOM     18  N   UNL     1      -7.370   0.389 125.606  0.00  0.00    +0.000 N 
ENDROOT
BRANCH  18  19
ATOM     19  C   UNL     1      -6.899  -0.296 126.769  0.00  0.00    +0.000 A 
ATOM     20  C   UNL     1      -7.586  -0.201 127.990  0.00  0.00    +0.000 A 
ATOM     21  C   UNL     1      -7.239  -1.035 129.056  0.00  0.00    +0.000 A 
ATOM     22  C   UNL     1      -6.055  -1.760 128.997  0.00  0.00    +0.000 A 
ATOM     23  F   UNL     1      -5.646  -2.441 130.076  0.00  0.00    +0.000 F 
ATOM     24  C   UNL     1      -5.283  -1.772 127.846  0.00  0.00    +0.000 A 
ATOM     25  C   UNL     1      -5.757  -1.114 126.718  0.00  0.00    +0.000 A 
ATOM     26  F   UNL     1      -5.094  -1.263 125.561  0.00  0.00    +0.000 F 
ENDBRANCH  18  19
BRANCH   6  27
ATOM     27  N   UNL     1      -3.243   3.953 130.443  0.00  0.00    +0.000 N 
ATOM     28  C   UNL     1      -4.315   3.647 131.277  0.00  0.00    +0.000 C 
ATOM     29  O   UNL     1      -5.456   3.630 130.805  0.00  0.00    +0.000 OA
ATOM     30  H   UNL     1      -2.313   3.672 130.728  0.00  0.00    +0.000 HD
BRANCH  28  31
ATOM     31  C   UNL     1      -4.040   3.329 132.771  0.00  0.00    +0.000 C 
ATOM     32  C   UNL     1      -2.557   3.434 133.137  0.00  0.00    +0.000 C 
BRANCH  31  33
ATOM     33  N   UNL     1      -4.447   1.941 133.016  0.00  0.00    +0.000 N 
ATOM     34  C   UNL     1      -5.535   1.553 133.779  0.00  0.00    +0.000 C 
ATOM     35  O   UNL     1      -6.259   2.342 134.380  0.00  0.00    +0.000 OA
ATOM     36  H   UNL     1      -3.797   1.234 132.715  0.00  0.00    +0.000 HD
BRANCH  34  37
ATOM     37  C   UNL     1      -5.846   0.029 133.747  0.00  0.00    +0.000 C 
ATOM     38  C   UNL     1      -6.920  -0.330 132.726  0.00  0.00    +0.000 C 
BRANCH  37  39
ATOM     39  N   UNL     1      -6.278  -0.444 135.076  0.00  0.00    +0.000 NA
ATOM     40  H   UNL     1      -7.237  -0.141 135.244  0.00  0.00    +0.000 HD
ATOM     41  H   UNL     1      -5.725   0.052 135.781  0.00  0.00    +0.000 HD
ENDBRANCH  37  39
ENDBRANCH  34  37
ENDBRANCH  31  33
ENDBRANCH  28  31
ENDBRANCH   6  27
BRANCH  16  42
ATOM     42  C   UNL     1      -9.990  -0.345 122.879  0.00  0.00    +0.000 C 
ATOM     43  O   UNL     1      -9.948  -1.520 122.521  0.00  0.00    +0.000 OA
BRANCH  42  44
ATOM     44  O   UNL     1     -11.049   0.410 122.523  0.00  0.00    +0.000 OA
ATOM     45  H   UNL     1     -10.941   1.363 122.393  0.00  0.00    +0.000 HD
ENDBRANCH  42  44
ENDBRANCH  16  42
TORSDOF 8
ENDMDL
