MODEL 1
REMARK VINA RESULT:      -6.5      0.000      0.000
REMARK  Name = Albendazole
REMARK  6 active torsions:
REMARK  status: ('A' for Active; 'I' for Inactive)
REMARK    1  A    between atoms: C_1  and  C_2
REMARK    2  A    between atoms: C_2  and  C_3
REMARK    3  A    between atoms: C_3  and  S_4
REMARK    4  A    between atoms: S_4  and  C_5
REMARK    5  A    between atoms: C_14  and  O_16
REMARK    6  A    between atoms: O_16  and  C_17
REMARK                            x       y       z     vdW  Elec       q    Type
REMARK                         _______ _______ _______ _____ _____    ______ ____
ROOT
ATOM      1  C   UNL     1      -8.141  -0.366 125.419  0.00  0.00    +0.000 A 
ATOM      2  C   UNL     1      -7.211   0.168 124.511  0.00  0.00    +0.000 A 
ATOM      3  C   UNL     1      -7.613   1.269 123.739  0.00  0.00    +0.000 A 
ATOM      4  C   UNL     1      -8.866   1.862 123.840  0.00  0.00    +0.000 A 
ATOM      5  C   UNL     1      -9.770   1.348 124.790  0.00  0.00    +0.000 A 
ATOM      6  C   UNL     1      -9.388   0.245 125.580  0.00  0.00    +0.000 A 
ATOM      7  N   UNL     1      -8.987   2.907 122.934  0.00  0.00    +0.000 NA
ATOM      8  C   UNL     1      -7.836   2.965 122.294  0.00  0.00    +0.000 A 
ATOM      9  N   UNL     1      -7.494   3.847 121.285  0.00  0.00    +0.000 N 
ATOM     10  C   UNL     1      -6.260   3.825 120.679  0.00  0.00    +0.000 C 
ATOM     11  O   UNL     1      -5.354   3.041 120.963  0.00  0.00    +0.000 OA
ATOM     12  N   UNL     1      -6.978   2.003 122.771  0.00  0.00    +0.000 N 
ATOM     13  H   UNL     1      -8.191   4.521 120.996  0.00  0.00    +0.000 HD
ATOM     14  H   UNL     1      -6.036   1.873 122.427  0.00  0.00    +0.000 HD
ENDROOT
BRANCH  10  15
ATOM     15  O   UNL     1      -6.143   4.780 119.711  0.00  0.00    +0.000 OA
ATOM     16  C   UNL     1      -7.153   4.712 118.686  0.00  0.00    +0.000 C 
ENDBRANCH  10  15
BRANCH   1  17
ATOM     17  S   UNL     1      -7.675  -1.782 126.415  0.00  0.00    +0.000 S 
BRANCH  17  18
ATOM     18  C   UNL     1      -8.944  -3.017 125.923  0.00  0.00    +0.000 C 
BRANCH  18  20
ATOM     19  C   UNL     1      -9.454  -3.217 123.456  0.00  0.00    +0.000 C 
ATOM     20  C   UNL     1      -8.542  -3.659 124.592  0.00  0.00    +0.000 C 
ENDBRANCH  18  20
ENDBRANCH  17  18
ENDBRANCH   1  17
TORSDOF 4
ENDMDL
MODEL 2
REMARK VINA RESULT:      -6.3      9.935     11.301
REMARK  Name = Albendazole
REMARK  6 active torsions:
REMARK  status: ('A' for Active; 'I' for Inactive)
REMARK    1  A    between atoms: C_1  and  C_2
REMARK    2  A    between atoms: C_2  and  C_3
REMARK    3  A    between atoms: C_3  and  S_4
REMARK    4  A    between atoms: S_4  and  C_5
REMARK    5  A    between atoms: C_14  and  O_16
REMARK    6  A    between atoms: O_16  and  C_17
REMARK                            x       y       z     vdW  Elec       q    Type
REMARK                         _______ _______ _______ _____ _____    ______ ____
ROOT
ATOM      1  C   UNL     1     -12.003   7.242 129.726  0.00  0.00    +0.000 A 
ATOM      2  C   UNL     1     -10.632   7.370 129.441  0.00  0.00    +0.000 A 
ATOM      3  C   UNL     1      -9.721   6.978 130.434  0.00  0.00    +0.000 A 
ATOM      4  C   UNL     1     -10.102   6.459 131.666  0.00  0.00    +0.000 A 
ATOM      5  C   UNL     1     -11.478   6.290 131.918  0.00  0.00    +0.000 A 
ATOM      6  C   UNL     1     -12.413   6.673 130.935  0.00  0.00    +0.000 A 
ATOM      7  N   UNL     1      -8.989   6.191 132.450  0.00  0.00    +0.000 NA
ATOM      8  C   UNL     1      -7.945   6.526 131.721  0.00  0.00    +0.000 A 
ATOM      9  N   UNL     1      -6.614   6.446 132.093  0.00  0.00    +0.000 N 
ATOM     10  C   UNL     1      -5.594   6.824 131.252  0.00  0.00    +0.000 C 
ATOM     11  O   UNL     1      -5.751   7.260 130.111  0.00  0.00    +0.000 OA
ATOM     12  N   UNL     1      -8.352   6.986 130.490  0.00  0.00    +0.000 N 
ATOM     13  H   UNL     1      -6.408   6.098 133.019  0.00  0.00    +0.000 HD
ATOM     14  H   UNL     1      -7.713   7.291 129.768  0.00  0.00    +0.000 HD
ENDROOT
BRANCH  10  15
ATOM     15  O   UNL     1      -4.366   6.663 131.827  0.00  0.00    +0.000 OA
ATOM     16  C   UNL     1      -3.332   7.488 131.256  0.00  0.00    +0.000 C 
ENDBRANCH  10  15
BRANCH   1  17
ATOM     17  S   UNL     1     -13.202   7.745 128.492  0.00  0.00    +0.000 S 
BRANCH  17  18
ATOM     18  C   UNL     1     -13.130   9.576 128.627  0.00  0.00    +0.000 C 
BRANCH  18  20
ATOM     19  C   UNL     1     -13.603  11.452 130.254  0.00  0.00    +0.000 C 
ATOM     20  C   UNL     1     -13.227   9.984 130.100  0.00  0.00    +0.000 C 
ENDBRANCH  18  20
ENDBRANCH  17  18
ENDBRANCH   1  17
TORSDOF 4
ENDMDL
MODEL 3
REMARK VINA RESULT:      -5.9      9.856     10.506
REMARK  Name = Albendazole
REMARK  6 active torsions:
REMARK  status: ('A' for Active; 'I' for Inactive)
REMARK    1  A    between atoms: C_1  and  C_2
REMARK    2  A    between atoms: C_2  and  C_3
REMARK    3  A    between atoms: C_3  and  S_4
REMARK    4  A    between atoms: S_4  and  C_5
REMARK    5  A    between atoms: C_14  and  O_16
REMARK    6  A    between atoms: O_16  and  C_17
REMARK                            x       y       z     vdW  Elec       q    Type
REMARK                         _______ _______ _______ _____ _____    ______ ____
ROOT
ATOM      1  C   UNL     1      -6.105   6.119 132.322  0.00  0.00    +0.000 A 
ATOM      2  C   UNL     1      -6.684   6.784 131.228  0.00  0.00    +0.000 A 
ATOM      3  C   UNL     1      -8.085   6.824 131.158  0.00  0.00    +0.000 A 
ATOM      4  C   UNL     1      -8.920   6.261 132.116  0.00  0.00    +0.000 A 
ATOM      5  C   UNL     1      -8.325   5.642 133.233  0.00  0.00    +0.000 A 
ATOM      6  C   UNL     1      -6.919   5.592 133.328  0.00  0.00    +0.000 A 
ATOM      7  N   UNL     1     -10.252   6.431 131.766  0.00  0.00    +0.000 NA
ATOM      8  C   UNL     1     -10.244   7.090 130.626  0.00  0.00    +0.000 A 
ATOM      9  N   UNL     1     -11.348   7.476 129.885  0.00  0.00    +0.000 N 
ATOM     10  C   UNL     1     -11.230   8.164 128.700  0.00  0.00    +0.000 C 
ATOM     11  O   UNL     1     -10.163   8.502 128.188  0.00  0.00    +0.000 OA
ATOM     12  N   UNL     1      -8.952   7.361 130.241  0.00  0.00    +0.000 N 
ATOM     13  H   UNL     1     -12.260   7.231 130.243  0.00  0.00    +0.000 HD
ATOM     14  H   UNL     1      -8.713   7.866 129.398  0.00  0.00    +0.000 HD
ENDROOT
BRANCH  10  15
ATOM     15  O   UNL     1     -12.445   8.439 128.141  0.00  0.00    +0.000 OA
ATOM     16  C   UNL     1     -13.343   7.313 128.092  0.00  0.00    +0.000 C 
ENDBRANCH  10  15
BRANCH   1  17
ATOM     17  S   UNL     1      -4.318   6.030 132.443  0.00  0.00    +0.000 S 
BRANCH  17  18
ATOM     18  C   UNL     1      -3.800   6.730 130.826  0.00  0.00    +0.000 C 
BRANCH  18  20
ATOM     19  C   UNL     1      -2.135   6.369 128.957  0.00  0.00    +0.000 C 
ATOM     20  C   UNL     1      -2.433   6.158 130.436  0.00  0.00    +0.000 C 
ENDBRANCH  18  20
ENDBRANCH  17  18
ENDBRANCH   1  17
TORSDOF 4
ENDMDL
MODEL 4
REMARK VINA RESULT:      -5.9     10.349     11.591
REMARK  Name = Albendazole
REMARK  6 active torsions:
REMARK  status: ('A' for Active; 'I' for Inactive)
REMARK    1  A    between atoms: C_1  and  C_2
REMARK    2  A    between atoms: C_2  and  C_3
REMARK    3  A    between atoms: C_3  and  S_4
REMARK    4  A    between atoms: S_4  and  C_5
REMARK    5  A    between atoms: C_14  and  O_16
REMARK    6  A    between atoms: O_16  and  C_17
REMARK                            x       y       z     vdW  Elec       q    Type
REMARK                         _______ _______ _______ _____ _____    ______ ____
ROOT
ATOM      1  C   UNL     1      -7.069   5.536 133.533  0.00  0.00    +0.000 A 
ATOM      2  C   UNL     1      -8.455   5.582 133.303  0.00  0.00    +0.000 A 
ATOM      3  C   UNL     1      -8.899   6.195 132.121  0.00  0.00    +0.000 A 
ATOM      4  C   UNL     1      -8.045   6.737 131.168  0.00  0.00    +0.000 A 
ATOM      5  C   UNL     1      -6.657   6.639 131.388  0.00  0.00    +0.000 A 
ATOM      6  C   UNL     1      -6.186   6.025 132.566  0.00  0.00    +0.000 A 
ATOM      7  N   UNL     1      -8.768   7.300 130.126  0.00  0.00    +0.000 NA
ATOM      8  C   UNL     1     -10.037   7.103 130.420  0.00  0.00    +0.000 A 
ATOM      9  N   UNL     1     -11.132   7.505 129.674  0.00  0.00    +0.000 N 
ATOM     10  C   UNL     1     -12.423   7.249 130.072  0.00  0.00    +0.000 C 
ATOM     11  O   UNL     1     -12.734   6.651 131.103  0.00  0.00    +0.000 OA
ATOM     12  N   UNL     1     -10.150   6.421 131.608  0.00  0.00    +0.000 N 
ATOM     13  H   UNL     1     -10.954   8.004 128.814  0.00  0.00    +0.000 HD
ATOM     14  H   UNL     1     -11.035   6.157 132.020  0.00  0.00    +0.000 HD
ENDROOT
BRANCH  10  15
ATOM     15  O   UNL     1     -13.341   7.737 129.188  0.00  0.00    +0.000 OA
ATOM     16  C   UNL     1     -13.014   9.032 128.648  0.00  0.00    +0.000 C 
ENDBRANCH  10  15
BRANCH   1  17
ATOM     17  S   UNL     1      -6.458   4.775 135.037  0.00  0.00    +0.000 S 
BRANCH  17  18
ATOM     18  C   UNL     1      -6.381   6.214 136.177  0.00  0.00    +0.000 C 
BRANCH  18  20
ATOM     19  C   UNL     1      -7.688   6.467 138.325  0.00  0.00    +0.000 C 
ATOM     20  C   UNL     1      -7.759   6.444 136.804  0.00  0.00    +0.000 C 
ENDBRANCH  18  20
ENDBRANCH  17  18
ENDBRANCH   1  17
TORSDOF 4
ENDMDL
MODEL 5
REMARK VINA RESULT:      -5.8      9.384     10.563
REMARK  Name = Albendazole
REMARK  6 active torsions:
REMARK  status: ('A' for Active; 'I' for Inactive)
REMARK    1  A    between atoms: C_1  and  C_2
REMARK    2  A    between atoms: C_2  and  C_3
REMARK    3  A    between atoms: C_3  and  S_4
REMARK    4  A    between atoms: S_4  and  C_5
REMARK    5  A    between atoms: C_14  and  O_16
REMARK    6  A    between atoms: O_16  and  C_17
REMARK                            x       y       z     vdW  Elec       q    Type
REMARK                         _______ _______ _______ _____ _____    ______ ____
ROOT
ATOM      1  C   UNL     1     -11.031   6.966 130.550  0.00  0.00    +0.000 A 
ATOM      2  C   UNL     1      -9.738   7.263 130.084  0.00  0.00    +0.000 A 
ATOM      3  C   UNL     1      -8.653   6.870 130.882  0.00  0.00    +0.000 A 
ATOM      4  C   UNL     1      -8.790   6.194 132.089  0.00  0.00    +0.000 A 
ATOM      5  C   UNL     1     -10.089   5.859 132.518  0.00  0.00    +0.000 A 
ATOM      6  C   UNL     1     -11.196   6.239 131.732  0.00  0.00    +0.000 A 
ATOM      7  N   UNL     1      -7.549   5.966 132.667  0.00  0.00    +0.000 NA
ATOM      8  C   UNL     1      -6.664   6.479 131.835  0.00  0.00    +0.000 A 
ATOM      9  N   UNL     1      -5.290   6.501 131.998  0.00  0.00    +0.000 N 
ATOM     10  C   UNL     1      -4.451   7.064 131.066  0.00  0.00    +0.000 C 
ATOM     11  O   UNL     1      -4.821   7.593 130.018  0.00  0.00    +0.000 OA
ATOM     12  N   UNL     1      -7.297   7.015 130.738  0.00  0.00    +0.000 N 
ATOM     13  H   UNL     1      -4.912   6.085 132.839  0.00  0.00    +0.000 HD
ATOM     14  H   UNL     1      -6.808   7.454 129.970  0.00  0.00    +0.000 HD
ENDROOT
BRANCH  10  15
ATOM     15  O   UNL     1      -3.139   6.975 131.433  0.00  0.00    +0.000 OA
ATOM     16  C   UNL     1      -2.280   6.400 130.429  0.00  0.00    +0.000 C 
ENDBRANCH  10  15
BRANCH   1  17
ATOM     17  S   UNL     1     -12.447   7.462 129.570  0.00  0.00    +0.000 S 
BRANCH  17  18
ATOM     18  C   UNL     1     -11.679   8.613 128.360  0.00  0.00    +0.000 C 
BRANCH  18  20
ATOM     19  C   UNL     1     -12.499   7.086 126.520  0.00  0.00    +0.000 C 
ATOM     20  C   UNL     1     -11.307   7.844 127.089  0.00  0.00    +0.000 C 
ENDBRANCH  18  20
ENDBRANCH  17  18
ENDBRANCH   1  17
TORSDOF 4
ENDMDL
MODEL 6
REMARK VINA RESULT:      -5.6      8.423      9.507
REMARK  Name = Albendazole
REMARK  6 active torsions:
REMARK  status: ('A' for Active; 'I' for Inactive)
REMARK    1  A    between atoms: C_1  and  C_2
REMARK    2  A    between atoms: C_2  and  C_3
REMARK    3  A    between atoms: C_3  and  S_4
REMARK    4  A    between atoms: S_4  and  C_5
REMARK    5  A    between atoms: C_14  and  O_16
REMARK    6  A    between atoms: O_16  and  C_17
REMARK                            x       y       z     vdW  Elec       q    Type
REMARK                         _______ _______ _______ _____ _____    ______ ____
ROOT
ATOM      1  C   UNL     1      -8.263   2.534 132.774  0.00  0.00    +0.000 A 
ATOM      2  C   UNL     1      -9.114   2.933 131.729  0.00  0.00    +0.000 A 
ATOM      3  C   UNL     1      -9.712   4.199 131.823  0.00  0.00    +0.000 A 
ATOM      4  C   UNL     1      -9.492   5.076 132.878  0.00  0.00    +0.000 A 
ATOM      5  C   UNL     1      -8.598   4.684 133.893  0.00  0.00    +0.000 A 
ATOM      6  C   UNL     1      -7.982   3.418 133.819  0.00  0.00    +0.000 A 
ATOM      7  N   UNL     1     -10.239   6.235 132.715  0.00  0.00    +0.000 NA
ATOM      8  C   UNL     1     -10.896   6.084 131.583  0.00  0.00    +0.000 A 
ATOM      9  N   UNL     1     -11.782   6.982 131.014  0.00  0.00    +0.000 N 
ATOM     10  C   UNL     1     -12.420   6.727 129.823  0.00  0.00    +0.000 C 
ATOM     11  O   UNL     1     -12.275   5.703 129.155  0.00  0.00    +0.000 OA
ATOM     12  N   UNL     1     -10.585   4.874 131.010  0.00  0.00    +0.000 N 
ATOM     13  H   UNL     1     -11.953   7.847 131.508  0.00  0.00    +0.000 HD
ATOM     14  H   UNL     1     -10.971   4.555 130.131  0.00  0.00    +0.000 HD
ENDROOT
BRANCH  10  15
ATOM     15  O   UNL     1     -13.248   7.748 129.452  0.00  0.00    +0.000 OA
ATOM     16  C   UNL     1     -13.514   7.811 128.038  0.00  0.00    +0.000 C 
ENDBRANCH  10  15
BRANCH   1  17
ATOM     17  S   UNL     1      -7.490   0.918 132.702  0.00  0.00    +0.000 S 
BRANCH  17  18
ATOM     18  C   UNL     1      -8.742  -0.053 131.771  0.00  0.00    +0.000 C 
BRANCH  18  20
ATOM     19  C   UNL     1      -7.722   0.199 129.472  0.00  0.00    +0.000 C 
ATOM     20  C   UNL     1      -8.064  -0.768 130.598  0.00  0.00    +0.000 C 
ENDBRANCH  18  20
ENDBRANCH  17  18
ENDBRANCH   1  17
TORSDOF 4
ENDMDL
MODEL 7
REMARK VINA RESULT:      -5.6      6.514      8.707
REMARK  Name = Albendazole
REMARK  6 active torsions:
REMARK  status: ('A' for Active; 'I' for Inactive)
REMARK    1  A    between atoms: C_1  and  C_2
REMARK    2  A    between atoms: C_2  and  C_3
REMARK    3  A    between atoms: C_3  and  S_4
REMARK    4  A    between atoms: S_4  and  C_5
REMARK    5  A    between atoms: C_14  and  O_16
REMARK    6  A    between atoms: O_16  and  C_17
REMARK                            x       y       z     vdW  Elec       q    Type
REMARK                         _______ _______ _______ _____ _____    ______ ____
ROOT
ATOM      1  C   UNL     1      -7.239  -1.869 125.272  0.00  0.00    +0.000 A 
ATOM      2  C   UNL     1      -6.556  -1.681 126.485  0.00  0.00    +0.000 A 
ATOM      3  C   UNL     1      -7.100  -2.268 127.638  0.00  0.00    +0.000 A 
ATOM      4  C   UNL     1      -8.261  -3.033 127.636  0.00  0.00    +0.000 A 
ATOM      5  C   UNL     1      -8.908  -3.255 126.405  0.00  0.00    +0.000 A 
ATOM      6  C   UNL     1      -8.378  -2.679 125.232  0.00  0.00    +0.000 A 
ATOM      7  N   UNL     1      -8.571  -3.455 128.921  0.00  0.00    +0.000 NA
ATOM      8  C   UNL     1      -7.623  -2.971 129.698  0.00  0.00    +0.000 A 
ATOM      9  N   UNL     1      -7.520  -3.123 131.070  0.00  0.00    +0.000 N 
ATOM     10  C   UNL     1      -6.485  -2.575 131.792  0.00  0.00    +0.000 C 
ATOM     11  O   UNL     1      -5.567  -1.912 131.308  0.00  0.00    +0.000 OA
ATOM     12  N   UNL     1      -6.708  -2.267 128.951  0.00  0.00    +0.000 N 
ATOM     13  H   UNL     1      -8.240  -3.655 131.537  0.00  0.00    +0.000 HD
ATOM     14  H   UNL     1      -5.893  -1.817 129.345  0.00  0.00    +0.000 HD
ENDROOT
BRANCH  10  15
ATOM     15  O   UNL     1      -6.585  -2.849 133.125  0.00  0.00    +0.000 OA
ATOM     16  C   UNL     1      -7.938  -2.917 133.616  0.00  0.00    +0.000 C 
ENDBRANCH  10  15
BRANCH   1  17
ATOM     17  S   UNL     1      -6.587  -1.124 123.777  0.00  0.00    +0.000 S 
BRANCH  17  18
ATOM     18  C   UNL     1      -5.909  -2.588 122.897  0.00  0.00    +0.000 C 
BRANCH  18  20
ATOM     19  C   UNL     1      -4.594  -4.594 123.694  0.00  0.00    +0.000 C 
ATOM     20  C   UNL     1      -4.645  -3.074 123.613  0.00  0.00    +0.000 C 
ENDBRANCH  18  20
ENDBRANCH  17  18
ENDBRANCH   1  17
TORSDOF 4
ENDMDL
MODEL 8
REMARK VINA RESULT:      -5.6      3.347      4.610
REMARK  Name = Albendazole
REMARK  6 active torsions:
REMARK  status: ('A' for Active; 'I' for Inactive)
REMARK    1  A    between atoms: C_1  and  C_2
REMARK    2  A    between atoms: C_2  and  C_3
REMARK    3  A    between atoms: C_3  and  S_4
REMARK    4  A    between atoms: S_4  and  C_5
REMARK    5  A    between atoms: C_14  and  O_16
REMARK    6  A    between atoms: O_16  and  C_17
REMARK                            x       y       z     vdW  Elec       q    Type
REMARK                         _______ _______ _______ _____ _____    ______ ____
ROOT
ATOM      1  C   UNL     1      -8.012  -2.785 128.086  0.00  0.00    +0.000 A 
ATOM      2  C   UNL     1      -7.720  -1.510 127.573  0.00  0.00    +0.000 A 
ATOM      3  C   UNL     1      -8.274  -1.165 126.331  0.00  0.00    +0.000 A 
ATOM      4  C   UNL     1      -9.103  -2.006 125.598  0.00  0.00    +0.000 A 
ATOM      5  C   UNL     1      -9.428  -3.262 126.148  0.00  0.00    +0.000 A 
ATOM      6  C   UNL     1      -8.886  -3.630 127.397  0.00  0.00    +0.000 A 
ATOM      7  N   UNL     1      -9.472  -1.409 124.401  0.00  0.00    +0.000 NA
ATOM      8  C   UNL     1      -8.894  -0.225 124.395  0.00  0.00    +0.000 A 
ATOM      9  N   UNL     1      -8.966   0.726 123.393  0.00  0.00    +0.000 N 
ATOM     10  C   UNL     1      -8.322   1.938 123.485  0.00  0.00    +0.000 C 
ATOM     11  O   UNL     1      -7.635   2.295 124.442  0.00  0.00    +0.000 OA
ATOM     12  N   UNL     1      -8.180  -0.039 125.556  0.00  0.00    +0.000 N 
ATOM     13  H   UNL     1      -9.512   0.501 122.573  0.00  0.00    +0.000 HD
ATOM     14  H   UNL     1      -7.664   0.805 125.764  0.00  0.00    +0.000 HD
ENDROOT
BRANCH  10  15
ATOM     15  O   UNL     1      -8.528   2.716 122.383  0.00  0.00    +0.000 OA
ATOM     16  C   UNL     1      -7.343   3.370 121.888  0.00  0.00    +0.000 C 
ENDBRANCH  10  15
BRANCH   1  17
ATOM     17  S   UNL     1      -7.313  -3.274 129.663  0.00  0.00    +0.000 S 
BRANCH  17  18
ATOM     18  C   UNL     1      -5.524  -2.952 129.393  0.00  0.00    +0.000 C 
BRANCH  18  20
ATOM     19  C   UNL     1      -5.583  -5.042 130.814  0.00  0.00    +0.000 C 
ATOM     20  C   UNL     1      -4.698  -3.994 130.154  0.00  0.00    +0.000 C 
ENDBRANCH  18  20
ENDBRANCH  17  18
ENDBRANCH   1  17
TORSDOF 4
ENDMDL
MODEL 9
REMARK VINA RESULT:      -5.6      6.937      9.152
REMARK  Name = Albendazole
REMARK  6 active torsions:
REMARK  status: ('A' for Active; 'I' for Inactive)
REMARK    1  A    between atoms: C_1  and  C_2
REMARK    2  A    between atoms: C_2  and  C_3
REMARK    3  A    between atoms: C_3  and  S_4
REMARK    4  A    between atoms: S_4  and  C_5
REMARK    5  A    between atoms: C_14  and  O_16
REMARK    6  A    between atoms: O_16  and  C_17
REMARK                            x       y       z     vdW  Elec       q    Type
REMARK                         _______ _______ _______ _____ _____    ______ ____
ROOT
ATOM      1  C   UNL     1      -7.517  -2.401 126.509  0.00  0.00    +0.000 A 
ATOM      2  C   UNL     1      -6.288  -2.222 127.166  0.00  0.00    +0.000 A 
ATOM      3  C   UNL     1      -6.192  -2.656 128.498  0.00  0.00    +0.000 A 
ATOM      4  C   UNL     1      -7.236  -3.263 129.185  0.00  0.00    +0.000 A 
ATOM      5  C   UNL     1      -8.446  -3.481 128.498  0.00  0.00    +0.000 A 
ATOM      6  C   UNL     1      -8.566  -3.058 127.159  0.00  0.00    +0.000 A 
ATOM      7  N   UNL     1      -6.859  -3.555 130.489  0.00  0.00    +0.000 NA
ATOM      8  C   UNL     1      -5.611  -3.148 130.604  0.00  0.00    +0.000 A 
ATOM      9  N   UNL     1      -4.818  -3.220 131.735  0.00  0.00    +0.000 N 
ATOM     10  C   UNL     1      -3.520  -2.764 131.750  0.00  0.00    +0.000 C 
ATOM     11  O   UNL     1      -2.944  -2.258 130.786  0.00  0.00    +0.000 OA
ATOM     12  N   UNL     1      -5.172  -2.619 129.413  0.00  0.00    +0.000 N 
ATOM     13  H   UNL     1      -5.225  -3.623 132.567  0.00  0.00    +0.000 HD
ATOM     14  H   UNL     1      -4.240  -2.253 129.273  0.00  0.00    +0.000 HD
ENDROOT
BRANCH  10  15
ATOM     15  O   UNL     1      -2.929  -2.933 132.968  0.00  0.00    +0.000 OA
ATOM     16  C   UNL     1      -2.935  -1.755 133.799  0.00  0.00    +0.000 C 
ENDBRANCH  10  15
BRANCH   1  17
ATOM     17  S   UNL     1      -7.689  -1.848 124.812  0.00  0.00    +0.000 S 
BRANCH  17  18
ATOM     18  C   UNL     1      -5.934  -1.652 124.305  0.00  0.00    +0.000 C 
BRANCH  18  20
ATOM     19  C   UNL     1      -4.708  -3.825 123.894  0.00  0.00    +0.000 C 
ATOM     20  C   UNL     1      -5.575  -2.733 123.280  0.00  0.00    +0.000 C 
ENDBRANCH  18  20
ENDBRANCH  17  18
ENDBRANCH   1  17
TORSDOF 4
ENDMDL
