MODEL 1
REMARK VINA RESULT:      -7.9      0.000      0.000
REMARK  Name = Alcaftadine
REMARK  2 active torsions:
REMARK  status: ('A' for Active; 'I' for Inactive)
REMARK    1  A    between atoms: C_1  and  N_2
REMARK    2  A    between atoms: C_12  and  C_13
REMARK                            x       y       z     vdW  Elec       q    Type
REMARK                         _______ _______ _______ _____ _____    ______ ____
ROOT
ATOM      1  C   UNL     1      -7.379  -2.756 130.887  0.00  0.00    +0.000 C 
ATOM      2  N   UNL     1      -6.334  -2.371 129.932  0.00  0.00    +0.000 NA
ATOM      3  C   UNL     1      -6.610  -2.962 128.634  0.00  0.00    +0.000 C 
ATOM      4  C   UNL     1      -7.883  -2.417 128.023  0.00  0.00    +0.000 C 
ATOM      5  C   UNL     1      -7.925  -0.892 127.801  0.00  0.00    +0.000 C 
ATOM      6  C   UNL     1      -7.582  -0.301 129.194  0.00  0.00    +0.000 C 
ATOM      7  C   UNL     1      -6.279  -0.908 129.746  0.00  0.00    +0.000 C 
ATOM      8  C   UNL     1      -8.233  -0.224 126.618  0.00  0.00    +0.000 C 
ATOM      9  C   UNL     1      -8.012   1.222 126.662  0.00  0.00    +0.000 A 
ATOM     10  N   UNL     1      -7.450   1.842 127.679  0.00  0.00    +0.000 NA
ATOM     11  C   UNL     1      -7.471   3.161 127.491  0.00  0.00    +0.000 A 
ATOM     12  C   UNL     1      -7.937   3.445 126.232  0.00  0.00    +0.000 A 
ATOM     13  N   UNL     1      -8.292   2.183 125.688  0.00  0.00    +0.000 N 
ATOM     14  C   UNL     1      -8.895   1.938 124.387  0.00  0.00    +0.000 C 
ATOM     15  C   UNL     1      -8.399   0.719 123.580  0.00  0.00    +0.000 C 
ATOM     16  C   UNL     1      -8.732  -0.668 124.079  0.00  0.00    +0.000 A 
ATOM     17  C   UNL     1      -9.111  -1.655 123.104  0.00  0.00    +0.000 A 
ATOM     18  C   UNL     1      -9.302  -3.009 123.412  0.00  0.00    +0.000 A 
ATOM     19  C   UNL     1      -9.244  -3.385 124.717  0.00  0.00    +0.000 A 
ATOM     20  C   UNL     1      -9.188  -2.353 125.639  0.00  0.00    +0.000 A 
ATOM     21  C   UNL     1      -8.692  -1.047 125.417  0.00  0.00    +0.000 A 
ENDROOT
BRANCH  12  22
ATOM     22  C   UNL     1      -7.961   4.799 125.739  0.00  0.00    +0.000 C 
ATOM     23  O   UNL     1      -8.923   5.572 125.917  0.00  0.00    +0.000 OA
ENDBRANCH  12  22
TORSDOF 1
ENDMDL
MODEL 2
REMARK VINA RESULT:      -7.3      2.478      5.326
REMARK  Name = Alcaftadine
REMARK  2 active torsions:
REMARK  status: ('A' for Active; 'I' for Inactive)
REMARK    1  A    between atoms: C_1  and  N_2
REMARK    2  A    between atoms: C_12  and  C_13
REMARK                            x       y       z     vdW  Elec       q    Type
REMARK                         _______ _______ _______ _____ _____    ______ ____
ROOT
ATOM      1  C   UNL     1      -6.762   4.137 124.791  0.00  0.00    +0.000 C 
ATOM      2  N   UNL     1      -8.045   3.746 125.383  0.00  0.00    +0.000 NA
ATOM      3  C   UNL     1      -8.651   2.688 124.594  0.00  0.00    +0.000 C 
ATOM      4  C   UNL     1      -7.830   1.416 124.628  0.00  0.00    +0.000 C 
ATOM      5  C   UNL     1      -7.589   0.806 126.023  0.00  0.00    +0.000 C 
ATOM      6  C   UNL     1      -6.987   1.976 126.845  0.00  0.00    +0.000 C 
ATOM      7  C   UNL     1      -7.877   3.229 126.755  0.00  0.00    +0.000 C 
ATOM      8  C   UNL     1      -7.835  -0.506 126.420  0.00  0.00    +0.000 C 
ATOM      9  C   UNL     1      -7.681  -0.746 127.855  0.00  0.00    +0.000 A 
ATOM     10  N   UNL     1      -7.454   0.209 128.732  0.00  0.00    +0.000 NA
ATOM     11  C   UNL     1      -7.256  -0.308 129.944  0.00  0.00    +0.000 A 
ATOM     12  C   UNL     1      -7.498  -1.658 129.920  0.00  0.00    +0.000 A 
ATOM     13  N   UNL     1      -7.775  -1.949 128.559  0.00  0.00    +0.000 N 
ATOM     14  C   UNL     1      -8.041  -3.260 127.989  0.00  0.00    +0.000 C 
ATOM     15  C   UNL     1      -9.144  -3.369 126.914  0.00  0.00    +0.000 C 
ATOM     16  C   UNL     1      -8.900  -2.747 125.557  0.00  0.00    +0.000 A 
ATOM     17  C   UNL     1      -9.332  -3.481 124.399  0.00  0.00    +0.000 A 
ATOM     18  C   UNL     1      -9.300  -2.958 123.099  0.00  0.00    +0.000 A 
ATOM     19  C   UNL     1      -8.721  -1.742 122.910  0.00  0.00    +0.000 A 
ATOM     20  C   UNL     1      -8.046  -1.220 124.001  0.00  0.00    +0.000 A 
ATOM     21  C   UNL     1      -8.290  -1.512 125.363  0.00  0.00    +0.000 A 
ENDROOT
BRANCH  12  22
ATOM     22  C   UNL     1      -7.455  -2.439 131.131  0.00  0.00    +0.000 C 
ATOM     23  O   UNL     1      -6.694  -3.415 131.285  0.00  0.00    +0.000 OA
ENDBRANCH  12  22
TORSDOF 1
ENDMDL
MODEL 3
REMARK VINA RESULT:      -7.3      2.573      5.024
REMARK  Name = Alcaftadine
REMARK  2 active torsions:
REMARK  status: ('A' for Active; 'I' for Inactive)
REMARK    1  A    between atoms: C_1  and  N_2
REMARK    2  A    between atoms: C_12  and  C_13
REMARK                            x       y       z     vdW  Elec       q    Type
REMARK                         _______ _______ _______ _____ _____    ______ ____
ROOT
ATOM      1  C   UNL     1      -8.712  -2.641 123.214  0.00  0.00    +0.000 C 
ATOM      2  N   UNL     1      -7.466  -2.356 123.932  0.00  0.00    +0.000 NA
ATOM      3  C   UNL     1      -6.647  -1.441 123.157  0.00  0.00    +0.000 C 
ATOM      4  C   UNL     1      -7.301  -0.085 123.007  0.00  0.00    +0.000 C 
ATOM      5  C   UNL     1      -7.622   0.658 124.319  0.00  0.00    +0.000 C 
ATOM      6  C   UNL     1      -8.455  -0.365 125.135  0.00  0.00    +0.000 C 
ATOM      7  C   UNL     1      -7.724  -1.716 125.237  0.00  0.00    +0.000 C 
ATOM      8  C   UNL     1      -7.261   1.960 124.658  0.00  0.00    +0.000 C 
ATOM      9  C   UNL     1      -7.546   2.329 126.044  0.00  0.00    +0.000 A 
ATOM     10  N   UNL     1      -7.990   1.479 126.947  0.00  0.00    +0.000 NA
ATOM     11  C   UNL     1      -8.258   2.110 128.090  0.00  0.00    +0.000 A 
ATOM     12  C   UNL     1      -7.849   3.416 128.008  0.00  0.00    +0.000 A 
ATOM     13  N   UNL     1      -7.384   3.565 126.675  0.00  0.00    +0.000 N 
ATOM     14  C   UNL     1      -6.893   4.787 126.059  0.00  0.00    +0.000 C 
ATOM     15  C   UNL     1      -5.670   4.682 125.122  0.00  0.00    +0.000 C 
ATOM     16  C   UNL     1      -5.834   3.987 123.789  0.00  0.00    +0.000 A 
ATOM     17  C   UNL     1      -5.184   4.572 122.648  0.00  0.00    +0.000 A 
ATOM     18  C   UNL     1      -5.133   3.954 121.390  0.00  0.00    +0.000 A 
ATOM     19  C   UNL     1      -5.833   2.803 121.211  0.00  0.00    +0.000 A 
ATOM     20  C   UNL     1      -6.688   2.451 122.242  0.00  0.00    +0.000 A 
ATOM     21  C   UNL     1      -6.567   2.819 123.602  0.00  0.00    +0.000 A 
ENDROOT
BRANCH  12  22
ATOM     22  C   UNL     1      -7.932   4.291 129.151  0.00  0.00    +0.000 C 
ATOM     23  O   UNL     1      -8.400   5.445 129.093  0.00  0.00    +0.000 OA
ENDBRANCH  12  22
TORSDOF 1
ENDMDL
MODEL 4
REMARK VINA RESULT:      -7.0      2.288      4.685
REMARK  Name = Alcaftadine
REMARK  2 active torsions:
REMARK  status: ('A' for Active; 'I' for Inactive)
REMARK    1  A    between atoms: C_1  and  N_2
REMARK    2  A    between atoms: C_12  and  C_13
REMARK                            x       y       z     vdW  Elec       q    Type
REMARK                         _______ _______ _______ _____ _____    ______ ____
ROOT
ATOM      1  C   UNL     1      -7.464   4.427 131.034  0.00  0.00    +0.000 C 
ATOM      2  N   UNL     1      -6.457   3.911 130.101  0.00  0.00    +0.000 NA
ATOM      3  C   UNL     1      -6.155   2.526 130.418  0.00  0.00    +0.000 C 
ATOM      4  C   UNL     1      -7.349   1.622 130.202  0.00  0.00    +0.000 C 
ATOM      5  C   UNL     1      -7.931   1.603 128.774  0.00  0.00    +0.000 C 
ATOM      6  C   UNL     1      -8.198   3.098 128.458  0.00  0.00    +0.000 C 
ATOM      7  C   UNL     1      -6.938   3.947 128.706  0.00  0.00    +0.000 C 
ATOM      8  C   UNL     1      -8.180   0.483 127.984  0.00  0.00    +0.000 C 
ATOM      9  C   UNL     1      -8.562   0.786 126.605  0.00  0.00    +0.000 A 
ATOM     10  N   UNL     1      -8.554   2.002 126.097  0.00  0.00    +0.000 NA
ATOM     11  C   UNL     1      -9.044   1.993 124.858  0.00  0.00    +0.000 A 
ATOM     12  C   UNL     1      -9.264   0.701 124.452  0.00  0.00    +0.000 A 
ATOM     13  N   UNL     1      -8.951  -0.090 125.589  0.00  0.00    +0.000 N 
ATOM     14  C   UNL     1      -9.074  -1.535 125.700  0.00  0.00    +0.000 C 
ATOM     15  C   UNL     1      -7.959  -2.299 126.446  0.00  0.00    +0.000 C 
ATOM     16  C   UNL     1      -7.832  -2.119 127.942  0.00  0.00    +0.000 A 
ATOM     17  C   UNL     1      -7.543  -3.286 128.732  0.00  0.00    +0.000 A 
ATOM     18  C   UNL     1      -7.257  -3.237 130.103  0.00  0.00    +0.000 A 
ATOM     19  C   UNL     1      -7.374  -2.042 130.742  0.00  0.00    +0.000 A 
ATOM     20  C   UNL     1      -7.953  -1.021 130.006  0.00  0.00    +0.000 A 
ATOM     21  C   UNL     1      -7.972  -0.900 128.598  0.00  0.00    +0.000 A 
ENDROOT
BRANCH  12  22
ATOM     22  C   UNL     1      -9.696   0.411 123.109  0.00  0.00    +0.000 C 
ATOM     23  O   UNL     1     -10.886   0.489 122.744  0.00  0.00    +0.000 OA
ENDBRANCH  12  22
TORSDOF 1
ENDMDL
MODEL 5
REMARK VINA RESULT:      -6.8      3.180      5.574
REMARK  Name = Alcaftadine
REMARK  2 active torsions:
REMARK  status: ('A' for Active; 'I' for Inactive)
REMARK    1  A    between atoms: C_1  and  N_2
REMARK    2  A    between atoms: C_12  and  C_13
REMARK                            x       y       z     vdW  Elec       q    Type
REMARK                         _______ _______ _______ _____ _____    ______ ____
ROOT
ATOM      1  C   UNL     1      -3.629   2.813 126.460  0.00  0.00    +0.000 C 
ATOM      2  N   UNL     1      -5.060   2.884 126.772  0.00  0.00    +0.000 NA
ATOM      3  C   UNL     1      -5.802   1.998 125.892  0.00  0.00    +0.000 C 
ATOM      4  C   UNL     1      -5.449   0.545 126.124  0.00  0.00    +0.000 C 
ATOM      5  C   UNL     1      -5.692   0.011 127.550  0.00  0.00    +0.000 C 
ATOM      6  C   UNL     1      -4.924   1.007 128.459  0.00  0.00    +0.000 C 
ATOM      7  C   UNL     1      -5.337   2.459 128.158  0.00  0.00    +0.000 C 
ATOM      8  C   UNL     1      -6.413  -1.125 127.911  0.00  0.00    +0.000 C 
ATOM      9  C   UNL     1      -6.628  -1.277 129.350  0.00  0.00    +0.000 A 
ATOM     10  N   UNL     1      -6.287  -0.365 130.237  0.00  0.00    +0.000 NA
ATOM     11  C   UNL     1      -6.505  -0.813 131.473  0.00  0.00    +0.000 A 
ATOM     12  C   UNL     1      -7.152  -2.022 131.424  0.00  0.00    +0.000 A 
ATOM     13  N   UNL     1      -7.234  -2.329 130.041  0.00  0.00    +0.000 N 
ATOM     14  C   UNL     1      -7.784  -3.540 129.453  0.00  0.00    +0.000 C 
ATOM     15  C   UNL     1      -8.630  -3.399 128.169  0.00  0.00    +0.000 C 
ATOM     16  C   UNL     1      -7.941  -2.998 126.884  0.00  0.00    +0.000 A 
ATOM     17  C   UNL     1      -8.346  -3.662 125.675  0.00  0.00    +0.000 A 
ATOM     18  C   UNL     1      -7.896  -3.286 124.401  0.00  0.00    +0.000 A 
ATOM     19  C   UNL     1      -6.937  -2.325 124.317  0.00  0.00    +0.000 A 
ATOM     20  C   UNL     1      -6.360  -1.943 125.517  0.00  0.00    +0.000 A 
ATOM     21  C   UNL     1      -6.945  -2.030 126.801  0.00  0.00    +0.000 A 
ENDROOT
BRANCH  12  22
ATOM     22  C   UNL     1      -7.597  -2.673 132.630  0.00  0.00    +0.000 C 
ATOM     23  O   UNL     1      -8.079  -2.055 133.600  0.00  0.00    +0.000 OA
ENDBRANCH  12  22
TORSDOF 1
ENDMDL
MODEL 6
REMARK VINA RESULT:      -6.8      1.946      4.438
REMARK  Name = Alcaftadine
REMARK  2 active torsions:
REMARK  status: ('A' for Active; 'I' for Inactive)
REMARK    1  A    between atoms: C_1  and  N_2
REMARK    2  A    between atoms: C_12  and  C_13
REMARK                            x       y       z     vdW  Elec       q    Type
REMARK                         _______ _______ _______ _____ _____    ______ ____
ROOT
ATOM      1  C   UNL     1      -5.762  -3.487 123.931  0.00  0.00    +0.000 C 
ATOM      2  N   UNL     1      -7.154  -3.045 124.067  0.00  0.00    +0.000 NA
ATOM      3  C   UNL     1      -7.576  -3.165 125.452  0.00  0.00    +0.000 C 
ATOM      4  C   UNL     1      -6.806  -2.232 126.361  0.00  0.00    +0.000 C 
ATOM      5  C   UNL     1      -6.906  -0.730 126.027  0.00  0.00    +0.000 C 
ATOM      6  C   UNL     1      -6.492  -0.651 124.533  0.00  0.00    +0.000 C 
ATOM      7  C   UNL     1      -7.318  -1.631 123.680  0.00  0.00    +0.000 C 
ATOM      8  C   UNL     1      -7.258   0.302 126.893  0.00  0.00    +0.000 C 
ATOM      9  C   UNL     1      -7.446   1.601 126.247  0.00  0.00    +0.000 A 
ATOM     10  N   UNL     1      -7.413   1.776 124.942  0.00  0.00    +0.000 NA
ATOM     11  C   UNL     1      -7.511   3.070 124.642  0.00  0.00    +0.000 A 
ATOM     12  C   UNL     1      -7.762   3.795 125.779  0.00  0.00    +0.000 A 
ATOM     13  N   UNL     1      -7.720   2.840 126.829  0.00  0.00    +0.000 N 
ATOM     14  C   UNL     1      -7.867   3.108 128.251  0.00  0.00    +0.000 C 
ATOM     15  C   UNL     1      -8.691   2.109 129.092  0.00  0.00    +0.000 C 
ATOM     16  C   UNL     1      -8.129   0.726 129.334  0.00  0.00    +0.000 A 
ATOM     17  C   UNL     1      -8.291   0.160 130.646  0.00  0.00    +0.000 A 
ATOM     18  C   UNL     1      -7.949  -1.162 130.963  0.00  0.00    +0.000 A 
ATOM     19  C   UNL     1      -7.324  -1.908 130.014  0.00  0.00    +0.000 A 
ATOM     20  C   UNL     1      -6.913  -1.223 128.883  0.00  0.00    +0.000 A 
ATOM     21  C   UNL     1      -7.470  -0.029 128.369  0.00  0.00    +0.000 A 
ENDROOT
BRANCH  12  22
ATOM     22  C   UNL     1      -8.014   5.212 125.714  0.00  0.00    +0.000 C 
ATOM     23  O   UNL     1      -9.085   5.731 126.086  0.00  0.00    +0.000 OA
ENDBRANCH  12  22
TORSDOF 1
ENDMDL
MODEL 7
REMARK VINA RESULT:      -6.8      6.472      7.780
REMARK  Name = Alcaftadine
REMARK  2 active torsions:
REMARK  status: ('A' for Active; 'I' for Inactive)
REMARK    1  A    between atoms: C_1  and  N_2
REMARK    2  A    between atoms: C_12  and  C_13
REMARK                            x       y       z     vdW  Elec       q    Type
REMARK                         _______ _______ _______ _____ _____    ______ ____
ROOT
ATOM      1  C   UNL     1      -3.415   6.541 132.061  0.00  0.00    +0.000 C 
ATOM      2  N   UNL     1      -3.895   6.025 130.775  0.00  0.00    +0.000 NA
ATOM      3  C   UNL     1      -4.426   4.684 130.948  0.00  0.00    +0.000 C 
ATOM      4  C   UNL     1      -5.657   4.673 131.829  0.00  0.00    +0.000 C 
ATOM      5  C   UNL     1      -6.843   5.528 131.341  0.00  0.00    +0.000 C 
ATOM      6  C   UNL     1      -6.227   6.935 131.125  0.00  0.00    +0.000 C 
ATOM      7  C   UNL     1      -4.980   6.859 130.224  0.00  0.00    +0.000 C 
ATOM      8  C   UNL     1      -8.163   5.115 131.172  0.00  0.00    +0.000 C 
ATOM      9  C   UNL     1      -9.028   6.099 130.520  0.00  0.00    +0.000 A 
ATOM     10  N   UNL     1      -8.589   7.233 130.014  0.00  0.00    +0.000 NA
ATOM     11  C   UNL     1      -9.607   7.974 129.579  0.00  0.00    +0.000 A 
ATOM     12  C   UNL     1     -10.774   7.258 129.661  0.00  0.00    +0.000 A 
ATOM     13  N   UNL     1     -10.402   6.034 130.275  0.00  0.00    +0.000 N 
ATOM     14  C   UNL     1     -11.290   4.943 130.642  0.00  0.00    +0.000 C 
ATOM     15  C   UNL     1     -10.798   3.499 130.400  0.00  0.00    +0.000 C 
ATOM     16  C   UNL     1      -9.667   2.964 131.250  0.00  0.00    +0.000 A 
ATOM     17  C   UNL     1      -9.764   1.606 131.710  0.00  0.00    +0.000 A 
ATOM     18  C   UNL     1      -8.725   0.943 132.379  0.00  0.00    +0.000 A 
ATOM     19  C   UNL     1      -7.617   1.657 132.712  0.00  0.00    +0.000 A 
ATOM     20  C   UNL     1      -7.705   3.026 132.525  0.00  0.00    +0.000 A 
ATOM     21  C   UNL     1      -8.544   3.702 131.609  0.00  0.00    +0.000 A 
ENDROOT
BRANCH  12  22
ATOM     22  C   UNL     1     -12.011   7.797 129.154  0.00  0.00    +0.000 C 
ATOM     23  O   UNL     1     -12.519   8.853 129.580  0.00  0.00    +0.000 OA
ENDBRANCH  12  22
TORSDOF 1
ENDMDL
MODEL 8
REMARK VINA RESULT:      -6.8      2.591      5.559
REMARK  Name = Alcaftadine
REMARK  2 active torsions:
REMARK  status: ('A' for Active; 'I' for Inactive)
REMARK    1  A    between atoms: C_1  and  N_2
REMARK    2  A    between atoms: C_12  and  C_13
REMARK                            x       y       z     vdW  Elec       q    Type
REMARK                         _______ _______ _______ _____ _____    ______ ____
ROOT
ATOM      1  C   UNL     1      -8.121  -0.347 124.008  0.00  0.00    +0.000 C 
ATOM      2  N   UNL     1      -9.281  -0.487 124.894  0.00  0.00    +0.000 NA
ATOM      3  C   UNL     1      -9.048  -1.556 125.848  0.00  0.00    +0.000 C 
ATOM      4  C   UNL     1      -7.906  -1.236 126.789  0.00  0.00    +0.000 C 
ATOM      5  C   UNL     1      -8.067   0.044 127.634  0.00  0.00    +0.000 C 
ATOM      6  C   UNL     1      -8.359   1.150 126.585  0.00  0.00    +0.000 C 
ATOM      7  C   UNL     1      -9.528   0.746 125.668  0.00  0.00    +0.000 C 
ATOM      8  C   UNL     1      -7.943   0.160 129.016  0.00  0.00    +0.000 C 
ATOM      9  C   UNL     1      -8.333   1.463 129.554  0.00  0.00    +0.000 A 
ATOM     10  N   UNL     1      -8.877   2.418 128.828  0.00  0.00    +0.000 NA
ATOM     11  C   UNL     1      -9.031   3.525 129.552  0.00  0.00    +0.000 A 
ATOM     12  C   UNL     1      -8.711   3.274 130.862  0.00  0.00    +0.000 A 
ATOM     13  N   UNL     1      -8.254   1.930 130.869  0.00  0.00    +0.000 N 
ATOM     14  C   UNL     1      -7.738   1.194 132.012  0.00  0.00    +0.000 C 
ATOM     15  C   UNL     1      -8.151  -0.286 132.164  0.00  0.00    +0.000 C 
ATOM     16  C   UNL     1      -7.612  -1.296 131.177  0.00  0.00    +0.000 A 
ATOM     17  C   UNL     1      -7.201  -2.575 131.688  0.00  0.00    +0.000 A 
ATOM     18  C   UNL     1      -6.822  -3.647 130.868  0.00  0.00    +0.000 A 
ATOM     19  C   UNL     1      -6.724  -3.429 129.530  0.00  0.00    +0.000 A 
ATOM     20  C   UNL     1      -6.826  -2.108 129.126  0.00  0.00    +0.000 A 
ATOM     21  C   UNL     1      -7.492  -1.065 129.810  0.00  0.00    +0.000 A 
ENDROOT
BRANCH  12  22
ATOM     22  C   UNL     1      -8.893   4.282 131.876  0.00  0.00    +0.000 C 
ATOM     23  O   UNL     1      -9.429   4.051 132.978  0.00  0.00    +0.000 OA
ENDBRANCH  12  22
TORSDOF 1
ENDMDL
MODEL 9
REMARK VINA RESULT:      -6.7      3.158      6.035
REMARK  Name = Alcaftadine
REMARK  2 active torsions:
REMARK  status: ('A' for Active; 'I' for Inactive)
REMARK    1  A    between atoms: C_1  and  N_2
REMARK    2  A    between atoms: C_12  and  C_13
REMARK                            x       y       z     vdW  Elec       q    Type
REMARK                         _______ _______ _______ _____ _____    ______ ____
ROOT
ATOM      1  C   UNL     1      -6.557   2.255 124.431  0.00  0.00    +0.000 C 
ATOM      2  N   UNL     1      -7.964   2.062 124.797  0.00  0.00    +0.000 NA
ATOM      3  C   UNL     1      -8.094   0.910 125.672  0.00  0.00    +0.000 C 
ATOM      4  C   UNL     1      -7.398   1.126 126.999  0.00  0.00    +0.000 C 
ATOM      5  C   UNL     1      -7.884   2.332 127.827  0.00  0.00    +0.000 C 
ATOM      6  C   UNL     1      -7.773   3.529 126.847  0.00  0.00    +0.000 C 
ATOM      7  C   UNL     1      -8.502   3.228 125.524  0.00  0.00    +0.000 C 
ATOM      8  C   UNL     1      -8.293   2.326 129.159  0.00  0.00    +0.000 C 
ATOM      9  C   UNL     1      -8.876   3.586 129.621  0.00  0.00    +0.000 A 
ATOM     10  N   UNL     1      -9.118   4.610 128.828  0.00  0.00    +0.000 NA
ATOM     11  C   UNL     1      -9.551   5.654 129.534  0.00  0.00    +0.000 A 
ATOM     12  C   UNL     1      -9.746   5.284 130.841  0.00  0.00    +0.000 A 
ATOM     13  N   UNL     1      -9.307   3.936 130.903  0.00  0.00    +0.000 N 
ATOM     14  C   UNL     1      -9.252   3.095 132.088  0.00  0.00    +0.000 C 
ATOM     15  C   UNL     1      -9.670   1.616 131.943  0.00  0.00    +0.000 C 
ATOM     16  C   UNL     1      -8.783   0.684 131.149  0.00  0.00    +0.000 A 
ATOM     17  C   UNL     1      -8.578  -0.643 131.664  0.00  0.00    +0.000 A 
ATOM     18  C   UNL     1      -7.902  -1.648 130.958  0.00  0.00    +0.000 A 
ATOM     19  C   UNL     1      -7.308  -1.317 129.781  0.00  0.00    +0.000 A 
ATOM     20  C   UNL     1      -7.269   0.035 129.485  0.00  0.00    +0.000 A 
ATOM     21  C   UNL     1      -8.159   1.029 129.955  0.00  0.00    +0.000 A 
ENDROOT
BRANCH  12  22
ATOM     22  C   UNL     1     -10.312   6.205 131.794  0.00  0.00    +0.000 C 
ATOM     23  O   UNL     1      -9.768   6.480 132.882  0.00  0.00    +0.000 OA
ENDBRANCH  12  22
TORSDOF 1
ENDMDL
