MODEL 1
REMARK VINA RESULT:      -8.3      0.000      0.000
REMARK  Name = Alclometasone
REMARK  8 active torsions:
REMARK  status: ('A' for Active; 'I' for Inactive)
REMARK    1  A    between atoms: C_4  and  C_5
REMARK    2  A    between atoms: C_6  and  O_7
REMARK    3  A    between atoms: C_6  and  C_8
REMARK    4  A    between atoms: C_8  and  C_10
REMARK    5  A    between atoms: C_10  and  O_11
REMARK    6  A    between atoms: C_12  and  C_13
REMARK    7  A    between atoms: C_15  and  O_16
REMARK    8  A    between atoms: C_30  and  C_31
REMARK                            x       y       z     vdW  Elec       q    Type
REMARK                         _______ _______ _______ _____ _____    ______ ____
ROOT
ATOM      1  C   UNL     1     -11.199   5.342 131.324  0.00  0.00    +0.000 C 
ATOM      2  C   UNL     1     -10.605   5.983 132.441  0.00  0.00    +0.000 C 
ATOM      3  C   UNL     1      -9.838   6.383 131.182  0.00  0.00    +0.000 C 
ATOM      4  C   UNL     1      -8.047   6.818 131.456  0.00  0.00    +0.000 C 
ATOM      5  C   UNL     1     -10.997   6.046 129.461  0.00  0.00    +0.000 C 
ATOM      6  C   UNL     1     -11.229   6.973 130.395  0.00  0.00    +0.000 C 
ATOM      7  C   UNL     1     -12.394   7.821 130.705  0.00  0.00    +0.000 C 
ATOM      8  C   UNL     1      -9.700   7.538 129.485  0.00  0.00    +0.000 C 
ATOM      9  C   UNL     1      -8.765   6.065 128.971  0.00  0.00    +0.000 C 
ATOM     10  C   UNL     1      -8.637   4.699 130.052  0.00  0.00    +0.000 C 
ATOM     11  C   UNL     1     -10.061   4.123 130.652  0.00  0.00    +0.000 C 
ATOM     12  C   UNL     1      -9.793   3.028 131.711  0.00  0.00    +0.000 C 
ATOM     13 CL   UNL     1      -9.050   3.504 133.280  0.00  0.00    +0.000 Cl
ATOM     14  C   UNL     1      -8.819   1.990 131.185  0.00  0.00    +0.000 C 
ATOM     15  C   UNL     1      -7.505   2.511 130.652  0.00  0.00    +0.000 C 
ATOM     16  C   UNL     1      -6.303   2.011 130.994  0.00  0.00    +0.000 C 
ATOM     17  C   UNL     1      -5.176   2.594 130.219  0.00  0.00    +0.000 C 
ATOM     18  O   UNL     1      -4.562   2.085 129.290  0.00  0.00    +0.000 OA
ATOM     19  C   UNL     1      -4.953   4.036 130.573  0.00  0.00    +0.000 C 
ATOM     20  C   UNL     1      -6.037   4.382 129.823  0.00  0.00    +0.000 C 
ATOM     21  C   UNL     1      -7.523   3.676 129.664  0.00  0.00    +0.000 C 
ATOM     22  C   UNL     1      -8.051   3.093 128.351  0.00  0.00    +0.000 C 
ENDROOT
BRANCH   5  23
ATOM     23  O   UNL     1     -12.303   5.224 129.469  0.00  0.00    +0.000 OA
ATOM     24  H   UNL     1     -12.219   4.279 129.665  0.00  0.00    +0.000 HD
ENDBRANCH   5  23
BRANCH   5  25
ATOM     25  C   UNL     1     -11.673   7.029 128.003  0.00  0.00    +0.000 C 
ATOM     26  O   UNL     1     -12.704   6.704 127.384  0.00  0.00    +0.000 OA
BRANCH  25  27
ATOM     27  C   UNL     1     -10.962   8.297 127.275  0.00  0.00    +0.000 C 
BRANCH  27  28
ATOM     28  O   UNL     1     -10.624   7.998 125.884  0.00  0.00    +0.000 OA
ATOM     29  H   UNL     1     -10.124   7.157 125.859  0.00  0.00    +0.000 HD
ENDBRANCH  27  28
ENDBRANCH  25  27
ENDBRANCH   5  25
BRANCH   9  30
ATOM     30  O   UNL     1      -9.379   5.622 127.739  0.00  0.00    +0.000 OA
ATOM     31  H   UNL     1     -10.263   5.247 127.916  0.00  0.00    +0.000 HD
ENDBRANCH   9  30
TORSDOF 5
ENDMDL
MODEL 2
REMARK VINA RESULT:      -8.0      2.864      4.668
REMARK  Name = Alclometasone
REMARK  8 active torsions:
REMARK  status: ('A' for Active; 'I' for Inactive)
REMARK    1  A    between atoms: C_4  and  C_5
REMARK    2  A    between atoms: C_6  and  O_7
REMARK    3  A    between atoms: C_6  and  C_8
REMARK    4  A    between atoms: C_8  and  C_10
REMARK    5  A    between atoms: C_10  and  O_11
REMARK    6  A    between atoms: C_12  and  C_13
REMARK    7  A    between atoms: C_15  and  O_16
REMARK    8  A    between atoms: C_30  and  C_31
REMARK                            x       y       z     vdW  Elec       q    Type
REMARK                         _______ _______ _______ _____ _____    ______ ____
ROOT
ATOM      1  C   UNL     1      -7.178   3.478 129.949  0.00  0.00    +0.000 C 
ATOM      2  C   UNL     1      -7.088   2.624 131.077  0.00  0.00    +0.000 C 
ATOM      3  C   UNL     1      -7.312   4.055 131.564  0.00  0.00    +0.000 C 
ATOM      4  C   UNL     1      -6.622   4.429 133.254  0.00  0.00    +0.000 C 
ATOM      5  C   UNL     1      -8.103   5.251 130.027  0.00  0.00    +0.000 C 
ATOM      6  C   UNL     1      -8.737   4.254 130.652  0.00  0.00    +0.000 C 
ATOM      7  C   UNL     1      -9.970   3.502 130.355  0.00  0.00    +0.000 C 
ATOM      8  C   UNL     1      -8.592   5.629 131.906  0.00  0.00    +0.000 C 
ATOM      9  C   UNL     1      -7.034   6.517 131.601  0.00  0.00    +0.000 C 
ATOM     10  C   UNL     1      -5.596   5.623 131.172  0.00  0.00    +0.000 C 
ATOM     11  C   UNL     1      -5.753   4.576 129.908  0.00  0.00    +0.000 C 
ATOM     12  C   UNL     1      -4.464   3.739 129.740  0.00  0.00    +0.000 C 
ATOM     13 CL   UNL     1      -4.046   2.526 131.003  0.00  0.00    +0.000 Cl
ATOM     14  C   UNL     1      -3.236   4.632 129.721  0.00  0.00    +0.000 C 
ATOM     15  C   UNL     1      -3.078   5.580 130.887  0.00  0.00    +0.000 C 
ATOM     16  C   UNL     1      -1.939   5.722 131.592  0.00  0.00    +0.000 C 
ATOM     17  C   UNL     1      -1.992   6.825 132.588  0.00  0.00    +0.000 C 
ATOM     18  O   UNL     1      -1.487   7.936 132.504  0.00  0.00    +0.000 OA
ATOM     19  C   UNL     1      -2.939   6.507 133.709  0.00  0.00    +0.000 C 
ATOM     20  C   UNL     1      -3.992   6.794 132.894  0.00  0.00    +0.000 C 
ATOM     21  C   UNL     1      -4.271   6.437 131.305  0.00  0.00    +0.000 C 
ATOM     22  C   UNL     1      -4.420   7.495 130.209  0.00  0.00    +0.000 C 
ENDROOT
BRANCH   5  23
ATOM     23  O   UNL     1      -8.150   4.810 128.550  0.00  0.00    +0.000 OA
ATOM     24  H   UNL     1      -8.958   5.023 128.059  0.00  0.00    +0.000 HD
ENDBRANCH   5  23
BRANCH   5  25
ATOM     25  C   UNL     1      -9.626   6.317 129.713  0.00  0.00    +0.000 C 
ATOM     26  O   UNL     1      -9.796   6.965 128.663  0.00  0.00    +0.000 OA
BRANCH  25  27
ATOM     27  C   UNL     1     -10.810   6.651 130.774  0.00  0.00    +0.000 C 
BRANCH  27  28
ATOM     28  O   UNL     1     -12.127   6.322 130.231  0.00  0.00    +0.000 OA
ATOM     29  H   UNL     1     -12.336   6.955 129.515  0.00  0.00    +0.000 HD
ENDBRANCH  27  28
ENDBRANCH  25  27
ENDBRANCH   5  25
BRANCH   9  30
ATOM     30  O   UNL     1      -7.322   7.462 130.545  0.00  0.00    +0.000 OA
ATOM     31  H   UNL     1      -7.346   8.370 130.900  0.00  0.00    +0.000 HD
ENDBRANCH   9  30
TORSDOF 5
ENDMDL
MODEL 3
REMARK VINA RESULT:      -8.0      5.683      7.776
REMARK  Name = Alclometasone
REMARK  8 active torsions:
REMARK  status: ('A' for Active; 'I' for Inactive)
REMARK    1  A    between atoms: C_4  and  C_5
REMARK    2  A    between atoms: C_6  and  O_7
REMARK    3  A    between atoms: C_6  and  C_8
REMARK    4  A    between atoms: C_8  and  C_10
REMARK    5  A    between atoms: C_10  and  O_11
REMARK    6  A    between atoms: C_12  and  C_13
REMARK    7  A    between atoms: C_15  and  O_16
REMARK    8  A    between atoms: C_30  and  C_31
REMARK                            x       y       z     vdW  Elec       q    Type
REMARK                         _______ _______ _______ _____ _____    ______ ____
ROOT
ATOM      1  C   UNL     1      -8.225   1.399 126.041  0.00  0.00    +0.000 C 
ATOM      2  C   UNL     1      -6.988   2.092 125.992  0.00  0.00    +0.000 C 
ATOM      3  C   UNL     1      -6.756   0.644 125.563  0.00  0.00    +0.000 C 
ATOM      4  C   UNL     1      -5.043  -0.010 125.895  0.00  0.00    +0.000 C 
ATOM      5  C   UNL     1      -8.561  -0.260 124.974  0.00  0.00    +0.000 C 
ATOM      6  C   UNL     1      -7.919   0.714 124.321  0.00  0.00    +0.000 C 
ATOM      7  C   UNL     1      -8.314   1.626 123.231  0.00  0.00    +0.000 C 
ATOM      8  C   UNL     1      -6.867  -0.813 124.116  0.00  0.00    +0.000 C 
ATOM      9  C   UNL     1      -7.021  -1.819 125.624  0.00  0.00    +0.000 C 
ATOM     10  C   UNL     1      -7.065  -1.038 127.186  0.00  0.00    +0.000 C 
ATOM     11  C   UNL     1      -8.175   0.169 127.353  0.00  0.00    +0.000 C 
ATOM     12  C   UNL     1      -7.998   0.877 128.716  0.00  0.00    +0.000 C 
ATOM     13 CL   UNL     1      -6.522   1.871 128.992  0.00  0.00    +0.000 Cl
ATOM     14  C   UNL     1      -7.931  -0.133 129.847  0.00  0.00    +0.000 C 
ATOM     15  C   UNL     1      -6.903  -1.231 129.708  0.00  0.00    +0.000 C 
ATOM     16  C   UNL     1      -6.040  -1.582 130.680  0.00  0.00    +0.000 C 
ATOM     17  C   UNL     1      -5.234  -2.788 130.352  0.00  0.00    +0.000 C 
ATOM     18  O   UNL     1      -5.386  -3.927 130.770  0.00  0.00    +0.000 OA
ATOM     19  C   UNL     1      -4.259  -2.512 129.244  0.00  0.00    +0.000 C 
ATOM     20  C   UNL     1      -5.276  -2.581 128.339  0.00  0.00    +0.000 C 
ATOM     21  C   UNL     1      -6.822  -2.000 128.391  0.00  0.00    +0.000 C 
ATOM     22  C   UNL     1      -8.067  -2.891 128.360  0.00  0.00    +0.000 C 
ENDROOT
BRANCH   5  23
ATOM     23  O   UNL     1      -9.946   0.365 125.239  0.00  0.00    +0.000 OA
ATOM     24  H   UNL     1     -10.407   0.072 126.039  0.00  0.00    +0.000 HD
ENDBRANCH   5  23
BRANCH   5  25
ATOM     25  C   UNL     1      -9.280  -1.107 123.453  0.00  0.00    +0.000 C 
ATOM     26  O   UNL     1     -10.124  -0.570 122.711  0.00  0.00    +0.000 OA
BRANCH  25  27
ATOM     27  C   UNL     1      -9.032  -2.646 122.992  0.00  0.00    +0.000 C 
BRANCH  27  28
ATOM     28  O   UNL     1     -10.129  -3.516 123.411  0.00  0.00    +0.000 OA
ATOM     29  H   UNL     1      -9.919  -4.434 123.142  0.00  0.00    +0.000 HD
ENDBRANCH  27  28
ENDBRANCH  25  27
ENDBRANCH   5  25
BRANCH   9  30
ATOM     30  O   UNL     1      -8.235  -2.588 125.459  0.00  0.00    +0.000 OA
ATOM     31  H   UNL     1      -8.521  -2.957 126.316  0.00  0.00    +0.000 HD
ENDBRANCH   9  30
TORSDOF 5
ENDMDL
MODEL 4
REMARK VINA RESULT:      -7.8      4.690      6.833
REMARK  Name = Alclometasone
REMARK  8 active torsions:
REMARK  status: ('A' for Active; 'I' for Inactive)
REMARK    1  A    between atoms: C_4  and  C_5
REMARK    2  A    between atoms: C_6  and  O_7
REMARK    3  A    between atoms: C_6  and  C_8
REMARK    4  A    between atoms: C_8  and  C_10
REMARK    5  A    between atoms: C_10  and  O_11
REMARK    6  A    between atoms: C_12  and  C_13
REMARK    7  A    between atoms: C_15  and  O_16
REMARK    8  A    between atoms: C_30  and  C_31
REMARK                            x       y       z     vdW  Elec       q    Type
REMARK                         _______ _______ _______ _____ _____    ______ ____
ROOT
ATOM      1  C   UNL     1      -6.540   0.101 129.512  0.00  0.00    +0.000 C 
ATOM      2  C   UNL     1      -5.156   0.099 129.203  0.00  0.00    +0.000 C 
ATOM      3  C   UNL     1      -5.880   0.991 128.197  0.00  0.00    +0.000 C 
ATOM      4  C   UNL     1      -5.061   1.122 126.529  0.00  0.00    +0.000 C 
ATOM      5  C   UNL     1      -7.757   1.582 128.938  0.00  0.00    +0.000 C 
ATOM      6  C   UNL     1      -6.569   1.975 129.405  0.00  0.00    +0.000 C 
ATOM      7  C   UNL     1      -6.148   2.655 130.645  0.00  0.00    +0.000 C 
ATOM      8  C   UNL     1      -6.755   2.796 127.740  0.00  0.00    +0.000 C 
ATOM      9  C   UNL     1      -7.694   1.677 126.655  0.00  0.00    +0.000 C 
ATOM     10  C   UNL     1      -7.390  -0.042 126.710  0.00  0.00    +0.000 C 
ATOM     11  C   UNL     1      -7.451  -0.734 128.205  0.00  0.00    +0.000 C 
ATOM     12  C   UNL     1      -7.007  -2.213 128.131  0.00  0.00    +0.000 C 
ATOM     13 CL   UNL     1      -5.282  -2.583 127.769  0.00  0.00    +0.000 Cl
ATOM     14  C   UNL     1      -7.741  -2.946 127.024  0.00  0.00    +0.000 C 
ATOM     15  C   UNL     1      -7.673  -2.326 125.648  0.00  0.00    +0.000 C 
ATOM     16  C   UNL     1      -7.362  -3.009 124.529  0.00  0.00    +0.000 C 
ATOM     17  C   UNL     1      -7.511  -2.208 123.285  0.00  0.00    +0.000 C 
ATOM     18  O   UNL     1      -8.415  -2.261 122.463  0.00  0.00    +0.000 OA
ATOM     19  C   UNL     1      -6.478  -1.121 123.205  0.00  0.00    +0.000 C 
ATOM     20  C   UNL     1      -7.185  -0.390 124.112  0.00  0.00    +0.000 C 
ATOM     21  C   UNL     1      -7.969  -0.835 125.497  0.00  0.00    +0.000 C 
ATOM     22  C   UNL     1      -9.480  -0.695 125.701  0.00  0.00    +0.000 C 
ENDROOT
BRANCH   5  23
ATOM     23  O   UNL     1      -8.415   0.945 130.179  0.00  0.00    +0.000 OA
ATOM     24  H   UNL     1      -8.783   0.055 130.065  0.00  0.00    +0.000 HD
ENDBRANCH   5  23
BRANCH   5  25
ATOM     25  C   UNL     1      -8.682   3.179 129.318  0.00  0.00    +0.000 C 
ATOM     26  O   UNL     1      -9.865   3.202 129.709  0.00  0.00    +0.000 OA
BRANCH  25  27
ATOM     27  C   UNL     1      -8.150   4.693 129.060  0.00  0.00    +0.000 C 
BRANCH  27  28
ATOM     28  O   UNL     1      -9.034   5.427 128.156  0.00  0.00    +0.000 OA
ATOM     29  H   UNL     1      -9.714   5.885 128.691  0.00  0.00    +0.000 HD
ENDBRANCH  27  28
ENDBRANCH  25  27
ENDBRANCH   5  25
BRANCH   9  30
ATOM     30  O   UNL     1      -9.088   1.909 126.966  0.00  0.00    +0.000 OA
ATOM     31  H   UNL     1      -9.268   2.866 127.021  0.00  0.00    +0.000 HD
ENDBRANCH   9  30
TORSDOF 5
ENDMDL
MODEL 5
REMARK VINA RESULT:      -7.7      2.009      6.317
REMARK  Name = Alclometasone
REMARK  8 active torsions:
REMARK  status: ('A' for Active; 'I' for Inactive)
REMARK    1  A    between atoms: C_4  and  C_5
REMARK    2  A    between atoms: C_6  and  O_7
REMARK    3  A    between atoms: C_6  and  C_8
REMARK    4  A    between atoms: C_8  and  C_10
REMARK    5  A    between atoms: C_10  and  O_11
REMARK    6  A    between atoms: C_12  and  C_13
REMARK    7  A    between atoms: C_15  and  O_16
REMARK    8  A    between atoms: C_30  and  C_31
REMARK                            x       y       z     vdW  Elec       q    Type
REMARK                         _______ _______ _______ _____ _____    ______ ____
ROOT
ATOM      1  C   UNL     1      -6.256   2.783 132.293  0.00  0.00    +0.000 C 
ATOM      2  C   UNL     1      -7.179   1.707 132.266  0.00  0.00    +0.000 C 
ATOM      3  C   UNL     1      -7.207   2.410 130.910  0.00  0.00    +0.000 C 
ATOM      4  C   UNL     1      -8.825   2.288 129.994  0.00  0.00    +0.000 C 
ATOM      5  C   UNL     1      -5.464   3.550 130.623  0.00  0.00    +0.000 C 
ATOM      6  C   UNL     1      -5.534   2.216 130.655  0.00  0.00    +0.000 C 
ATOM      7  C   UNL     1      -4.516   1.157 130.782  0.00  0.00    +0.000 C 
ATOM      8  C   UNL     1      -6.360   2.729 129.062  0.00  0.00    +0.000 C 
ATOM      9  C   UNL     1      -7.188   4.325 129.337  0.00  0.00    +0.000 C 
ATOM     10  C   UNL     1      -8.021   4.621 130.844  0.00  0.00    +0.000 C 
ATOM     11  C   UNL     1      -7.147   4.344 132.213  0.00  0.00    +0.000 C 
ATOM     12  C   UNL     1      -8.047   4.487 133.463  0.00  0.00    +0.000 C 
ATOM     13 CL   UNL     1      -9.334   3.262 133.750  0.00  0.00    +0.000 Cl
ATOM     14  C   UNL     1      -8.831   5.786 133.421  0.00  0.00    +0.000 C 
ATOM     15  C   UNL     1      -9.649   6.037 132.175  0.00  0.00    +0.000 C 
ATOM     16  C   UNL     1     -10.939   6.421 132.187  0.00  0.00    +0.000 C 
ATOM     17  C   UNL     1     -11.473   6.748 130.838  0.00  0.00    +0.000 C 
ATOM     18  O   UNL     1     -11.670   7.856 130.358  0.00  0.00    +0.000 OA
ATOM     19  C   UNL     1     -11.589   5.521 129.981  0.00  0.00    +0.000 C 
ATOM     20  C   UNL     1     -10.241   5.542 129.778  0.00  0.00    +0.000 C 
ATOM     21  C   UNL     1      -8.988   5.847 130.811  0.00  0.00    +0.000 C 
ATOM     22  C   UNL     1      -8.024   7.025 130.655  0.00  0.00    +0.000 C 
ENDROOT
BRANCH   5  23
ATOM     23  O   UNL     1      -4.464   3.865 131.753  0.00  0.00    +0.000 OA
ATOM     24  H   UNL     1      -3.574   3.492 131.661  0.00  0.00    +0.000 HD
ENDBRANCH   5  23
BRANCH   5  25
ATOM     25  C   UNL     1      -4.044   3.666 129.390  0.00  0.00    +0.000 C 
ATOM     26  O   UNL     1      -3.096   4.464 129.519  0.00  0.00    +0.000 OA
BRANCH  25  27
ATOM     27  C   UNL     1      -3.928   2.887 127.968  0.00  0.00    +0.000 C 
BRANCH  27  28
ATOM     28  O   UNL     1      -2.535   2.621 127.613  0.00  0.00    +0.000 OA
ATOM     29  H   UNL     1      -2.487   1.746 127.177  0.00  0.00    +0.000 HD
ENDBRANCH  27  28
ENDBRANCH  25  27
ENDBRANCH   5  25
BRANCH   9  30
ATOM     30  O   UNL     1      -6.162   5.332 129.172  0.00  0.00    +0.000 OA
ATOM     31  H   UNL     1      -6.049   5.839 129.998  0.00  0.00    +0.000 HD
ENDBRANCH   9  30
TORSDOF 5
ENDMDL
MODEL 6
REMARK VINA RESULT:      -7.6      3.445      5.911
REMARK  Name = Alclometasone
REMARK  8 active torsions:
REMARK  status: ('A' for Active; 'I' for Inactive)
REMARK    1  A    between atoms: C_4  and  C_5
REMARK    2  A    between atoms: C_6  and  O_7
REMARK    3  A    between atoms: C_6  and  C_8
REMARK    4  A    between atoms: C_8  and  C_10
REMARK    5  A    between atoms: C_10  and  O_11
REMARK    6  A    between atoms: C_12  and  C_13
REMARK    7  A    between atoms: C_15  and  O_16
REMARK    8  A    between atoms: C_30  and  C_31
REMARK                            x       y       z     vdW  Elec       q    Type
REMARK                         _______ _______ _______ _____ _____    ______ ____
ROOT
ATOM      1  C   UNL     1      -3.951   4.479 128.394  0.00  0.00    +0.000 C 
ATOM      2  C   UNL     1      -3.390   3.301 128.950  0.00  0.00    +0.000 C 
ATOM      3  C   UNL     1      -4.912   3.192 129.008  0.00  0.00    +0.000 C 
ATOM      4  C   UNL     1      -5.572   2.127 130.387  0.00  0.00    +0.000 C 
ATOM      5  C   UNL     1      -5.810   4.526 127.654  0.00  0.00    +0.000 C 
ATOM      6  C   UNL     1      -5.100   3.440 127.333  0.00  0.00    +0.000 C 
ATOM      7  C   UNL     1      -4.493   2.969 126.074  0.00  0.00    +0.000 C 
ATOM      8  C   UNL     1      -6.697   2.806 128.061  0.00  0.00    +0.000 C 
ATOM      9  C   UNL     1      -7.240   3.971 129.348  0.00  0.00    +0.000 C 
ATOM     10  C   UNL     1      -6.062   4.690 130.418  0.00  0.00    +0.000 C 
ATOM     11  C   UNL     1      -4.778   5.420 129.685  0.00  0.00    +0.000 C 
ATOM     12  C   UNL     1      -3.741   5.868 130.741  0.00  0.00    +0.000 C 
ATOM     13 CL   UNL     1      -2.818   4.609 131.638  0.00  0.00    +0.000 Cl
ATOM     14  C   UNL     1      -4.406   6.649 131.859  0.00  0.00    +0.000 C 
ATOM     15  C   UNL     1      -5.572   5.977 132.546  0.00  0.00    +0.000 C 
ATOM     16  C   UNL     1      -5.705   5.884 133.883  0.00  0.00    +0.000 C 
ATOM     17  C   UNL     1      -7.010   5.313 134.311  0.00  0.00    +0.000 C 
ATOM     18  O   UNL     1      -7.978   5.910 134.760  0.00  0.00    +0.000 OA
ATOM     19  C   UNL     1      -7.118   3.859 133.951  0.00  0.00    +0.000 C 
ATOM     20  C   UNL     1      -7.357   4.204 132.654  0.00  0.00    +0.000 C 
ATOM     21  C   UNL     1      -6.674   5.359 131.690  0.00  0.00    +0.000 C 
ATOM     22  C   UNL     1      -7.448   6.541 131.101  0.00  0.00    +0.000 C 
ENDROOT
BRANCH   5  23
ATOM     23  O   UNL     1      -5.038   5.657 126.944  0.00  0.00    +0.000 OA
ATOM     24  H   UNL     1      -4.333   6.086 127.452  0.00  0.00    +0.000 HD
ENDBRANCH   5  23
BRANCH   5  25
ATOM     25  C   UNL     1      -6.986   4.461 126.183  0.00  0.00    +0.000 C 
ATOM     26  O   UNL     1      -7.302   5.469 125.522  0.00  0.00    +0.000 OA
BRANCH  25  27
ATOM     27  C   UNL     1      -7.839   3.173 125.679  0.00  0.00    +0.000 C 
BRANCH  27  28
ATOM     28  O   UNL     1      -9.128   3.569 125.114  0.00  0.00    +0.000 OA
ATOM     29  H   UNL     1      -8.999   3.786 124.168  0.00  0.00    +0.000 HD
ENDBRANCH  27  28
ENDBRANCH  25  27
ENDBRANCH   5  25
BRANCH   9  30
ATOM     30  O   UNL     1      -7.936   5.029 128.650  0.00  0.00    +0.000 OA
ATOM     31  H   UNL     1      -7.828   4.927 127.685  0.00  0.00    +0.000 HD
ENDBRANCH   9  30
TORSDOF 5
ENDMDL
MODEL 7
REMARK VINA RESULT:      -7.5      3.541      5.990
REMARK  Name = Alclometasone
REMARK  8 active torsions:
REMARK  status: ('A' for Active; 'I' for Inactive)
REMARK    1  A    between atoms: C_4  and  C_5
REMARK    2  A    between atoms: C_6  and  O_7
REMARK    3  A    between atoms: C_6  and  C_8
REMARK    4  A    between atoms: C_8  and  C_10
REMARK    5  A    between atoms: C_10  and  O_11
REMARK    6  A    between atoms: C_12  and  C_13
REMARK    7  A    between atoms: C_15  and  O_16
REMARK    8  A    between atoms: C_30  and  C_31
REMARK                            x       y       z     vdW  Elec       q    Type
REMARK                         _______ _______ _______ _____ _____    ______ ____
ROOT
ATOM      1  C   UNL     1      -6.234   3.060 127.723  0.00  0.00    +0.000 C 
ATOM      2  C   UNL     1      -5.309   1.986 127.756  0.00  0.00    +0.000 C 
ATOM      3  C   UNL     1      -5.669   2.365 129.191  0.00  0.00    +0.000 C 
ATOM      4  C   UNL     1      -4.348   2.005 130.455  0.00  0.00    +0.000 C 
ATOM      5  C   UNL     1      -7.469   3.449 129.248  0.00  0.00    +0.000 C 
ATOM      6  C   UNL     1      -7.341   2.156 128.939  0.00  0.00    +0.000 C 
ATOM      7  C   UNL     1      -8.246   1.175 128.314  0.00  0.00    +0.000 C 
ATOM      8  C   UNL     1      -6.987   2.279 130.768  0.00  0.00    +0.000 C 
ATOM      9  C   UNL     1      -6.180   3.878 131.086  0.00  0.00    +0.000 C 
ATOM     10  C   UNL     1      -4.990   4.487 129.962  0.00  0.00    +0.000 C 
ATOM     11  C   UNL     1      -5.458   4.544 128.383  0.00  0.00    +0.000 C 
ATOM     12  C   UNL     1      -4.266   4.945 127.483  0.00  0.00    +0.000 C 
ATOM     13 CL   UNL     1      -2.901   3.787 127.285  0.00  0.00    +0.000 Cl
ATOM     14  C   UNL     1      -3.573   6.183 128.021  0.00  0.00    +0.000 C 
ATOM     15  C   UNL     1      -3.125   6.129 129.463  0.00  0.00    +0.000 C 
ATOM     16  C   UNL     1      -1.894   6.478 129.882  0.00  0.00    +0.000 C 
ATOM     17  C   UNL     1      -1.750   6.482 131.362  0.00  0.00    +0.000 C 
ATOM     18  O   UNL     1      -1.731   7.450 132.111  0.00  0.00    +0.000 OA
ATOM     19  C   UNL     1      -1.817   5.092 131.924  0.00  0.00    +0.000 C 
ATOM     20  C   UNL     1      -3.170   5.096 131.759  0.00  0.00    +0.000 C 
ATOM     21  C   UNL     1      -4.115   5.652 130.523  0.00  0.00    +0.000 C 
ATOM     22  C   UNL     1      -5.132   6.786 130.675  0.00  0.00    +0.000 C 
ENDROOT
BRANCH   5  23
ATOM     23  O   UNL     1      -8.146   4.032 127.991  0.00  0.00    +0.000 OA
ATOM     24  H   UNL     1      -8.744   4.783 128.129  0.00  0.00    +0.000 HD
ENDBRANCH   5  23
BRANCH   5  25
ATOM     25  C   UNL     1      -9.169   3.316 130.051  0.00  0.00    +0.000 C 
ATOM     26  O   UNL     1     -10.092   4.123 129.825  0.00  0.00    +0.000 OA
BRANCH  25  27
ATOM     27  C   UNL     1      -9.613   2.271 131.213  0.00  0.00    +0.000 C 
BRANCH  27  28
ATOM     28  O   UNL     1     -10.032   2.966 132.429  0.00  0.00    +0.000 OA
ATOM     29  H   UNL     1     -10.281   3.883 132.193  0.00  0.00    +0.000 HD
ENDBRANCH  27  28
ENDBRANCH  25  27
ENDBRANCH   5  25
BRANCH   9  30
ATOM     30  O   UNL     1      -7.252   4.844 131.191  0.00  0.00    +0.000 OA
ATOM     31  H   UNL     1      -6.895   5.721 131.424  0.00  0.00    +0.000 HD
ENDBRANCH   9  30
TORSDOF 5
ENDMDL
MODEL 8
REMARK VINA RESULT:      -7.5      3.630      6.453
REMARK  Name = Alclometasone
REMARK  8 active torsions:
REMARK  status: ('A' for Active; 'I' for Inactive)
REMARK    1  A    between atoms: C_4  and  C_5
REMARK    2  A    between atoms: C_6  and  O_7
REMARK    3  A    between atoms: C_6  and  C_8
REMARK    4  A    between atoms: C_8  and  C_10
REMARK    5  A    between atoms: C_10  and  O_11
REMARK    6  A    between atoms: C_12  and  C_13
REMARK    7  A    between atoms: C_15  and  O_16
REMARK    8  A    between atoms: C_30  and  C_31
REMARK                            x       y       z     vdW  Elec       q    Type
REMARK                         _______ _______ _______ _____ _____    ______ ____
ROOT
ATOM      1  C   UNL     1      -3.862   5.437 129.054  0.00  0.00    +0.000 C 
ATOM      2  C   UNL     1      -2.862   5.168 130.022  0.00  0.00    +0.000 C 
ATOM      3  C   UNL     1      -3.738   3.927 129.866  0.00  0.00    +0.000 C 
ATOM      4  C   UNL     1      -3.845   2.844 131.379  0.00  0.00    +0.000 C 
ATOM      5  C   UNL     1      -4.790   3.978 128.047  0.00  0.00    +0.000 C 
ATOM      6  C   UNL     1      -3.471   3.818 128.188  0.00  0.00    +0.000 C 
ATOM      7  C   UNL     1      -2.340   3.899 127.245  0.00  0.00    +0.000 C 
ATOM      8  C   UNL     1      -4.242   2.237 128.808  0.00  0.00    +0.000 C 
ATOM      9  C   UNL     1      -5.839   2.645 129.579  0.00  0.00    +0.000 C 
ATOM     10  C   UNL     1      -5.987   4.086 130.554  0.00  0.00    +0.000 C 
ATOM     11  C   UNL     1      -5.475   5.485 129.850  0.00  0.00    +0.000 C 
ATOM     12  C   UNL     1      -5.510   6.645 130.872  0.00  0.00    +0.000 C 
ATOM     13 CL   UNL     1      -4.344   6.628 132.244  0.00  0.00    +0.000 Cl
ATOM     14  C   UNL     1      -6.851   6.704 131.580  0.00  0.00    +0.000 C 
ATOM     15  C   UNL     1      -7.317   5.429 132.243  0.00  0.00    +0.000 C 
ATOM     16  C   UNL     1      -7.780   5.364 133.506  0.00  0.00    +0.000 C 
ATOM     17  C   UNL     1      -8.317   4.026 133.872  0.00  0.00    +0.000 C 
ATOM     18  O   UNL     1      -9.489   3.687 133.959  0.00  0.00    +0.000 OA
ATOM     19  C   UNL     1      -7.225   3.000 133.957  0.00  0.00    +0.000 C 
ATOM     20  C   UNL     1      -7.184   2.939 132.596  0.00  0.00    +0.000 C 
ATOM     21  C   UNL     1      -7.267   4.126 131.449  0.00  0.00    +0.000 C 
ATOM     22  C   UNL     1      -8.390   4.232 130.414  0.00  0.00    +0.000 C 
ENDROOT
BRANCH   5  23
ATOM     23  O   UNL     1      -4.887   5.236 127.160  0.00  0.00    +0.000 OA
ATOM     24  H   UNL     1      -5.614   5.260 126.520  0.00  0.00    +0.000 HD
ENDBRANCH   5  23
BRANCH   5  25
ATOM     25  C   UNL     1      -4.975   2.922 126.497  0.00  0.00    +0.000 C 
ATOM     26  O   UNL     1      -5.308   3.391 125.392  0.00  0.00    +0.000 OA
BRANCH  25  27
ATOM     27  C   UNL     1      -4.879   1.302 126.409  0.00  0.00    +0.000 C 
BRANCH  27  28
ATOM     28  O   UNL     1      -6.204   0.688 126.353  0.00  0.00    +0.000 OA
ATOM     29  H   UNL     1      -6.877   1.388 126.472  0.00  0.00    +0.000 HD
ENDBRANCH  27  28
ENDBRANCH  25  27
ENDBRANCH   5  25
BRANCH   9  30
ATOM     30  O   UNL     1      -6.789   2.725 128.491  0.00  0.00    +0.000 OA
ATOM     31  H   UNL     1      -6.851   3.641 128.162  0.00  0.00    +0.000 HD
ENDBRANCH   9  30
TORSDOF 5
ENDMDL
MODEL 9
REMARK VINA RESULT:      -7.5      3.477      5.926
REMARK  Name = Alclometasone
REMARK  8 active torsions:
REMARK  status: ('A' for Active; 'I' for Inactive)
REMARK    1  A    between atoms: C_4  and  C_5
REMARK    2  A    between atoms: C_6  and  O_7
REMARK    3  A    between atoms: C_6  and  C_8
REMARK    4  A    between atoms: C_8  and  C_10
REMARK    5  A    between atoms: C_10  and  O_11
REMARK    6  A    between atoms: C_12  and  C_13
REMARK    7  A    between atoms: C_15  and  O_16
REMARK    8  A    between atoms: C_30  and  C_31
REMARK                            x       y       z     vdW  Elec       q    Type
REMARK                         _______ _______ _______ _____ _____    ______ ____
ROOT
ATOM      1  C   UNL     1      -4.724   6.457 131.948  0.00  0.00    +0.000 C 
ATOM      2  C   UNL     1      -4.054   5.831 133.030  0.00  0.00    +0.000 C 
ATOM      3  C   UNL     1      -4.182   4.827 131.885  0.00  0.00    +0.000 C 
ATOM      4  C   UNL     1      -4.238   3.039 132.410  0.00  0.00    +0.000 C 
ATOM      5  C   UNL     1      -4.540   5.811 130.063  0.00  0.00    +0.000 C 
ATOM      6  C   UNL     1      -3.403   5.844 130.764  0.00  0.00    +0.000 C 
ATOM      7  C   UNL     1      -2.206   6.703 130.701  0.00  0.00    +0.000 C 
ATOM      8  C   UNL     1      -3.524   4.115 130.071  0.00  0.00    +0.000 C 
ATOM      9  C   UNL     1      -5.281   3.650 130.002  0.00  0.00    +0.000 C 
ATOM     10  C   UNL     1      -6.350   4.104 131.306  0.00  0.00    +0.000 C 
ATOM     11  C   UNL     1      -6.339   5.699 131.719  0.00  0.00    +0.000 C 
ATOM     12  C   UNL     1      -7.201   5.932 132.982  0.00  0.00    +0.000 C 
ATOM     13 CL   UNL     1      -6.627   5.275 134.557  0.00  0.00    +0.000 Cl
ATOM     14  C   UNL     1      -8.567   5.288 132.834  0.00  0.00    +0.000 C 
ATOM     15  C   UNL     1      -8.582   3.821 132.473  0.00  0.00    +0.000 C 
ATOM     16  C   UNL     1      -9.322   2.896 133.113  0.00  0.00    +0.000 C 
ATOM     17  C   UNL     1      -9.279   1.555 132.473  0.00  0.00    +0.000 C 
ATOM     18  O   UNL     1     -10.136   1.029 131.777  0.00  0.00    +0.000 OA
ATOM     19  C   UNL     1      -7.923   0.924 132.610  0.00  0.00    +0.000 C 
ATOM     20  C   UNL     1      -7.452   1.738 131.623  0.00  0.00    +0.000 C 
ATOM     21  C   UNL     1      -7.712   3.340 131.314  0.00  0.00    +0.000 C 
ATOM     22  C   UNL     1      -8.392   3.862 130.046  0.00  0.00    +0.000 C 
ENDROOT
BRANCH   5  23
ATOM     23  O   UNL     1      -4.923   7.302 129.968  0.00  0.00    +0.000 OA
ATOM     24  H   UNL     1      -5.034   7.776 130.807  0.00  0.00    +0.000 HD
ENDBRANCH   5  23
BRANCH   5  25
ATOM     25  C   UNL     1      -3.752   5.948 128.357  0.00  0.00    +0.000 C 
ATOM     26  O   UNL     1      -4.099   6.798 127.515  0.00  0.00    +0.000 OA
BRANCH  25  27
ATOM     27  C   UNL     1      -2.663   4.931 127.708  0.00  0.00    +0.000 C 
BRANCH  27  28
ATOM     28  O   UNL     1      -3.279   4.037 126.729  0.00  0.00    +0.000 OA
ATOM     29  H   UNL     1      -2.758   4.075 125.902  0.00  0.00    +0.000 HD
ENDBRANCH  27  28
ENDBRANCH  25  27
ENDBRANCH   5  25
BRANCH   9  30
ATOM     30  O   UNL     1      -5.787   4.217 128.771  0.00  0.00    +0.000 OA
ATOM     31  H   UNL     1      -6.760   4.150 128.743  0.00  0.00    +0.000 HD
ENDBRANCH   9  30
TORSDOF 5
ENDMDL
