MODEL 1
REMARK VINA RESULT:      -6.1      0.000      0.000
REMARK  Name = Alclofenac
REMARK  6 active torsions:
REMARK  status: ('A' for Active; 'I' for Inactive)
REMARK    1  A    between atoms: O_1  and  C_2
REMARK    2  A    between atoms: C_2  and  C_4
REMARK    3  A    between atoms: C_4  and  C_5
REMARK    4  A    between atoms: C_9  and  O_10
REMARK    5  A    between atoms: O_10  and  C_11
REMARK    6  A    between atoms: C_11  and  C_12
REMARK                            x       y       z     vdW  Elec       q    Type
REMARK                         _______ _______ _______ _____ _____    ______ ____
ROOT
ATOM      1  C   UNL     1     -11.155   7.615 129.170  0.00  0.00    +0.000 A 
ATOM      2  C   UNL     1      -9.840   7.608 129.630  0.00  0.00    +0.000 A 
ATOM      3  C   UNL     1      -9.398   6.887 130.735  0.00  0.00    +0.000 A 
ATOM      4 CL   UNL     1      -7.671   6.991 130.910  0.00  0.00    +0.000 Cl
ATOM      5  C   UNL     1     -10.320   6.194 131.524  0.00  0.00    +0.000 A 
ATOM      6  C   UNL     1     -11.674   6.231 131.119  0.00  0.00    +0.000 A 
ATOM      7  C   UNL     1     -12.088   6.923 129.953  0.00  0.00    +0.000 A 
ENDROOT
BRANCH   1   8
ATOM      8  C   UNL     1     -11.526   8.380 127.899  0.00  0.00    +0.000 C 
BRANCH   8   9
ATOM      9  C   UNL     1     -11.291   7.658 126.552  0.00  0.00    +0.000 C 
ATOM     10  O   UNL     1     -10.616   8.053 125.608  0.00  0.00    +0.000 OA
BRANCH   9  11
ATOM     11  O   UNL     1     -11.891   6.453 126.442  0.00  0.00    +0.000 OA
ATOM     12  H   UNL     1     -12.736   6.426 125.965  0.00  0.00    +0.000 HD
ENDBRANCH   9  11
ENDBRANCH   8   9
ENDBRANCH   1   8
BRANCH   5  13
ATOM     13  O   UNL     1     -10.083   5.478 132.680  0.00  0.00    +0.000 OA
BRANCH  13  14
ATOM     14  C   UNL     1      -9.476   4.199 132.490  0.00  0.00    +0.000 C 
BRANCH  14  15
ATOM     15  C   UNL     1      -8.892   3.642 133.745  0.00  0.00    +0.000 C 
ATOM     16  C   UNL     1      -8.273   4.437 134.631  0.00  0.00    +0.000 C 
ENDBRANCH  14  15
ENDBRANCH  13  14
ENDBRANCH   5  13
TORSDOF 6
ENDMDL
MODEL 2
REMARK VINA RESULT:      -5.9      3.269      3.977
REMARK  Name = Alclofenac
REMARK  6 active torsions:
REMARK  status: ('A' for Active; 'I' for Inactive)
REMARK    1  A    between atoms: O_1  and  C_2
REMARK    2  A    between atoms: C_2  and  C_4
REMARK    3  A    between atoms: C_4  and  C_5
REMARK    4  A    between atoms: C_9  and  O_10
REMARK    5  A    between atoms: O_10  and  C_11
REMARK    6  A    between atoms: C_11  and  C_12
REMARK                            x       y       z     vdW  Elec       q    Type
REMARK                         _______ _______ _______ _____ _____    ______ ____
ROOT
ATOM      1  C   UNL     1     -12.823   8.818 129.081  0.00  0.00    +0.000 A 
ATOM      2  C   UNL     1     -11.961   8.421 128.060  0.00  0.00    +0.000 A 
ATOM      3  C   UNL     1     -11.118   7.315 128.129  0.00  0.00    +0.000 A 
ATOM      4 CL   UNL     1     -10.315   7.036 126.614  0.00  0.00    +0.000 Cl
ATOM      5  C   UNL     1     -11.024   6.590 129.320  0.00  0.00    +0.000 A 
ATOM      6  C   UNL     1     -11.842   7.005 130.397  0.00  0.00    +0.000 A 
ATOM      7  C   UNL     1     -12.737   8.097 130.279  0.00  0.00    +0.000 A 
ENDROOT
BRANCH   1   8
ATOM      8  C   UNL     1     -13.766  10.004 128.879  0.00  0.00    +0.000 C 
BRANCH   8   9
ATOM      9  C   UNL     1     -13.545  11.239 129.782  0.00  0.00    +0.000 C 
ATOM     10  O   UNL     1     -13.354  11.246 130.993  0.00  0.00    +0.000 OA
BRANCH   9  11
ATOM     11  O   UNL     1     -13.548  12.423 129.133  0.00  0.00    +0.000 OA
ATOM     12  H   UNL     1     -12.688  12.860 129.014  0.00  0.00    +0.000 HD
ENDBRANCH   9  11
ENDBRANCH   8   9
ENDBRANCH   1   8
BRANCH   5  13
ATOM     13  O   UNL     1     -10.209   5.510 129.597  0.00  0.00    +0.000 OA
BRANCH  13  14
ATOM     14  C   UNL     1      -9.424   5.628 130.783  0.00  0.00    +0.000 C 
BRANCH  14  15
ATOM     15  C   UNL     1      -8.562   6.847 130.791  0.00  0.00    +0.000 C 
ATOM     16  C   UNL     1      -7.272   6.777 131.157  0.00  0.00    +0.000 C 
ENDBRANCH  14  15
ENDBRANCH  13  14
ENDBRANCH   5  13
TORSDOF 6
ENDMDL
MODEL 3
REMARK VINA RESULT:      -5.9      7.580      8.919
REMARK  Name = Alclofenac
REMARK  6 active torsions:
REMARK  status: ('A' for Active; 'I' for Inactive)
REMARK    1  A    between atoms: O_1  and  C_2
REMARK    2  A    between atoms: C_2  and  C_4
REMARK    3  A    between atoms: C_4  and  C_5
REMARK    4  A    between atoms: C_9  and  O_10
REMARK    5  A    between atoms: O_10  and  C_11
REMARK    6  A    between atoms: C_11  and  C_12
REMARK                            x       y       z     vdW  Elec       q    Type
REMARK                         _______ _______ _______ _____ _____    ______ ____
ROOT
ATOM      1  C   UNL     1      -5.904   3.802 122.176  0.00  0.00    +0.000 A 
ATOM      2  C   UNL     1      -7.090   3.077 122.067  0.00  0.00    +0.000 A 
ATOM      3  C   UNL     1      -8.024   2.940 123.090  0.00  0.00    +0.000 A 
ATOM      4 CL   UNL     1      -9.447   2.107 122.541  0.00  0.00    +0.000 Cl
ATOM      5  C   UNL     1      -7.745   3.462 124.357  0.00  0.00    +0.000 A 
ATOM      6  C   UNL     1      -6.521   4.151 124.517  0.00  0.00    +0.000 A 
ATOM      7  C   UNL     1      -5.615   4.329 123.442  0.00  0.00    +0.000 A 
ENDROOT
BRANCH   1   8
ATOM      8  C   UNL     1      -4.979   3.956 120.969  0.00  0.00    +0.000 C 
BRANCH   8   9
ATOM      9  C   UNL     1      -4.959   5.336 120.273  0.00  0.00    +0.000 C 
ATOM     10  O   UNL     1      -5.531   5.651 119.235  0.00  0.00    +0.000 OA
BRANCH   9  11
ATOM     11  O   UNL     1      -4.241   6.284 120.913  0.00  0.00    +0.000 OA
ATOM     12  H   UNL     1      -4.075   6.145 121.860  0.00  0.00    +0.000 HD
ENDBRANCH   9  11
ENDBRANCH   8   9
ENDBRANCH   1   8
BRANCH   5  13
ATOM     13  O   UNL     1      -8.514   3.376 125.500  0.00  0.00    +0.000 OA
BRANCH  13  14
ATOM     14  C   UNL     1      -8.022   2.482 126.498  0.00  0.00    +0.000 C 
BRANCH  14  15
ATOM     15  C   UNL     1      -8.296   1.049 126.181  0.00  0.00    +0.000 C 
ATOM     16  C   UNL     1      -9.538   0.632 125.889  0.00  0.00    +0.000 C 
ENDBRANCH  14  15
ENDBRANCH  13  14
ENDBRANCH   5  13
TORSDOF 6
ENDMDL
MODEL 4
REMARK VINA RESULT:      -5.5      8.290      9.307
REMARK  Name = Alclofenac
REMARK  6 active torsions:
REMARK  status: ('A' for Active; 'I' for Inactive)
REMARK    1  A    between atoms: O_1  and  C_2
REMARK    2  A    between atoms: C_2  and  C_4
REMARK    3  A    between atoms: C_4  and  C_5
REMARK    4  A    between atoms: C_9  and  O_10
REMARK    5  A    between atoms: O_10  and  C_11
REMARK    6  A    between atoms: C_11  and  C_12
REMARK                            x       y       z     vdW  Elec       q    Type
REMARK                         _______ _______ _______ _____ _____    ______ ____
ROOT
ATOM      1  C   UNL     1      -5.965   3.817 121.745  0.00  0.00    +0.000 A 
ATOM      2  C   UNL     1      -6.664   2.746 122.298  0.00  0.00    +0.000 A 
ATOM      3  C   UNL     1      -6.693   2.444 123.657  0.00  0.00    +0.000 A 
ATOM      4 CL   UNL     1      -7.795   1.143 123.994  0.00  0.00    +0.000 Cl
ATOM      5  C   UNL     1      -5.901   3.177 124.546  0.00  0.00    +0.000 A 
ATOM      6  C   UNL     1      -5.131   4.233 124.006  0.00  0.00    +0.000 A 
ATOM      7  C   UNL     1      -5.168   4.558 122.627  0.00  0.00    +0.000 A 
ENDROOT
BRANCH   1   8
ATOM      8  C   UNL     1      -6.059   4.110 120.248  0.00  0.00    +0.000 C 
BRANCH   8   9
ATOM      9  C   UNL     1      -5.390   5.409 119.744  0.00  0.00    +0.000 C 
ATOM     10  O   UNL     1      -4.664   6.165 120.381  0.00  0.00    +0.000 OA
BRANCH   9  11
ATOM     11  O   UNL     1      -5.634   5.708 118.449  0.00  0.00    +0.000 OA
ATOM     12  H   UNL     1      -6.084   6.549 118.270  0.00  0.00    +0.000 HD
ENDBRANCH   9  11
ENDBRANCH   8   9
ENDBRANCH   1   8
BRANCH   5  13
ATOM     13  O   UNL     1      -5.753   2.990 125.905  0.00  0.00    +0.000 OA
BRANCH  13  14
ATOM     14  C   UNL     1      -4.630   2.198 126.293  0.00  0.00    +0.000 C 
BRANCH  14  15
ATOM     15  C   UNL     1      -3.604   2.976 127.047  0.00  0.00    +0.000 C 
ATOM     16  C   UNL     1      -2.344   3.078 126.594  0.00  0.00    +0.000 C 
ENDBRANCH  14  15
ENDBRANCH  13  14
ENDBRANCH   5  13
TORSDOF 6
ENDMDL
MODEL 5
REMARK VINA RESULT:      -5.4      9.725     10.347
REMARK  Name = Alclofenac
REMARK  6 active torsions:
REMARK  status: ('A' for Active; 'I' for Inactive)
REMARK    1  A    between atoms: O_1  and  C_2
REMARK    2  A    between atoms: C_2  and  C_4
REMARK    3  A    between atoms: C_4  and  C_5
REMARK    4  A    between atoms: C_9  and  O_10
REMARK    5  A    between atoms: O_10  and  C_11
REMARK    6  A    between atoms: C_11  and  C_12
REMARK                            x       y       z     vdW  Elec       q    Type
REMARK                         _______ _______ _______ _____ _____    ______ ____
ROOT
ATOM      1  C   UNL     1      -7.921  -3.065 125.727  0.00  0.00    +0.000 A 
ATOM      2  C   UNL     1      -6.945  -2.233 126.274  0.00  0.00    +0.000 A 
ATOM      3  C   UNL     1      -6.735  -2.061 127.639  0.00  0.00    +0.000 A 
ATOM      4 CL   UNL     1      -5.333  -1.079 127.945  0.00  0.00    +0.000 Cl
ATOM      5  C   UNL     1      -7.601  -2.663 128.555  0.00  0.00    +0.000 A 
ATOM      6  C   UNL     1      -8.640  -3.466 128.030  0.00  0.00    +0.000 A 
ATOM      7  C   UNL     1      -8.795  -3.675 126.637  0.00  0.00    +0.000 A 
ENDROOT
BRANCH   1   8
ATOM      8  C   UNL     1      -8.022  -3.245 124.213  0.00  0.00    +0.000 C 
BRANCH   8   9
ATOM      9  C   UNL     1      -9.311  -2.733 123.530  0.00  0.00    +0.000 C 
ATOM     10  O   UNL     1      -9.529  -1.599 123.115  0.00  0.00    +0.000 OA
BRANCH   9  11
ATOM     11  O   UNL     1     -10.275  -3.663 123.367  0.00  0.00    +0.000 OA
ATOM     12  H   UNL     1     -10.979  -3.460 122.729  0.00  0.00    +0.000 HD
ENDBRANCH   9  11
ENDBRANCH   8   9
ENDBRANCH   1   8
BRANCH   5  13
ATOM     13  O   UNL     1      -7.589  -2.563 129.932  0.00  0.00    +0.000 OA
BRANCH  13  14
ATOM     14  C   UNL     1      -6.374  -2.970 130.561  0.00  0.00    +0.000 C 
BRANCH  14  15
ATOM     15  C   UNL     1      -6.066  -4.415 130.348  0.00  0.00    +0.000 C 
ATOM     16  C   UNL     1      -5.419  -5.128 131.284  0.00  0.00    +0.000 C 
ENDBRANCH  14  15
ENDBRANCH  13  14
ENDBRANCH   5  13
TORSDOF 6
ENDMDL
MODEL 6
REMARK VINA RESULT:      -5.3      9.626     11.664
REMARK  Name = Alclofenac
REMARK  6 active torsions:
REMARK  status: ('A' for Active; 'I' for Inactive)
REMARK    1  A    between atoms: O_1  and  C_2
REMARK    2  A    between atoms: C_2  and  C_4
REMARK    3  A    between atoms: C_4  and  C_5
REMARK    4  A    between atoms: C_9  and  O_10
REMARK    5  A    between atoms: O_10  and  C_11
REMARK    6  A    between atoms: C_11  and  C_12
REMARK                            x       y       z     vdW  Elec       q    Type
REMARK                         _______ _______ _______ _____ _____    ______ ____
ROOT
ATOM      1  C   UNL     1      -7.691  -2.869 128.710  0.00  0.00    +0.000 A 
ATOM      2  C   UNL     1      -7.452  -1.800 127.849  0.00  0.00    +0.000 A 
ATOM      3  C   UNL     1      -8.132  -1.587 126.653  0.00  0.00    +0.000 A 
ATOM      4 CL   UNL     1      -7.682  -0.072 125.929  0.00  0.00    +0.000 Cl
ATOM      5  C   UNL     1      -9.049  -2.539 126.199  0.00  0.00    +0.000 A 
ATOM      6  C   UNL     1      -9.270  -3.668 127.021  0.00  0.00    +0.000 A 
ATOM      7  C   UNL     1      -8.610  -3.829 128.264  0.00  0.00    +0.000 A 
ENDROOT
BRANCH   1   8
ATOM      8  C   UNL     1      -6.944  -2.973 130.039  0.00  0.00    +0.000 C 
BRANCH   8   9
ATOM      9  C   UNL     1      -5.764  -3.969 130.105  0.00  0.00    +0.000 C 
ATOM     10  O   UNL     1      -5.757  -5.078 130.629  0.00  0.00    +0.000 OA
BRANCH   9  11
ATOM     11  O   UNL     1      -4.635  -3.553 129.490  0.00  0.00    +0.000 OA
ATOM     12  H   UNL     1      -4.111  -4.229 129.029  0.00  0.00    +0.000 HD
ENDBRANCH   9  11
ENDBRANCH   8   9
ENDBRANCH   1   8
BRANCH   5  13
ATOM     13  O   UNL     1      -9.770  -2.532 125.021  0.00  0.00    +0.000 OA
BRANCH  13  14
ATOM     14  C   UNL     1      -9.157  -3.217 123.928  0.00  0.00    +0.000 C 
BRANCH  14  15
ATOM     15  C   UNL     1      -8.550  -2.289 122.929  0.00  0.00    +0.000 C 
ATOM     16  C   UNL     1      -7.233  -2.028 122.941  0.00  0.00    +0.000 C 
ENDBRANCH  14  15
ENDBRANCH  13  14
ENDBRANCH   5  13
TORSDOF 6
ENDMDL
MODEL 7
REMARK VINA RESULT:      -5.2      3.067      4.239
REMARK  Name = Alclofenac
REMARK  6 active torsions:
REMARK  status: ('A' for Active; 'I' for Inactive)
REMARK    1  A    between atoms: O_1  and  C_2
REMARK    2  A    between atoms: C_2  and  C_4
REMARK    3  A    between atoms: C_4  and  C_5
REMARK    4  A    between atoms: C_9  and  O_10
REMARK    5  A    between atoms: O_10  and  C_11
REMARK    6  A    between atoms: C_11  and  C_12
REMARK                            x       y       z     vdW  Elec       q    Type
REMARK                         _______ _______ _______ _____ _____    ______ ____
ROOT
ATOM      1  C   UNL     1     -10.307   6.375 131.597  0.00  0.00    +0.000 A 
ATOM      2  C   UNL     1      -9.769   5.722 132.705  0.00  0.00    +0.000 A 
ATOM      3  C   UNL     1      -8.413   5.689 133.016  0.00  0.00    +0.000 A 
ATOM      4 CL   UNL     1      -8.134   4.923 134.551  0.00  0.00    +0.000 Cl
ATOM      5  C   UNL     1      -7.486   6.249 132.132  0.00  0.00    +0.000 A 
ATOM      6  C   UNL     1      -7.995   6.867 130.966  0.00  0.00    +0.000 A 
ATOM      7  C   UNL     1      -9.386   6.939 130.704  0.00  0.00    +0.000 A 
ENDROOT
BRANCH   1   8
ATOM      8  C   UNL     1     -11.820   6.417 131.384  0.00  0.00    +0.000 C 
BRANCH   8   9
ATOM      9  C   UNL     1     -12.320   6.889 130.000  0.00  0.00    +0.000 C 
ATOM     10  O   UNL     1     -12.625   8.031 129.671  0.00  0.00    +0.000 OA
BRANCH   9  11
ATOM     11  O   UNL     1     -12.400   5.919 129.064  0.00  0.00    +0.000 OA
ATOM     12  H   UNL     1     -12.650   6.194 128.166  0.00  0.00    +0.000 HD
ENDBRANCH   9  11
ENDBRANCH   8   9
ENDBRANCH   1   8
BRANCH   5  13
ATOM     13  O   UNL     1      -6.110   6.262 132.238  0.00  0.00    +0.000 OA
BRANCH  13  14
ATOM     14  C   UNL     1      -5.404   6.324 130.999  0.00  0.00    +0.000 C 
BRANCH  14  15
ATOM     15  C   UNL     1      -4.340   7.371 130.988  0.00  0.00    +0.000 C 
ATOM     16  C   UNL     1      -4.141   8.142 129.907  0.00  0.00    +0.000 C 
ENDBRANCH  14  15
ENDBRANCH  13  14
ENDBRANCH   5  13
TORSDOF 6
ENDMDL
MODEL 8
REMARK VINA RESULT:      -5.1      1.807      2.322
REMARK  Name = Alclofenac
REMARK  6 active torsions:
REMARK  status: ('A' for Active; 'I' for Inactive)
REMARK    1  A    between atoms: O_1  and  C_2
REMARK    2  A    between atoms: C_2  and  C_4
REMARK    3  A    between atoms: C_4  and  C_5
REMARK    4  A    between atoms: C_9  and  O_10
REMARK    5  A    between atoms: O_10  and  C_11
REMARK    6  A    between atoms: C_11  and  C_12
REMARK                            x       y       z     vdW  Elec       q    Type
REMARK                         _______ _______ _______ _____ _____    ______ ____
ROOT
ATOM      1  C   UNL     1      -9.971   7.042 129.552  0.00  0.00    +0.000 A 
ATOM      2  C   UNL     1     -10.479   5.748 129.645  0.00  0.00    +0.000 A 
ATOM      3  C   UNL     1     -10.055   4.801 130.573  0.00  0.00    +0.000 A 
ATOM      4 CL   UNL     1     -11.024   3.360 130.497  0.00  0.00    +0.000 Cl
ATOM      5  C   UNL     1      -8.981   5.094 131.419  0.00  0.00    +0.000 A 
ATOM      6  C   UNL     1      -8.402   6.379 131.308  0.00  0.00    +0.000 A 
ATOM      7  C   UNL     1      -8.894   7.346 130.396  0.00  0.00    +0.000 A 
ENDROOT
BRANCH   1   8
ATOM      8  C   UNL     1     -10.558   8.033 128.547  0.00  0.00    +0.000 C 
BRANCH   8   9
ATOM      9  C   UNL     1     -11.395   7.444 127.388  0.00  0.00    +0.000 C 
ATOM     10  O   UNL     1     -12.618   7.420 127.295  0.00  0.00    +0.000 OA
BRANCH   9  11
ATOM     11  O   UNL     1     -10.672   6.927 126.372  0.00  0.00    +0.000 OA
ATOM     12  H   UNL     1     -10.133   7.548 125.855  0.00  0.00    +0.000 HD
ENDBRANCH   9  11
ENDBRANCH   8   9
ENDBRANCH   1   8
BRANCH   5  13
ATOM     13  O   UNL     1      -8.386   4.272 132.354  0.00  0.00    +0.000 OA
BRANCH  13  14
ATOM     14  C   UNL     1      -9.055   4.198 133.613  0.00  0.00    +0.000 C 
BRANCH  14  15
ATOM     15  C   UNL     1      -8.142   4.433 134.771  0.00  0.00    +0.000 C 
ATOM     16  C   UNL     1      -7.700   5.666 135.063  0.00  0.00    +0.000 C 
ENDBRANCH  14  15
ENDBRANCH  13  14
ENDBRANCH   5  13
TORSDOF 6
ENDMDL
MODEL 9
REMARK VINA RESULT:      -5.1      9.450     10.123
REMARK  Name = Alclofenac
REMARK  6 active torsions:
REMARK  status: ('A' for Active; 'I' for Inactive)
REMARK    1  A    between atoms: O_1  and  C_2
REMARK    2  A    between atoms: C_2  and  C_4
REMARK    3  A    between atoms: C_4  and  C_5
REMARK    4  A    between atoms: C_9  and  O_10
REMARK    5  A    between atoms: O_10  and  C_11
REMARK    6  A    between atoms: C_11  and  C_12
REMARK                            x       y       z     vdW  Elec       q    Type
REMARK                         _______ _______ _______ _____ _____    ______ ____
ROOT
ATOM      1  C   UNL     1      -7.568   1.436 123.210  0.00  0.00    +0.000 A 
ATOM      2  C   UNL     1      -6.865   0.234 123.274  0.00  0.00    +0.000 A 
ATOM      3  C   UNL     1      -7.457  -1.026 123.242  0.00  0.00    +0.000 A 
ATOM      4 CL   UNL     1      -6.261  -2.286 123.177  0.00  0.00    +0.000 Cl
ATOM      5  C   UNL     1      -8.850  -1.136 123.251  0.00  0.00    +0.000 A 
ATOM      6  C   UNL     1      -9.594   0.066 123.249  0.00  0.00    +0.000 A 
ATOM      7  C   UNL     1      -8.966   1.336 123.218  0.00  0.00    +0.000 A 
ENDROOT
BRANCH   1   8
ATOM      8  C   UNL     1      -6.820   2.768 123.174  0.00  0.00    +0.000 C 
BRANCH   8   9
ATOM      9  C   UNL     1      -6.604   3.414 121.787  0.00  0.00    +0.000 C 
ATOM     10  O   UNL     1      -7.468   3.772 120.993  0.00  0.00    +0.000 OA
BRANCH   9  11
ATOM     11  O   UNL     1      -5.312   3.613 121.449  0.00  0.00    +0.000 OA
ATOM     12  H   UNL     1      -4.663   2.984 121.804  0.00  0.00    +0.000 HD
ENDBRANCH   9  11
ENDBRANCH   8   9
ENDBRANCH   1   8
BRANCH   5  13
ATOM     13  O   UNL     1      -9.612  -2.287 123.281  0.00  0.00    +0.000 OA
BRANCH  13  14
ATOM     14  C   UNL     1      -9.243  -3.235 124.284  0.00  0.00    +0.000 C 
BRANCH  14  15
ATOM     15  C   UNL     1      -9.481  -2.736 125.670  0.00  0.00    +0.000 C 
ATOM     16  C   UNL     1      -8.633  -3.036 126.667  0.00  0.00    +0.000 C 
ENDBRANCH  14  15
ENDBRANCH  13  14
ENDBRANCH   5  13
TORSDOF 6
ENDMDL
