MODEL 1
REMARK VINA RESULT:      -8.7      0.000      0.000
REMARK  Name = Alectinib
REMARK  7 active torsions:
REMARK  status: ('A' for Active; 'I' for Inactive)
REMARK    1  A    between atoms: C_1  and  C_2
REMARK    2  A    between atoms: C_2  and  C_3
REMARK    3  A    between atoms: C_8  and  N_9
REMARK    4  A    between atoms: C_12  and  N_15
REMARK    5  A    between atoms: C_21  and  C_22
REMARK    6  A    between atoms: C_21  and  C_23
REMARK    7  A    between atoms: C_29  and  C_33
REMARK                            x       y       z     vdW  Elec       q    Type
REMARK                         _______ _______ _______ _____ _____    ______ ____
ROOT
ATOM      1  C   UNL     1      -5.973   3.907 125.471  0.00  0.00    +0.000 A 
ATOM      2  C   UNL     1      -5.130   4.695 126.229  0.00  0.00    +0.000 A 
ATOM      3  C   UNL     1      -4.827   4.345 127.543  0.00  0.00    +0.000 A 
ATOM      4  C   UNL     1      -5.387   3.221 128.159  0.00  0.00    +0.000 A 
ATOM      5  C   UNL     1      -6.203   2.440 127.387  0.00  0.00    +0.000 A 
ATOM      6  C   UNL     1      -6.430   2.721 126.042  0.00  0.00    +0.000 A 
ATOM      7  C   UNL     1      -5.135   2.784 129.590  0.00  0.00    +0.000 C 
ATOM      8  C   UNL     1      -6.471   2.891 130.350  0.00  0.00    +0.000 C 
ATOM      9  C   UNL     1      -4.559   1.352 129.561  0.00  0.00    +0.000 C 
ATOM     10  C   UNL     1      -4.146   3.709 130.210  0.00  0.00    +0.000 A 
ATOM     11  C   UNL     1      -3.587   4.810 129.603  0.00  0.00    +0.000 A 
ATOM     12  C   UNL     1      -2.731   5.420 130.527  0.00  0.00    +0.000 A 
ATOM     13  C   UNL     1      -1.922   6.559 130.448  0.00  0.00    +0.000 A 
ATOM     14  C   UNL     1      -1.172   6.923 131.558  0.00  0.00    +0.000 A 
ATOM     15  C   UNL     1      -1.231   6.163 132.728  0.00  0.00    +0.000 A 
ATOM     16  C   UNL     1      -2.037   5.017 132.826  0.00  0.00    +0.000 A 
ATOM     17  C   UNL     1      -2.782   4.668 131.698  0.00  0.00    +0.000 A 
ATOM     18  N   UNL     1      -3.653   3.623 131.482  0.00  0.00    +0.000 N 
ATOM     19  C   UNL     1      -3.884   5.212 128.254  0.00  0.00    +0.000 C 
ATOM     20  O   UNL     1      -3.395   6.194 127.707  0.00  0.00    +0.000 OA
ATOM     21  H   UNL     1      -3.897   2.913 132.162  0.00  0.00    +0.000 HD
ENDROOT
BRANCH   6  22
ATOM     22  N   UNL     1      -7.176   1.761 125.426  0.00  0.00    +0.000 N 
ATOM     23  C   UNL     1      -6.619   0.469 125.710  0.00  0.00    +0.000 C 
ATOM     24  C   UNL     1      -6.770  -0.289 124.371  0.00  0.00    +0.000 C 
ATOM     25  C   UNL     1      -8.345  -0.323 123.900  0.00  0.00    +0.000 C 
ATOM     26  C   UNL     1      -8.757   1.147 123.718  0.00  0.00    +0.000 C 
ATOM     27  C   UNL     1      -8.569   1.906 125.003  0.00  0.00    +0.000 C 
BRANCH  25  28
ATOM     28  N   UNL     1      -9.328  -1.378 124.527  0.00  0.00    +0.000 NA
ATOM     29  C   UNL     1      -9.158  -2.149 125.841  0.00  0.00    +0.000 C 
ATOM     30  C   UNL     1      -7.964  -3.111 125.983  0.00  0.00    +0.000 C 
ATOM     31  O   UNL     1      -7.903  -4.027 124.866  0.00  0.00    +0.000 OA
ATOM     32  C   UNL     1      -8.124  -3.290 123.670  0.00  0.00    +0.000 C 
ATOM     33  C   UNL     1      -9.403  -2.464 123.495  0.00  0.00    +0.000 C 
ENDBRANCH  25  28
ENDBRANCH   6  22
BRANCH   1  35
ATOM     34  C   UNL     1      -5.246   4.207 123.100  0.00  0.00    +0.000 C 
ATOM     35  C   UNL     1      -6.347   4.415 124.104  0.00  0.00    +0.000 C 
ENDBRANCH   1  35
BRANCH  15  36
ATOM     36  C   UNL     1      -0.438   6.574 133.870  0.00  0.00    +0.000 C 
ATOM     37  N   UNL     1       0.180   6.897 134.762  0.00  0.00    +0.000 NA
ENDBRANCH  15  36
TORSDOF 4
ENDMDL
MODEL 2
REMARK VINA RESULT:      -8.6      5.502      8.189
REMARK  Name = Alectinib
REMARK  7 active torsions:
REMARK  status: ('A' for Active; 'I' for Inactive)
REMARK    1  A    between atoms: C_1  and  C_2
REMARK    2  A    between atoms: C_2  and  C_3
REMARK    3  A    between atoms: C_8  and  N_9
REMARK    4  A    between atoms: C_12  and  N_15
REMARK    5  A    between atoms: C_21  and  C_22
REMARK    6  A    between atoms: C_21  and  C_23
REMARK    7  A    between atoms: C_29  and  C_33
REMARK                            x       y       z     vdW  Elec       q    Type
REMARK                         _______ _______ _______ _____ _____    ______ ____
ROOT
ATOM      1  C   UNL     1      -6.227   1.234 129.083  0.00  0.00    +0.000 A 
ATOM      2  C   UNL     1      -6.856   2.386 128.656  0.00  0.00    +0.000 A 
ATOM      3  C   UNL     1      -7.842   2.985 129.439  0.00  0.00    +0.000 A 
ATOM      4  C   UNL     1      -8.262   2.433 130.652  0.00  0.00    +0.000 A 
ATOM      5  C   UNL     1      -7.613   1.304 131.071  0.00  0.00    +0.000 A 
ATOM      6  C   UNL     1      -6.555   0.755 130.349  0.00  0.00    +0.000 A 
ATOM      7  C   UNL     1      -9.345   3.001 131.551  0.00  0.00    +0.000 C 
ATOM      8  C   UNL     1     -10.498   1.982 131.590  0.00  0.00    +0.000 C 
ATOM      9  C   UNL     1      -8.723   3.278 132.937  0.00  0.00    +0.000 C 
ATOM     10  C   UNL     1      -9.840   4.276 130.962  0.00  0.00    +0.000 A 
ATOM     11  C   UNL     1      -9.421   4.826 129.771  0.00  0.00    +0.000 A 
ATOM     12  C   UNL     1     -10.146   6.006 129.567  0.00  0.00    +0.000 A 
ATOM     13  C   UNL     1     -10.132   6.949 128.533  0.00  0.00    +0.000 A 
ATOM     14  C   UNL     1     -10.989   8.038 128.612  0.00  0.00    +0.000 A 
ATOM     15  C   UNL     1     -11.847   8.182 129.705  0.00  0.00    +0.000 A 
ATOM     16  C   UNL     1     -11.875   7.246 130.752  0.00  0.00    +0.000 A 
ATOM     17  C   UNL     1     -11.005   6.159 130.653  0.00  0.00    +0.000 A 
ATOM     18  N   UNL     1     -10.800   5.089 131.496  0.00  0.00    +0.000 N 
ATOM     19  C   UNL     1      -8.418   4.233 128.930  0.00  0.00    +0.000 C 
ATOM     20  O   UNL     1      -8.043   4.712 127.866  0.00  0.00    +0.000 OA
ATOM     21  H   UNL     1     -11.291   4.927 132.368  0.00  0.00    +0.000 HD
ENDROOT
BRANCH   6  22
ATOM     22  N   UNL     1      -5.973  -0.296 130.993  0.00  0.00    +0.000 N 
ATOM     23  C   UNL     1      -4.853   0.174 131.757  0.00  0.00    +0.000 C 
ATOM     24  C   UNL     1      -3.798  -0.941 131.571  0.00  0.00    +0.000 C 
ATOM     25  C   UNL     1      -4.393  -2.390 132.068  0.00  0.00    +0.000 C 
ATOM     26  C   UNL     1      -5.613  -2.669 131.174  0.00  0.00    +0.000 C 
ATOM     27  C   UNL     1      -6.626  -1.566 131.312  0.00  0.00    +0.000 C 
BRANCH  25  28
ATOM     28  N   UNL     1      -4.399  -2.751 133.599  0.00  0.00    +0.000 NA
ATOM     29  C   UNL     1      -3.325  -2.422 134.642  0.00  0.00    +0.000 C 
ATOM     30  C   UNL     1      -1.915  -3.014 134.461  0.00  0.00    +0.000 C 
ATOM     31  O   UNL     1      -1.979  -4.445 134.258  0.00  0.00    +0.000 OA
ATOM     32  C   UNL     1      -3.023  -4.720 133.334  0.00  0.00    +0.000 C 
ATOM     33  C   UNL     1      -4.454  -4.250 133.619  0.00  0.00    +0.000 C 
ENDBRANCH  25  28
ENDBRANCH   6  22
BRANCH   1  35
ATOM     34  C   UNL     1      -5.838  -0.653 127.493  0.00  0.00    +0.000 C 
ATOM     35  C   UNL     1      -5.262   0.582 128.129  0.00  0.00    +0.000 C 
ENDBRANCH   1  35
BRANCH  15  36
ATOM     36  C   UNL     1     -12.732   9.329 129.753  0.00  0.00    +0.000 C 
ATOM     37  N   UNL     1     -13.425  10.224 129.791  0.00  0.00    +0.000 NA
ENDBRANCH  15  36
TORSDOF 4
ENDMDL
MODEL 3
REMARK VINA RESULT:      -8.4      2.309      3.781
REMARK  Name = Alectinib
REMARK  7 active torsions:
REMARK  status: ('A' for Active; 'I' for Inactive)
REMARK    1  A    between atoms: C_1  and  C_2
REMARK    2  A    between atoms: C_2  and  C_3
REMARK    3  A    between atoms: C_8  and  N_9
REMARK    4  A    between atoms: C_12  and  N_15
REMARK    5  A    between atoms: C_21  and  C_22
REMARK    6  A    between atoms: C_21  and  C_23
REMARK    7  A    between atoms: C_29  and  C_33
REMARK                            x       y       z     vdW  Elec       q    Type
REMARK                         _______ _______ _______ _____ _____    ______ ____
ROOT
ATOM      1  C   UNL     1      -5.274   0.159 129.273  0.00  0.00    +0.000 A 
ATOM      2  C   UNL     1      -4.718   0.883 130.309  0.00  0.00    +0.000 A 
ATOM      3  C   UNL     1      -4.159   2.138 130.073  0.00  0.00    +0.000 A 
ATOM      4  C   UNL     1      -4.096   2.693 128.791  0.00  0.00    +0.000 A 
ATOM      5  C   UNL     1      -4.670   1.971 127.781  0.00  0.00    +0.000 A 
ATOM      6  C   UNL     1      -5.326   0.766 128.020  0.00  0.00    +0.000 A 
ATOM      7  C   UNL     1      -3.480   4.035 128.441  0.00  0.00    +0.000 C 
ATOM      8  C   UNL     1      -2.268   3.766 127.530  0.00  0.00    +0.000 C 
ATOM      9  C   UNL     1      -4.568   4.904 127.775  0.00  0.00    +0.000 C 
ATOM     10  C   UNL     1      -3.013   4.692 129.694  0.00  0.00    +0.000 A 
ATOM     11  C   UNL     1      -3.081   4.151 130.958  0.00  0.00    +0.000 A 
ATOM     12  C   UNL     1      -2.517   5.071 131.848  0.00  0.00    +0.000 A 
ATOM     13  C   UNL     1      -2.323   5.039 133.234  0.00  0.00    +0.000 A 
ATOM     14  C   UNL     1      -1.717   6.127 133.848  0.00  0.00    +0.000 A 
ATOM     15  C   UNL     1      -1.312   7.228 133.091  0.00  0.00    +0.000 A 
ATOM     16  C   UNL     1      -1.499   7.278 131.699  0.00  0.00    +0.000 A 
ATOM     17  C   UNL     1      -2.109   6.174 131.102  0.00  0.00    +0.000 A 
ATOM     18  N   UNL     1      -2.424   5.922 129.784  0.00  0.00    +0.000 N 
ATOM     19  C   UNL     1      -3.639   2.856 131.240  0.00  0.00    +0.000 C 
ATOM     20  O   UNL     1      -3.700   2.364 132.361  0.00  0.00    +0.000 OA
ATOM     21  H   UNL     1      -2.239   6.545 129.008  0.00  0.00    +0.000 HD
ENDROOT
BRANCH   6  22
ATOM     22  N   UNL     1      -5.925   0.266 126.903  0.00  0.00    +0.000 N 
ATOM     23  C   UNL     1      -7.118   1.015 126.626  0.00  0.00    +0.000 C 
ATOM     24  C   UNL     1      -8.120  -0.064 126.156  0.00  0.00    +0.000 C 
ATOM     25  C   UNL     1      -7.523  -0.883 124.862  0.00  0.00    +0.000 C 
ATOM     26  C   UNL     1      -6.227  -1.550 125.352  0.00  0.00    +0.000 C 
ATOM     27  C   UNL     1      -5.262  -0.511 125.856  0.00  0.00    +0.000 C 
BRANCH  25  28
ATOM     28  N   UNL     1      -7.630  -0.259 123.422  0.00  0.00    +0.000 NA
ATOM     29  C   UNL     1      -8.481   0.938 122.983  0.00  0.00    +0.000 C 
ATOM     30  C   UNL     1     -10.013   0.838 123.102  0.00  0.00    +0.000 C 
ATOM     31  O   UNL     1     -10.502  -0.369 122.473  0.00  0.00    +0.000 OA
ATOM     32  C   UNL     1      -9.656  -1.446 122.852  0.00  0.00    +0.000 C 
ATOM     33  C   UNL     1      -8.150  -1.383 122.576  0.00  0.00    +0.000 C 
ENDBRANCH  25  28
ENDBRANCH   6  22
BRANCH   1  35
ATOM     34  C   UNL     1      -4.768  -2.283 129.137  0.00  0.00    +0.000 C 
ATOM     35  C   UNL     1      -5.749  -1.235 129.585  0.00  0.00    +0.000 C 
ENDBRANCH   1  35
BRANCH  15  36
ATOM     36  C   UNL     1      -0.680   8.345 133.763  0.00  0.00    +0.000 C 
ATOM     37  N   UNL     1      -0.187   9.219 134.288  0.00  0.00    +0.000 NA
ENDBRANCH  15  36
TORSDOF 4
ENDMDL
MODEL 4
REMARK VINA RESULT:      -8.4      2.271      3.385
REMARK  Name = Alectinib
REMARK  7 active torsions:
REMARK  status: ('A' for Active; 'I' for Inactive)
REMARK    1  A    between atoms: C_1  and  C_2
REMARK    2  A    between atoms: C_2  and  C_3
REMARK    3  A    between atoms: C_8  and  N_9
REMARK    4  A    between atoms: C_12  and  N_15
REMARK    5  A    between atoms: C_21  and  C_22
REMARK    6  A    between atoms: C_21  and  C_23
REMARK    7  A    between atoms: C_29  and  C_33
REMARK                            x       y       z     vdW  Elec       q    Type
REMARK                         _______ _______ _______ _____ _____    ______ ____
ROOT
ATOM      1  C   UNL     1      -3.294   4.176 127.720  0.00  0.00    +0.000 A 
ATOM      2  C   UNL     1      -2.507   4.956 128.543  0.00  0.00    +0.000 A 
ATOM      3  C   UNL     1      -2.995   5.404 129.769  0.00  0.00    +0.000 A 
ATOM      4  C   UNL     1      -4.298   5.126 130.196  0.00  0.00    +0.000 A 
ATOM      5  C   UNL     1      -5.055   4.334 129.377  0.00  0.00    +0.000 A 
ATOM      6  C   UNL     1      -4.544   3.793 128.200  0.00  0.00    +0.000 A 
ATOM      7  C   UNL     1      -4.918   5.597 131.498  0.00  0.00    +0.000 C 
ATOM      8  C   UNL     1      -6.078   6.546 131.143  0.00  0.00    +0.000 C 
ATOM      9  C   UNL     1      -5.364   4.353 132.296  0.00  0.00    +0.000 C 
ATOM     10  C   UNL     1      -3.893   6.348 132.276  0.00  0.00    +0.000 A 
ATOM     11  C   UNL     1      -2.608   6.616 131.861  0.00  0.00    +0.000 A 
ATOM     12  C   UNL     1      -1.982   7.362 132.866  0.00  0.00    +0.000 A 
ATOM     13  C   UNL     1      -0.694   7.902 132.970  0.00  0.00    +0.000 A 
ATOM     14  C   UNL     1      -0.361   8.614 134.114  0.00  0.00    +0.000 A 
ATOM     15  C   UNL     1      -1.297   8.785 135.136  0.00  0.00    +0.000 A 
ATOM     16  C   UNL     1      -2.593   8.251 135.050  0.00  0.00    +0.000 A 
ATOM     17  C   UNL     1      -2.908   7.538 133.891  0.00  0.00    +0.000 A 
ATOM     18  N   UNL     1      -4.072   6.908 133.510  0.00  0.00    +0.000 N 
ATOM     19  C   UNL     1      -2.072   6.183 130.600  0.00  0.00    +0.000 C 
ATOM     20  O   UNL     1      -0.932   6.421 130.220  0.00  0.00    +0.000 OA
ATOM     21  H   UNL     1      -4.926   6.873 134.054  0.00  0.00    +0.000 HD
ENDROOT
BRANCH   6  22
ATOM     22  N   UNL     1      -5.420   2.944 127.592  0.00  0.00    +0.000 N 
ATOM     23  C   UNL     1      -5.115   1.593 127.970  0.00  0.00    +0.000 C 
ATOM     24  C   UNL     1      -5.336   0.795 126.664  0.00  0.00    +0.000 C 
ATOM     25  C   UNL     1      -6.868   1.010 126.108  0.00  0.00    +0.000 C 
ATOM     26  C   UNL     1      -7.004   2.516 125.831  0.00  0.00    +0.000 C 
ATOM     27  C   UNL     1      -6.743   3.305 127.085  0.00  0.00    +0.000 C 
BRANCH  25  28
ATOM     28  N   UNL     1      -8.051   0.181 126.730  0.00  0.00    +0.000 NA
ATOM     29  C   UNL     1      -8.196  -1.344 126.786  0.00  0.00    +0.000 C 
ATOM     30  C   UNL     1      -8.286  -2.125 125.462  0.00  0.00    +0.000 C 
ATOM     31  O   UNL     1      -9.304  -1.567 124.601  0.00  0.00    +0.000 OA
ATOM     32  C   UNL     1      -9.179  -0.151 124.620  0.00  0.00    +0.000 C 
ATOM     33  C   UNL     1      -9.253   0.616 125.945  0.00  0.00    +0.000 C 
ENDBRANCH  25  28
ENDBRANCH   6  22
BRANCH   1  35
ATOM     34  C   UNL     1      -1.539   2.932 126.449  0.00  0.00    +0.000 C 
ATOM     35  C   UNL     1      -2.741   3.833 126.362  0.00  0.00    +0.000 C 
ENDBRANCH   1  35
BRANCH  15  36
ATOM     36  C   UNL     1      -0.916   9.537 136.316  0.00  0.00    +0.000 C 
ATOM     37  N   UNL     1      -0.620  10.123 137.238  0.00  0.00    +0.000 NA
ENDBRANCH  15  36
TORSDOF 4
ENDMDL
MODEL 5
REMARK VINA RESULT:      -8.2      2.706     10.491
REMARK  Name = Alectinib
REMARK  7 active torsions:
REMARK  status: ('A' for Active; 'I' for Inactive)
REMARK    1  A    between atoms: C_1  and  C_2
REMARK    2  A    between atoms: C_2  and  C_3
REMARK    3  A    between atoms: C_8  and  N_9
REMARK    4  A    between atoms: C_12  and  N_15
REMARK    5  A    between atoms: C_21  and  C_22
REMARK    6  A    between atoms: C_21  and  C_23
REMARK    7  A    between atoms: C_29  and  C_33
REMARK                            x       y       z     vdW  Elec       q    Type
REMARK                         _______ _______ _______ _____ _____    ______ ____
ROOT
ATOM      1  C   UNL     1      -6.582   5.732 130.552  0.00  0.00    +0.000 A 
ATOM      2  C   UNL     1      -7.350   4.823 129.854  0.00  0.00    +0.000 A 
ATOM      3  C   UNL     1      -6.772   4.009 128.881  0.00  0.00    +0.000 A 
ATOM      4  C   UNL     1      -5.419   4.105 128.542  0.00  0.00    +0.000 A 
ATOM      5  C   UNL     1      -4.668   4.996 129.259  0.00  0.00    +0.000 A 
ATOM      6  C   UNL     1      -5.211   5.739 130.306  0.00  0.00    +0.000 A 
ATOM      7  C   UNL     1      -4.716   3.282 127.479  0.00  0.00    +0.000 C 
ATOM      8  C   UNL     1      -4.251   4.249 126.375  0.00  0.00    +0.000 C 
ATOM      9  C   UNL     1      -3.557   2.516 128.152  0.00  0.00    +0.000 C 
ATOM     10  C   UNL     1      -5.687   2.311 126.901  0.00  0.00    +0.000 A 
ATOM     11  C   UNL     1      -7.018   2.210 127.239  0.00  0.00    +0.000 A 
ATOM     12  C   UNL     1      -7.582   1.197 126.454  0.00  0.00    +0.000 A 
ATOM     13  C   UNL     1      -8.882   0.683 126.378  0.00  0.00    +0.000 A 
ATOM     14  C   UNL     1      -9.141  -0.342 125.479  0.00  0.00    +0.000 A 
ATOM     15  C   UNL     1      -8.121  -0.843 124.668  0.00  0.00    +0.000 A 
ATOM     16  C   UNL     1      -6.811  -0.339 124.729  0.00  0.00    +0.000 A 
ATOM     17  C   UNL     1      -6.571   0.691 125.641  0.00  0.00    +0.000 A 
ATOM     18  N   UNL     1      -5.418   1.386 125.932  0.00  0.00    +0.000 N 
ATOM     19  C   UNL     1      -7.654   3.039 128.226  0.00  0.00    +0.000 C 
ATOM     20  O   UNL     1      -8.838   2.959 128.530  0.00  0.00    +0.000 OA
ATOM     21  H   UNL     1      -4.518   1.240 125.490  0.00  0.00    +0.000 HD
ENDROOT
BRANCH   6  22
ATOM     22  N   UNL     1      -4.273   6.478 130.962  0.00  0.00    +0.000 N 
ATOM     23  C   UNL     1      -3.837   5.767 132.130  0.00  0.00    +0.000 C 
ATOM     24  C   UNL     1      -3.683   6.880 133.192  0.00  0.00    +0.000 C 
ATOM     25  C   UNL     1      -2.633   8.033 132.674  0.00  0.00    +0.000 C 
ATOM     26  C   UNL     1      -3.251   8.615 131.392  0.00  0.00    +0.000 C 
ATOM     27  C   UNL     1      -3.450   7.531 130.368  0.00  0.00    +0.000 C 
BRANCH  25  28
ATOM     28  N   UNL     1      -1.083   7.796 132.801  0.00  0.00    +0.000 NA
ATOM     29  C   UNL     1      -0.358   6.850 133.765  0.00  0.00    +0.000 C 
ATOM     30  C   UNL     1      -0.491   7.095 135.279  0.00  0.00    +0.000 C 
ATOM     31  O   UNL     1      -0.175   8.467 135.610  0.00  0.00    +0.000 OA
ATOM     32  C   UNL     1      -0.812   9.313 134.662  0.00  0.00    +0.000 C 
ATOM     33  C   UNL     1      -0.537   9.146 133.164  0.00  0.00    +0.000 C 
ENDBRANCH  25  28
ENDBRANCH   6  22
BRANCH   1  35
ATOM     34  C   UNL     1      -8.773   6.739 131.207  0.00  0.00    +0.000 C 
ATOM     35  C   UNL     1      -7.300   6.657 131.499  0.00  0.00    +0.000 C 
ENDBRANCH   1  35
BRANCH  15  36
ATOM     36  C   UNL     1      -8.428  -1.911 123.736  0.00  0.00    +0.000 C 
ATOM     37  N   UNL     1      -8.667  -2.743 123.007  0.00  0.00    +0.000 NA
ENDBRANCH  15  36
TORSDOF 4
ENDMDL
MODEL 6
REMARK VINA RESULT:      -8.2      4.419      5.576
REMARK  Name = Alectinib
REMARK  7 active torsions:
REMARK  status: ('A' for Active; 'I' for Inactive)
REMARK    1  A    between atoms: C_1  and  C_2
REMARK    2  A    between atoms: C_2  and  C_3
REMARK    3  A    between atoms: C_8  and  N_9
REMARK    4  A    between atoms: C_12  and  N_15
REMARK    5  A    between atoms: C_21  and  C_22
REMARK    6  A    between atoms: C_21  and  C_23
REMARK    7  A    between atoms: C_29  and  C_33
REMARK                            x       y       z     vdW  Elec       q    Type
REMARK                         _______ _______ _______ _____ _____    ______ ____
ROOT
ATOM      1  C   UNL     1      -5.145  -0.333 130.424  0.00  0.00    +0.000 A 
ATOM      2  C   UNL     1      -4.914   0.464 131.528  0.00  0.00    +0.000 A 
ATOM      3  C   UNL     1      -5.879   1.375 131.956  0.00  0.00    +0.000 A 
ATOM      4  C   UNL     1      -7.086   1.552 131.273  0.00  0.00    +0.000 A 
ATOM      5  C   UNL     1      -7.307   0.740 130.195  0.00  0.00    +0.000 A 
ATOM      6  C   UNL     1      -6.398  -0.247 129.820  0.00  0.00    +0.000 A 
ATOM      7  C   UNL     1      -8.175   2.539 131.651  0.00  0.00    +0.000 C 
ATOM      8  C   UNL     1      -8.286   3.568 130.511  0.00  0.00    +0.000 C 
ATOM      9  C   UNL     1      -9.478   1.747 131.892  0.00  0.00    +0.000 C 
ATOM     10  C   UNL     1      -7.777   3.240 132.904  0.00  0.00    +0.000 A 
ATOM     11  C   UNL     1      -6.593   3.060 133.582  0.00  0.00    +0.000 A 
ATOM     12  C   UNL     1      -6.598   3.919 134.687  0.00  0.00    +0.000 A 
ATOM     13  C   UNL     1      -5.660   4.153 135.699  0.00  0.00    +0.000 A 
ATOM     14  C   UNL     1      -5.955   5.092 136.678  0.00  0.00    +0.000 A 
ATOM     15  C   UNL     1      -7.166   5.786 136.646  0.00  0.00    +0.000 A 
ATOM     16  C   UNL     1      -8.120   5.566 135.638  0.00  0.00    +0.000 A 
ATOM     17  C   UNL     1      -7.803   4.618 134.664  0.00  0.00    +0.000 A 
ATOM     18  N   UNL     1      -8.511   4.185 133.564  0.00  0.00    +0.000 N 
ATOM     19  C   UNL     1      -5.569   2.141 133.166  0.00  0.00    +0.000 C 
ATOM     20  O   UNL     1      -4.509   1.978 133.761  0.00  0.00    +0.000 OA
ATOM     21  H   UNL     1      -9.425   4.521 133.286  0.00  0.00    +0.000 HD
ENDROOT
BRANCH   6  22
ATOM     22  N   UNL     1      -6.857  -1.019 128.795  0.00  0.00    +0.000 N 
ATOM     23  C   UNL     1      -6.715  -0.304 127.559  0.00  0.00    +0.000 C 
ATOM     24  C   UNL     1      -8.004  -0.666 126.785  0.00  0.00    +0.000 C 
ATOM     25  C   UNL     1      -8.136  -2.294 126.610  0.00  0.00    +0.000 C 
ATOM     26  C   UNL     1      -8.206  -2.863 128.037  0.00  0.00    +0.000 C 
ATOM     27  C   UNL     1      -6.978  -2.476 128.815  0.00  0.00    +0.000 C 
BRANCH  25  28
ATOM     28  N   UNL     1      -7.333  -3.028 125.474  0.00  0.00    +0.000 NA
ATOM     29  C   UNL     1      -6.668  -2.401 124.244  0.00  0.00    +0.000 C 
ATOM     30  C   UNL     1      -7.556  -1.681 123.212  0.00  0.00    +0.000 C 
ATOM     31  O   UNL     1      -8.655  -2.525 122.799  0.00  0.00    +0.000 OA
ATOM     32  C   UNL     1      -9.209  -3.137 123.956  0.00  0.00    +0.000 C 
ATOM     33  C   UNL     1      -8.328  -3.982 124.882  0.00  0.00    +0.000 C 
ENDBRANCH  25  28
ENDBRANCH   6  22
BRANCH   1  35
ATOM     34  C   UNL     1      -3.578  -2.190 131.004  0.00  0.00    +0.000 C 
ATOM     35  C   UNL     1      -4.011  -1.204 129.954  0.00  0.00    +0.000 C 
ENDBRANCH   1  35
BRANCH  15  36
ATOM     36  C   UNL     1      -7.441   6.762 137.682  0.00  0.00    +0.000 C 
ATOM     37  N   UNL     1      -7.657   7.525 138.490  0.00  0.00    +0.000 NA
ENDBRANCH  15  36
TORSDOF 4
ENDMDL
MODEL 7
REMARK VINA RESULT:      -8.1      3.349      4.954
REMARK  Name = Alectinib
REMARK  7 active torsions:
REMARK  status: ('A' for Active; 'I' for Inactive)
REMARK    1  A    between atoms: C_1  and  C_2
REMARK    2  A    between atoms: C_2  and  C_3
REMARK    3  A    between atoms: C_8  and  N_9
REMARK    4  A    between atoms: C_12  and  N_15
REMARK    5  A    between atoms: C_21  and  C_22
REMARK    6  A    between atoms: C_21  and  C_23
REMARK    7  A    between atoms: C_29  and  C_33
REMARK                            x       y       z     vdW  Elec       q    Type
REMARK                         _______ _______ _______ _____ _____    ______ ____
ROOT
ATOM      1  C   UNL     1      -7.257  -0.900 130.091  0.00  0.00    +0.000 A 
ATOM      2  C   UNL     1      -7.211  -0.228 131.296  0.00  0.00    +0.000 A 
ATOM      3  C   UNL     1      -6.654   1.048 131.373  0.00  0.00    +0.000 A 
ATOM      4  C   UNL     1      -6.087   1.678 130.261  0.00  0.00    +0.000 A 
ATOM      5  C   UNL     1      -6.161   1.007 129.071  0.00  0.00    +0.000 A 
ATOM      6  C   UNL     1      -6.809  -0.222 128.960  0.00  0.00    +0.000 A 
ATOM      7  C   UNL     1      -5.436   3.048 130.261  0.00  0.00    +0.000 C 
ATOM      8  C   UNL     1      -3.946   2.854 129.926  0.00  0.00    +0.000 C 
ATOM      9  C   UNL     1      -6.184   3.936 129.244  0.00  0.00    +0.000 C 
ATOM     10  C   UNL     1      -5.557   3.639 131.623  0.00  0.00    +0.000 A 
ATOM     11  C   UNL     1      -6.122   3.024 132.717  0.00  0.00    +0.000 A 
ATOM     12  C   UNL     1      -6.016   3.900 133.803  0.00  0.00    +0.000 A 
ATOM     13  C   UNL     1      -6.412   3.790 135.141  0.00  0.00    +0.000 A 
ATOM     14  C   UNL     1      -6.160   4.851 136.001  0.00  0.00    +0.000 A 
ATOM     15  C   UNL     1      -5.522   6.001 135.533  0.00  0.00    +0.000 A 
ATOM     16  C   UNL     1      -5.116   6.129 134.194  0.00  0.00    +0.000 A 
ATOM     17  C   UNL     1      -5.380   5.052 133.346  0.00  0.00    +0.000 A 
ATOM     18  N   UNL     1      -5.109   4.872 132.007  0.00  0.00    +0.000 N 
ATOM     19  C   UNL     1      -6.694   1.705 132.682  0.00  0.00    +0.000 C 
ATOM     20  O   UNL     1      -7.195   1.148 133.652  0.00  0.00    +0.000 OA
ATOM     21  H   UNL     1      -4.643   5.542 131.408  0.00  0.00    +0.000 HD
ENDROOT
BRANCH   6  22
ATOM     22  N   UNL     1      -6.870  -0.665 127.673  0.00  0.00    +0.000 N 
ATOM     23  C   UNL     1      -8.094  -0.216 127.071  0.00  0.00    +0.000 C 
ATOM     24  C   UNL     1      -8.538  -1.424 126.215  0.00  0.00    +0.000 C 
ATOM     25  C   UNL     1      -7.367  -1.831 125.136  0.00  0.00    +0.000 C 
ATOM     26  C   UNL     1      -6.138  -2.211 125.979  0.00  0.00    +0.000 C 
ATOM     27  C   UNL     1      -5.725  -1.057 126.851  0.00  0.00    +0.000 C 
BRANCH  25  28
ATOM     28  N   UNL     1      -7.223  -1.025 123.794  0.00  0.00    +0.000 NA
ATOM     29  C   UNL     1      -7.879   0.312 123.432  0.00  0.00    +0.000 C 
ATOM     30  C   UNL     1      -9.416   0.386 123.364  0.00  0.00    +0.000 C 
ATOM     31  O   UNL     1      -9.945  -0.664 122.522  0.00  0.00    +0.000 OA
ATOM     32  C   UNL     1      -9.274  -1.875 122.841  0.00  0.00    +0.000 C 
ATOM     33  C   UNL     1      -7.746  -1.963 122.747  0.00  0.00    +0.000 C 
ENDBRANCH  25  28
ENDBRANCH   6  22
BRANCH   1  35
ATOM     34  C   UNL     1      -6.646  -3.321 130.013  0.00  0.00    +0.000 C 
ATOM     35  C   UNL     1      -7.763  -2.318 130.112  0.00  0.00    +0.000 C 
ENDBRANCH   1  35
BRANCH  15  36
ATOM     36  C   UNL     1      -5.271   7.088 136.458  0.00  0.00    +0.000 C 
ATOM     37  N   UNL     1      -5.076   7.937 137.181  0.00  0.00    +0.000 NA
ENDBRANCH  15  36
TORSDOF 4
ENDMDL
MODEL 8
REMARK VINA RESULT:      -8.1      3.727      8.283
REMARK  Name = Alectinib
REMARK  7 active torsions:
REMARK  status: ('A' for Active; 'I' for Inactive)
REMARK    1  A    between atoms: C_1  and  C_2
REMARK    2  A    between atoms: C_2  and  C_3
REMARK    3  A    between atoms: C_8  and  N_9
REMARK    4  A    between atoms: C_12  and  N_15
REMARK    5  A    between atoms: C_21  and  C_22
REMARK    6  A    between atoms: C_21  and  C_23
REMARK    7  A    between atoms: C_29  and  C_33
REMARK                            x       y       z     vdW  Elec       q    Type
REMARK                         _______ _______ _______ _____ _____    ______ ____
ROOT
ATOM      1  C   UNL     1      -5.028   2.012 128.968  0.00  0.00    +0.000 A 
ATOM      2  C   UNL     1      -4.678   2.692 127.819  0.00  0.00    +0.000 A 
ATOM      3  C   UNL     1      -5.419   2.532 126.650  0.00  0.00    +0.000 A 
ATOM      4  C   UNL     1      -6.507   1.657 126.575  0.00  0.00    +0.000 A 
ATOM      5  C   UNL     1      -6.853   1.008 127.729  0.00  0.00    +0.000 A 
ATOM      6  C   UNL     1      -6.186   1.239 128.930  0.00  0.00    +0.000 A 
ATOM      7  C   UNL     1      -7.349   1.401 125.339  0.00  0.00    +0.000 C 
ATOM      8  C   UNL     1      -7.144  -0.071 124.935  0.00  0.00    +0.000 C 
ATOM      9  C   UNL     1      -8.815   1.747 125.675  0.00  0.00    +0.000 C 
ATOM     10  C   UNL     1      -6.868   2.280 124.238  0.00  0.00    +0.000 A 
ATOM     11  C   UNL     1      -5.802   3.148 124.311  0.00  0.00    +0.000 A 
ATOM     12  C   UNL     1      -5.665   3.765 123.062  0.00  0.00    +0.000 A 
ATOM     13  C   UNL     1      -4.759   4.715 122.578  0.00  0.00    +0.000 A 
ATOM     14  C   UNL     1      -4.877   5.140 121.262  0.00  0.00    +0.000 A 
ATOM     15  C   UNL     1      -5.883   4.624 120.443  0.00  0.00    +0.000 A 
ATOM     16  C   UNL     1      -6.802   3.669 120.910  0.00  0.00    +0.000 A 
ATOM     17  C   UNL     1      -6.665   3.256 122.237  0.00  0.00    +0.000 A 
ATOM     18  N   UNL     1      -7.392   2.349 122.977  0.00  0.00    +0.000 N 
ATOM     19  C   UNL     1      -5.005   3.332 125.494  0.00  0.00    +0.000 C 
ATOM     20  O   UNL     1      -4.052   4.098 125.567  0.00  0.00    +0.000 OA
ATOM     21  H   UNL     1      -8.181   1.814 122.637  0.00  0.00    +0.000 HD
ENDROOT
BRANCH   6  22
ATOM     22  N   UNL     1      -6.757   0.583 129.979  0.00  0.00    +0.000 N 
ATOM     23  C   UNL     1      -6.000  -0.601 130.270  0.00  0.00    +0.000 C 
ATOM     24  C   UNL     1      -7.085  -1.648 130.612  0.00  0.00    +0.000 C 
ATOM     25  C   UNL     1      -8.023  -1.124 131.856  0.00  0.00    +0.000 C 
ATOM     26  C   UNL     1      -8.684   0.174 131.363  0.00  0.00    +0.000 C 
ATOM     27  C   UNL     1      -7.635   1.183 130.983  0.00  0.00    +0.000 C 
BRANCH  25  28
ATOM     28  N   UNL     1      -7.515  -1.274 133.337  0.00  0.00    +0.000 NA
ATOM     29  C   UNL     1      -6.063  -1.303 133.829  0.00  0.00    +0.000 C 
ATOM     30  C   UNL     1      -5.145  -2.444 133.351  0.00  0.00    +0.000 C 
ATOM     31  O   UNL     1      -5.765  -3.732 133.574  0.00  0.00    +0.000 OA
ATOM     32  C   UNL     1      -7.124  -3.652 133.164  0.00  0.00    +0.000 C 
ATOM     33  C   UNL     1      -8.057  -2.601 133.777  0.00  0.00    +0.000 C 
ENDBRANCH  25  28
ENDBRANCH   6  22
BRANCH   1  35
ATOM     34  C   UNL     1      -4.171   3.514 130.771  0.00  0.00    +0.000 C 
ATOM     35  C   UNL     1      -4.110   2.144 130.154  0.00  0.00    +0.000 C 
ENDBRANCH   1  35
BRANCH  15  36
ATOM     36  C   UNL     1      -5.976   5.087 119.072  0.00  0.00    +0.000 C 
ATOM     37  N   UNL     1      -6.046   5.447 118.001  0.00  0.00    +0.000 NA
ENDBRANCH  15  36
TORSDOF 4
ENDMDL
MODEL 9
REMARK VINA RESULT:      -8.0      1.910      3.311
REMARK  Name = Alectinib
REMARK  7 active torsions:
REMARK  status: ('A' for Active; 'I' for Inactive)
REMARK    1  A    between atoms: C_1  and  C_2
REMARK    2  A    between atoms: C_2  and  C_3
REMARK    3  A    between atoms: C_8  and  N_9
REMARK    4  A    between atoms: C_12  and  N_15
REMARK    5  A    between atoms: C_21  and  C_22
REMARK    6  A    between atoms: C_21  and  C_23
REMARK    7  A    between atoms: C_29  and  C_33
REMARK                            x       y       z     vdW  Elec       q    Type
REMARK                         _______ _______ _______ _____ _____    ______ ____
ROOT
ATOM      1  C   UNL     1      -6.802   0.775 129.721  0.00  0.00    +0.000 A 
ATOM      2  C   UNL     1      -6.085   1.424 130.706  0.00  0.00    +0.000 A 
ATOM      3  C   UNL     1      -5.177   2.428 130.375  0.00  0.00    +0.000 A 
ATOM      4  C   UNL     1      -4.923   2.789 129.048  0.00  0.00    +0.000 A 
ATOM      5  C   UNL     1      -5.657   2.151 128.086  0.00  0.00    +0.000 A 
ATOM      6  C   UNL     1      -6.642   1.221 128.411  0.00  0.00    +0.000 A 
ATOM      7  C   UNL     1      -3.933   3.848 128.598  0.00  0.00    +0.000 C 
ATOM      8  C   UNL     1      -2.829   3.138 127.791  0.00  0.00    +0.000 C 
ATOM      9  C   UNL     1      -4.702   4.910 127.783  0.00  0.00    +0.000 C 
ATOM     10  C   UNL     1      -3.326   4.483 129.800  0.00  0.00    +0.000 A 
ATOM     11  C   UNL     1      -3.582   4.135 131.107  0.00  0.00    +0.000 A 
ATOM     12  C   UNL     1      -2.796   4.951 131.929  0.00  0.00    +0.000 A 
ATOM     13  C   UNL     1      -2.655   5.025 133.320  0.00  0.00    +0.000 A 
ATOM     14  C   UNL     1      -1.774   5.957 133.851  0.00  0.00    +0.000 A 
ATOM     15  C   UNL     1      -1.045   6.799 133.009  0.00  0.00    +0.000 A 
ATOM     16  C   UNL     1      -1.174   6.739 131.611  0.00  0.00    +0.000 A 
ATOM     17  C   UNL     1      -2.065   5.796 131.097  0.00  0.00    +0.000 A 
ATOM     18  N   UNL     1      -2.406   5.494 129.797  0.00  0.00    +0.000 N 
ATOM     19  C   UNL     1      -4.500   3.097 131.489  0.00  0.00    +0.000 C 
ATOM     20  O   UNL     1      -4.730   2.777 132.650  0.00  0.00    +0.000 OA
ATOM     21  H   UNL     1      -2.027   5.943 128.972  0.00  0.00    +0.000 HD
ENDROOT
BRANCH   6  22
ATOM     22  N   UNL     1      -7.333   0.790 127.318  0.00  0.00    +0.000 N 
ATOM     23  C   UNL     1      -6.730  -0.413 126.817  0.00  0.00    +0.000 C 
ATOM     24  C   UNL     1      -6.817  -0.247 125.283  0.00  0.00    +0.000 C 
ATOM     25  C   UNL     1      -8.377  -0.028 124.812  0.00  0.00    +0.000 C 
ATOM     26  C   UNL     1      -8.845   1.262 125.506  0.00  0.00    +0.000 C 
ATOM     27  C   UNL     1      -8.719   1.129 126.999  0.00  0.00    +0.000 C 
BRANCH  25  28
ATOM     28  N   UNL     1      -9.331  -1.269 124.660  0.00  0.00    +0.000 NA
ATOM     29  C   UNL     1      -9.317  -2.565 125.478  0.00  0.00    +0.000 C 
ATOM     30  C   UNL     1      -8.067  -3.462 125.418  0.00  0.00    +0.000 C 
ATOM     31  O   UNL     1      -7.699  -3.743 124.048  0.00  0.00    +0.000 OA
ATOM     32  C   UNL     1      -7.781  -2.534 123.305  0.00  0.00    +0.000 C 
ATOM     33  C   UNL     1      -9.092  -1.742 123.256  0.00  0.00    +0.000 C 
ENDBRANCH  25  28
ENDBRANCH   6  22
BRANCH   1  35
ATOM     34  C   UNL     1      -8.647   0.014 131.223  0.00  0.00    +0.000 C 
ATOM     35  C   UNL     1      -7.671  -0.377 130.147  0.00  0.00    +0.000 C 
ENDBRANCH   1  35
BRANCH  15  36
ATOM     36  C   UNL     1      -0.131   7.758 133.598  0.00  0.00    +0.000 C 
ATOM     37  N   UNL     1       0.582   8.507 134.058  0.00  0.00    +0.000 NA
ENDBRANCH  15  36
TORSDOF 4
ENDMDL
