MODEL 1
REMARK VINA RESULT:      -5.5      0.000      0.000
REMARK  Name = Alendronic acid
REMARK  11 active torsions:
REMARK  status: ('A' for Active; 'I' for Inactive)
REMARK    1  A    between atoms: N_1  and  C_2
REMARK    2  A    between atoms: C_2  and  C_3
REMARK    3  A    between atoms: C_3  and  C_4
REMARK    4  A    between atoms: C_4  and  C_5
REMARK    5  A    between atoms: C_5  and  O_6
REMARK    6  A    between atoms: C_5  and  P_7
REMARK    7  A    between atoms: C_5  and  P_11
REMARK    8  A    between atoms: P_7  and  O_8
REMARK    9  A    between atoms: P_7  and  O_9
REMARK   10  A    between atoms: P_11  and  O_12
REMARK   11  A    between atoms: P_11  and  O_13
REMARK                            x       y       z     vdW  Elec       q    Type
REMARK                         _______ _______ _______ _____ _____    ______ ____
ROOT
ATOM      1  C   UNL     1     -11.131   7.006 128.530  0.00  0.00    +0.000 C 
ENDROOT
BRANCH   1   2
ATOM      2  O   UNL     1     -12.124   5.945 128.648  0.00  0.00    +0.000 OA
ATOM      3  H   UNL     1     -11.822   5.261 129.266  0.00  0.00    +0.000 HD
ENDBRANCH   1   2
BRANCH   1   4
ATOM      4  P   UNL     1     -10.945   7.563 126.797  0.00  0.00    +0.000 P 
ATOM      5  O   UNL     1     -10.787   8.035 125.331  0.00  0.00    +0.000 OA
BRANCH   4   6
ATOM      6  O   UNL     1      -9.813   6.373 126.551  0.00  0.00    +0.000 OA
ATOM      7  H   UNL     1      -8.894   6.677 126.379  0.00  0.00    +0.000 HD
ENDBRANCH   4   6
BRANCH   4   8
ATOM      8  O   UNL     1     -12.136   6.548 126.278  0.00  0.00    +0.000 OA
ATOM      9  H   UNL     1     -12.209   5.577 126.320  0.00  0.00    +0.000 HD
ENDBRANCH   4   8
ENDBRANCH   1   4
BRANCH   1  10
ATOM     10  P   UNL     1      -9.561   6.263 129.104  0.00  0.00    +0.000 P 
ATOM     11  O   UNL     1      -8.231   5.634 129.590  0.00  0.00    +0.000 OA
BRANCH  10  12
ATOM     12  O   UNL     1      -9.622   7.128 130.490  0.00  0.00    +0.000 OA
ATOM     13  H   UNL     1      -9.083   6.846 131.267  0.00  0.00    +0.000 HD
ENDBRANCH  10  12
BRANCH  10  14
ATOM     14  O   UNL     1     -10.491   4.975 129.559  0.00  0.00    +0.000 OA
ATOM     15  H   UNL     1     -10.747   4.354 128.844  0.00  0.00    +0.000 HD
ENDBRANCH  10  14
ENDBRANCH   1  10
BRANCH   1  16
ATOM     16  C   UNL     1     -11.531   8.182 129.486  0.00  0.00    +0.000 C 
BRANCH  16  17
ATOM     17  C   UNL     1     -12.916   8.054 130.119  0.00  0.00    +0.000 C 
BRANCH  17  18
ATOM     18  C   UNL     1     -12.923   7.712 131.596  0.00  0.00    +0.000 C 
BRANCH  18  19
ATOM     19  N   UNL     1     -12.308   6.398 131.719  0.00  0.00    +0.000 NA
ATOM     20  H   UNL     1     -12.558   5.968 132.607  0.00  0.00    +0.000 HD
ATOM     21  H   UNL     1     -11.291   6.465 131.705  0.00  0.00    +0.000 HD
ENDBRANCH  18  19
ENDBRANCH  17  18
ENDBRANCH  16  17
ENDBRANCH   1  16
TORSDOF 11
ENDMDL
MODEL 2
REMARK VINA RESULT:      -5.4      1.907      2.004
REMARK  Name = Alendronic acid
REMARK  11 active torsions:
REMARK  status: ('A' for Active; 'I' for Inactive)
REMARK    1  A    between atoms: N_1  and  C_2
REMARK    2  A    between atoms: C_2  and  C_3
REMARK    3  A    between atoms: C_3  and  C_4
REMARK    4  A    between atoms: C_4  and  C_5
REMARK    5  A    between atoms: C_5  and  O_6
REMARK    6  A    between atoms: C_5  and  P_7
REMARK    7  A    between atoms: C_5  and  P_11
REMARK    8  A    between atoms: P_7  and  O_8
REMARK    9  A    between atoms: P_7  and  O_9
REMARK   10  A    between atoms: P_11  and  O_12
REMARK   11  A    between atoms: P_11  and  O_13
REMARK                            x       y       z     vdW  Elec       q    Type
REMARK                         _______ _______ _______ _____ _____    ______ ____
ROOT
ATOM      1  C   UNL     1     -11.552   7.171 128.646  0.00  0.00    +0.000 C 
ENDROOT
BRANCH   1   2
ATOM      2  O   UNL     1     -12.667   6.233 128.680  0.00  0.00    +0.000 OA
ATOM      3  H   UNL     1     -13.177   6.278 127.857  0.00  0.00    +0.000 HD
ENDBRANCH   1   2
BRANCH   1   4
ATOM      4  P   UNL     1     -11.142   7.668 126.933  0.00  0.00    +0.000 P 
ATOM      5  O   UNL     1     -10.795   8.088 125.484  0.00  0.00    +0.000 OA
BRANCH   4   6
ATOM      6  O   UNL     1      -9.871   6.600 126.943  0.00  0.00    +0.000 OA
ATOM      7  H   UNL     1      -9.449   6.434 127.816  0.00  0.00    +0.000 HD
ENDBRANCH   4   6
BRANCH   4   8
ATOM      8  O   UNL     1     -12.123   6.505 126.296  0.00  0.00    +0.000 OA
ATOM      9  H   UNL     1     -13.036   6.557 125.958  0.00  0.00    +0.000 HD
ENDBRANCH   4   8
ENDBRANCH   1   4
BRANCH   1  10
ATOM     10  P   UNL     1     -10.138   6.266 129.374  0.00  0.00    +0.000 P 
ATOM     11  O   UNL     1      -8.941   5.500 129.990  0.00  0.00    +0.000 OA
BRANCH  10  12
ATOM     12  O   UNL     1      -9.304   7.660 129.566  0.00  0.00    +0.000 OA
ATOM     13  H   UNL     1      -9.790   8.497 129.762  0.00  0.00    +0.000 HD
ENDBRANCH  10  12
BRANCH  10  14
ATOM     14  O   UNL     1     -11.014   6.290 130.774  0.00  0.00    +0.000 OA
ATOM     15  H   UNL     1     -10.981   5.473 131.317  0.00  0.00    +0.000 HD
ENDBRANCH  10  14
ENDBRANCH   1  10
BRANCH   1  16
ATOM     16  C   UNL     1     -11.899   8.405 129.548  0.00  0.00    +0.000 C 
BRANCH  16  17
ATOM     17  C   UNL     1     -12.941   9.358 128.962  0.00  0.00    +0.000 C 
BRANCH  17  18
ATOM     18  C   UNL     1     -13.427  10.443 129.903  0.00  0.00    +0.000 C 
BRANCH  18  19
ATOM     19  N   UNL     1     -13.364  11.693 129.159  0.00  0.00    +0.000 NA
ATOM     20  H   UNL     1     -12.469  11.781 128.682  0.00  0.00    +0.000 HD
ATOM     21  H   UNL     1     -13.441  12.496 129.782  0.00  0.00    +0.000 HD
ENDBRANCH  18  19
ENDBRANCH  17  18
ENDBRANCH  16  17
ENDBRANCH   1  16
TORSDOF 11
ENDMDL
MODEL 3
REMARK VINA RESULT:      -5.4      2.098      3.502
REMARK  Name = Alendronic acid
REMARK  11 active torsions:
REMARK  status: ('A' for Active; 'I' for Inactive)
REMARK    1  A    between atoms: N_1  and  C_2
REMARK    2  A    between atoms: C_2  and  C_3
REMARK    3  A    between atoms: C_3  and  C_4
REMARK    4  A    between atoms: C_4  and  C_5
REMARK    5  A    between atoms: C_5  and  O_6
REMARK    6  A    between atoms: C_5  and  P_7
REMARK    7  A    between atoms: C_5  and  P_11
REMARK    8  A    between atoms: P_7  and  O_8
REMARK    9  A    between atoms: P_7  and  O_9
REMARK   10  A    between atoms: P_11  and  O_12
REMARK   11  A    between atoms: P_11  and  O_13
REMARK                            x       y       z     vdW  Elec       q    Type
REMARK                         _______ _______ _______ _____ _____    ______ ____
ROOT
ATOM      1  C   UNL     1     -11.421   7.339 128.619  0.00  0.00    +0.000 C 
ENDROOT
BRANCH   1   2
ATOM      2  O   UNL     1     -12.201   6.108 128.657  0.00  0.00    +0.000 OA
ATOM      3  H   UNL     1     -11.728   5.418 129.147  0.00  0.00    +0.000 HD
ENDBRANCH   1   2
BRANCH   1   4
ATOM      4  P   UNL     1     -12.362   8.754 129.297  0.00  0.00    +0.000 P 
ATOM      5  O   UNL     1     -13.159   9.951 129.870  0.00  0.00    +0.000 OA
BRANCH   4   6
ATOM      6  O   UNL     1     -13.509   8.539 128.115  0.00  0.00    +0.000 OA
ATOM      7  H   UNL     1     -13.183   8.208 127.248  0.00  0.00    +0.000 HD
ENDBRANCH   4   6
BRANCH   4   8
ATOM      8  O   UNL     1     -13.217   7.776 130.314  0.00  0.00    +0.000 OA
ATOM      9  H   UNL     1     -13.843   7.993 131.029  0.00  0.00    +0.000 HD
ENDBRANCH   4   8
ENDBRANCH   1   4
BRANCH   1  10
ATOM     10  P   UNL     1     -11.070   7.633 126.847  0.00  0.00    +0.000 P 
ATOM     11  O   UNL     1     -10.773   7.881 125.347  0.00  0.00    +0.000 OA
BRANCH  10  12
ATOM     12  O   UNL     1      -9.826   6.572 126.886  0.00  0.00    +0.000 OA
ATOM     13  H   UNL     1      -9.660   5.984 126.111  0.00  0.00    +0.000 HD
ENDBRANCH  10  12
BRANCH  10  14
ATOM     14  O   UNL     1     -12.307   6.574 126.563  0.00  0.00    +0.000 OA
ATOM     15  H   UNL     1     -12.395   5.833 127.201  0.00  0.00    +0.000 HD
ENDBRANCH  10  14
ENDBRANCH   1  10
BRANCH   1  16
ATOM     16  C   UNL     1     -10.073   7.109 129.385  0.00  0.00    +0.000 C 
BRANCH  16  17
ATOM     17  C   UNL     1     -10.066   5.905 130.327  0.00  0.00    +0.000 C 
BRANCH  17  18
ATOM     18  C   UNL     1     -10.409   6.214 131.771  0.00  0.00    +0.000 C 
BRANCH  18  19
ATOM     19  N   UNL     1     -11.831   5.941 131.926  0.00  0.00    +0.000 NA
ATOM     20  H   UNL     1     -12.043   4.984 131.650  0.00  0.00    +0.000 HD
ATOM     21  H   UNL     1     -12.390   6.546 131.326  0.00  0.00    +0.000 HD
ENDBRANCH  18  19
ENDBRANCH  17  18
ENDBRANCH  16  17
ENDBRANCH   1  16
TORSDOF 11
ENDMDL
MODEL 4
REMARK VINA RESULT:      -4.8      2.667      4.001
REMARK  Name = Alendronic acid
REMARK  11 active torsions:
REMARK  status: ('A' for Active; 'I' for Inactive)
REMARK    1  A    between atoms: N_1  and  C_2
REMARK    2  A    between atoms: C_2  and  C_3
REMARK    3  A    between atoms: C_3  and  C_4
REMARK    4  A    between atoms: C_4  and  C_5
REMARK    5  A    between atoms: C_5  and  O_6
REMARK    6  A    between atoms: C_5  and  P_7
REMARK    7  A    between atoms: C_5  and  P_11
REMARK    8  A    between atoms: P_7  and  O_8
REMARK    9  A    between atoms: P_7  and  O_9
REMARK   10  A    between atoms: P_11  and  O_12
REMARK   11  A    between atoms: P_11  and  O_13
REMARK                            x       y       z     vdW  Elec       q    Type
REMARK                         _______ _______ _______ _____ _____    ______ ____
ROOT
ATOM      1  C   UNL     1     -10.007   6.868 129.701  0.00  0.00    +0.000 C 
ENDROOT
BRANCH   1   2
ATOM      2  O   UNL     1      -8.841   7.557 130.239  0.00  0.00    +0.000 OA
ATOM      3  H   UNL     1      -9.099   8.394 130.654  0.00  0.00    +0.000 HD
ENDBRANCH   1   2
BRANCH   1   4
ATOM      4  P   UNL     1     -11.337   6.720 130.949  0.00  0.00    +0.000 P 
ATOM      5  O   UNL     1     -12.462   6.594 132.005  0.00  0.00    +0.000 OA
BRANCH   4   6
ATOM      6  O   UNL     1     -11.349   5.075 130.720  0.00  0.00    +0.000 OA
ATOM      7  H   UNL     1     -11.295   4.766 129.787  0.00  0.00    +0.000 HD
ENDBRANCH   4   6
BRANCH   4   8
ATOM      8  O   UNL     1     -10.249   6.548 132.177  0.00  0.00    +0.000 OA
ATOM      9  H   UNL     1      -9.298   6.757 132.219  0.00  0.00    +0.000 HD
ENDBRANCH   4   8
ENDBRANCH   1   4
BRANCH   1  10
ATOM     10  P   UNL     1      -9.413   5.200 129.241  0.00  0.00    +0.000 P 
ATOM     11  O   UNL     1      -8.909   3.788 128.852  0.00  0.00    +0.000 OA
BRANCH  10  12
ATOM     12  O   UNL     1      -9.150   5.683 127.701  0.00  0.00    +0.000 OA
ATOM     13  H   UNL     1      -8.340   6.205 127.484  0.00  0.00    +0.000 HD
ENDBRANCH  10  12
BRANCH  10  14
ATOM     14  O   UNL     1      -7.978   5.672 129.912  0.00  0.00    +0.000 OA
ATOM     15  H   UNL     1      -7.609   5.079 130.601  0.00  0.00    +0.000 HD
ENDBRANCH  10  14
ENDBRANCH   1  10
BRANCH   1  16
ATOM     16  C   UNL     1     -10.491   7.621 128.413  0.00  0.00    +0.000 C 
BRANCH  16  17
ATOM     17  C   UNL     1     -11.997   7.870 128.342  0.00  0.00    +0.000 C 
BRANCH  17  18
ATOM     18  C   UNL     1     -12.733   7.081 127.277  0.00  0.00    +0.000 C 
BRANCH  18  19
ATOM     19  N   UNL     1     -11.742   6.712 126.277  0.00  0.00    +0.000 NA
ATOM     20  H   UNL     1     -10.890   7.257 126.399  0.00  0.00    +0.000 HD
ATOM     21  H   UNL     1     -12.078   6.907 125.335  0.00  0.00    +0.000 HD
ENDBRANCH  18  19
ENDBRANCH  17  18
ENDBRANCH  16  17
ENDBRANCH   1  16
TORSDOF 11
ENDMDL
MODEL 5
REMARK VINA RESULT:      -4.8      2.635      3.815
REMARK  Name = Alendronic acid
REMARK  11 active torsions:
REMARK  status: ('A' for Active; 'I' for Inactive)
REMARK    1  A    between atoms: N_1  and  C_2
REMARK    2  A    between atoms: C_2  and  C_3
REMARK    3  A    between atoms: C_3  and  C_4
REMARK    4  A    between atoms: C_4  and  C_5
REMARK    5  A    between atoms: C_5  and  O_6
REMARK    6  A    between atoms: C_5  and  P_7
REMARK    7  A    between atoms: C_5  and  P_11
REMARK    8  A    between atoms: P_7  and  O_8
REMARK    9  A    between atoms: P_7  and  O_9
REMARK   10  A    between atoms: P_11  and  O_12
REMARK   11  A    between atoms: P_11  and  O_13
REMARK                            x       y       z     vdW  Elec       q    Type
REMARK                         _______ _______ _______ _____ _____    ______ ____
ROOT
ATOM      1  C   UNL     1     -10.711   6.641 129.633  0.00  0.00    +0.000 C 
ENDROOT
BRANCH   1   2
ATOM      2  O   UNL     1     -10.587   5.223 129.319  0.00  0.00    +0.000 OA
ATOM      3  H   UNL     1     -11.438   4.772 129.431  0.00  0.00    +0.000 HD
ENDBRANCH   1   2
BRANCH   1   4
ATOM      4  P   UNL     1     -12.226   6.988 130.597  0.00  0.00    +0.000 P 
ATOM      5  O   UNL     1     -13.509   7.281 131.413  0.00  0.00    +0.000 OA
BRANCH   4   6
ATOM      6  O   UNL     1     -12.190   8.560 130.064  0.00  0.00    +0.000 OA
ATOM      7  H   UNL     1     -12.255   8.690 129.090  0.00  0.00    +0.000 HD
ENDBRANCH   4   6
BRANCH   4   8
ATOM      8  O   UNL     1     -13.200   6.574 129.332  0.00  0.00    +0.000 OA
ATOM      9  H   UNL     1     -12.983   6.349 128.408  0.00  0.00    +0.000 HD
ENDBRANCH   4   8
ENDBRANCH   1   4
BRANCH   1  10
ATOM     10  P   UNL     1     -10.811   7.487 128.013  0.00  0.00    +0.000 P 
ATOM     11  O   UNL     1     -10.896   8.202 126.642  0.00  0.00    +0.000 OA
BRANCH  10  12
ATOM     12  O   UNL     1      -9.773   8.645 128.518  0.00  0.00    +0.000 OA
ATOM     13  H   UNL     1      -8.992   8.878 127.962  0.00  0.00    +0.000 HD
ENDBRANCH  10  12
BRANCH  10  14
ATOM     14  O   UNL     1      -9.716   6.358 127.506  0.00  0.00    +0.000 OA
ATOM     15  H   UNL     1      -9.792   6.075 126.569  0.00  0.00    +0.000 HD
ENDBRANCH  10  14
ENDBRANCH   1  10
BRANCH   1  16
ATOM     16  C   UNL     1      -9.416   7.109 130.384  0.00  0.00    +0.000 C 
BRANCH  16  17
ATOM     17  C   UNL     1      -8.561   5.978 130.955  0.00  0.00    +0.000 C 
BRANCH  17  18
ATOM     18  C   UNL     1      -8.286   6.064 132.444  0.00  0.00    +0.000 C 
BRANCH  18  19
ATOM     19  N   UNL     1      -9.582   6.189 133.096  0.00  0.00    +0.000 NA
ATOM     20  H   UNL     1      -9.814   5.333 133.597  0.00  0.00    +0.000 HD
ATOM     21  H   UNL     1     -10.325   6.338 132.415  0.00  0.00    +0.000 HD
ENDBRANCH  18  19
ENDBRANCH  17  18
ENDBRANCH  16  17
ENDBRANCH   1  16
TORSDOF 11
ENDMDL
MODEL 6
REMARK VINA RESULT:      -4.7      3.619      4.899
REMARK  Name = Alendronic acid
REMARK  11 active torsions:
REMARK  status: ('A' for Active; 'I' for Inactive)
REMARK    1  A    between atoms: N_1  and  C_2
REMARK    2  A    between atoms: C_2  and  C_3
REMARK    3  A    between atoms: C_3  and  C_4
REMARK    4  A    between atoms: C_4  and  C_5
REMARK    5  A    between atoms: C_5  and  O_6
REMARK    6  A    between atoms: C_5  and  P_7
REMARK    7  A    between atoms: C_5  and  P_11
REMARK    8  A    between atoms: P_7  and  O_8
REMARK    9  A    between atoms: P_7  and  O_9
REMARK   10  A    between atoms: P_11  and  O_12
REMARK   11  A    between atoms: P_11  and  O_13
REMARK                            x       y       z     vdW  Elec       q    Type
REMARK                         _______ _______ _______ _____ _____    ______ ____
ROOT
ATOM      1  C   UNL     1      -9.595   5.659 131.844  0.00  0.00    +0.000 C 
ENDROOT
BRANCH   1   2
ATOM      2  O   UNL     1     -10.172   6.374 132.975  0.00  0.00    +0.000 OA
ATOM      3  H   UNL     1     -10.977   6.844 132.708  0.00  0.00    +0.000 HD
ENDBRANCH   1   2
BRANCH   1   4
ATOM      4  P   UNL     1      -8.152   6.545 131.152  0.00  0.00    +0.000 P 
ATOM      5  O   UNL     1      -6.930   7.295 130.567  0.00  0.00    +0.000 OA
BRANCH   4   6
ATOM      6  O   UNL     1      -8.063   5.421 129.933  0.00  0.00    +0.000 OA
ATOM      7  H   UNL     1      -7.464   4.656 130.091  0.00  0.00    +0.000 HD
ENDBRANCH   4   6
BRANCH   4   8
ATOM      8  O   UNL     1      -9.112   7.500 130.210  0.00  0.00    +0.000 OA
ATOM      9  H   UNL     1      -8.886   8.218 129.591  0.00  0.00    +0.000 HD
ENDBRANCH   4   8
ENDBRANCH   1   4
BRANCH   1  10
ATOM     10  P   UNL     1     -10.925   5.587 130.589  0.00  0.00    +0.000 P 
ATOM     11  O   UNL     1     -12.052   5.526 129.527  0.00  0.00    +0.000 OA
BRANCH  10  12
ATOM     12  O   UNL     1     -10.946   3.953 130.659  0.00  0.00    +0.000 OA
ATOM     13  H   UNL     1     -10.184   3.471 131.062  0.00  0.00    +0.000 HD
ENDBRANCH  10  12
BRANCH  10  14
ATOM     14  O   UNL     1     -11.947   5.915 131.846  0.00  0.00    +0.000 OA
ATOM     15  H   UNL     1     -11.538   5.939 132.738  0.00  0.00    +0.000 HD
ENDBRANCH  10  14
ENDBRANCH   1  10
BRANCH   1  16
ATOM     16  C   UNL     1      -9.229   4.203 132.298  0.00  0.00    +0.000 C 
BRANCH  16  17
ATOM     17  C   UNL     1      -9.285   3.968 133.806  0.00  0.00    +0.000 C 
BRANCH  17  18
ATOM     18  C   UNL     1      -8.003   4.274 134.556  0.00  0.00    +0.000 C 
BRANCH  18  19
ATOM     19  N   UNL     1      -8.231   5.520 135.274  0.00  0.00    +0.000 NA
ATOM     20  H   UNL     1      -7.651   5.563 136.110  0.00  0.00    +0.000 HD
ATOM     21  H   UNL     1      -9.198   5.592 135.589  0.00  0.00    +0.000 HD
ENDBRANCH  18  19
ENDBRANCH  17  18
ENDBRANCH  16  17
ENDBRANCH   1  16
TORSDOF 11
ENDMDL
MODEL 7
REMARK VINA RESULT:      -4.7      3.418      4.626
REMARK  Name = Alendronic acid
REMARK  11 active torsions:
REMARK  status: ('A' for Active; 'I' for Inactive)
REMARK    1  A    between atoms: N_1  and  C_2
REMARK    2  A    between atoms: C_2  and  C_3
REMARK    3  A    between atoms: C_3  and  C_4
REMARK    4  A    between atoms: C_4  and  C_5
REMARK    5  A    between atoms: C_5  and  O_6
REMARK    6  A    between atoms: C_5  and  P_7
REMARK    7  A    between atoms: C_5  and  P_11
REMARK    8  A    between atoms: P_7  and  O_8
REMARK    9  A    between atoms: P_7  and  O_9
REMARK   10  A    between atoms: P_11  and  O_12
REMARK   11  A    between atoms: P_11  and  O_13
REMARK                            x       y       z     vdW  Elec       q    Type
REMARK                         _______ _______ _______ _____ _____    ______ ____
ROOT
ATOM      1  C   UNL     1      -9.130   6.166 130.991  0.00  0.00    +0.000 C 
ENDROOT
BRANCH   1   2
ATOM      2  O   UNL     1      -8.663   7.433 130.441  0.00  0.00    +0.000 OA
ATOM      3  H   UNL     1      -9.316   8.133 130.591  0.00  0.00    +0.000 HD
ENDBRANCH   1   2
BRANCH   1   4
ATOM      4  P   UNL     1      -8.901   4.792 129.806  0.00  0.00    +0.000 P 
ATOM      5  O   UNL     1      -8.708   3.628 128.804  0.00  0.00    +0.000 OA
BRANCH   4   6
ATOM      6  O   UNL     1      -9.598   5.718 128.618  0.00  0.00    +0.000 OA
ATOM      7  H   UNL     1      -9.082   6.500 128.317  0.00  0.00    +0.000 HD
ENDBRANCH   4   6
BRANCH   4   8
ATOM      8  O   UNL     1      -7.408   5.338 129.366  0.00  0.00    +0.000 OA
ATOM      9  H   UNL     1      -6.643   5.605 129.907  0.00  0.00    +0.000 HD
ENDBRANCH   4   8
ENDBRANCH   1   4
BRANCH   1  10
ATOM     10  P   UNL     1     -10.916   6.408 131.308  0.00  0.00    +0.000 P 
ATOM     11  O   UNL     1     -12.428   6.613 131.577  0.00  0.00    +0.000 OA
BRANCH  10  12
ATOM     12  O   UNL     1     -11.183   4.798 131.214  0.00  0.00    +0.000 OA
ATOM     13  H   UNL     1     -12.102   4.460 131.086  0.00  0.00    +0.000 HD
ENDBRANCH  10  12
BRANCH  10  14
ATOM     14  O   UNL     1     -10.485   6.508 132.900  0.00  0.00    +0.000 OA
ATOM     15  H   UNL     1      -9.664   7.010 133.094  0.00  0.00    +0.000 HD
ENDBRANCH  10  14
ENDBRANCH   1  10
BRANCH   1  16
ATOM     16  C   UNL     1      -8.392   5.901 132.349  0.00  0.00    +0.000 C 
BRANCH  16  17
ATOM     17  C   UNL     1      -7.922   4.462 132.554  0.00  0.00    +0.000 C 
BRANCH  17  18
ATOM     18  C   UNL     1      -8.354   3.821 133.859  0.00  0.00    +0.000 C 
BRANCH  18  19
ATOM     19  N   UNL     1      -9.810   3.856 133.874  0.00  0.00    +0.000 NA
ATOM     20  H   UNL     1     -10.190   2.911 133.853  0.00  0.00    +0.000 HD
ATOM     21  H   UNL     1     -10.176   4.334 133.052  0.00  0.00    +0.000 HD
ENDBRANCH  18  19
ENDBRANCH  17  18
ENDBRANCH  16  17
ENDBRANCH   1  16
TORSDOF 11
ENDMDL
MODEL 8
REMARK VINA RESULT:      -4.7      4.097      5.101
REMARK  Name = Alendronic acid
REMARK  11 active torsions:
REMARK  status: ('A' for Active; 'I' for Inactive)
REMARK    1  A    between atoms: N_1  and  C_2
REMARK    2  A    between atoms: C_2  and  C_3
REMARK    3  A    between atoms: C_3  and  C_4
REMARK    4  A    between atoms: C_4  and  C_5
REMARK    5  A    between atoms: C_5  and  O_6
REMARK    6  A    between atoms: C_5  and  P_7
REMARK    7  A    between atoms: C_5  and  P_11
REMARK    8  A    between atoms: P_7  and  O_8
REMARK    9  A    between atoms: P_7  and  O_9
REMARK   10  A    between atoms: P_11  and  O_12
REMARK   11  A    between atoms: P_11  and  O_13
REMARK                            x       y       z     vdW  Elec       q    Type
REMARK                         _______ _______ _______ _____ _____    ______ ____
ROOT
ATOM      1  C   UNL     1      -9.521   5.744 132.044  0.00  0.00    +0.000 C 
ENDROOT
BRANCH   1   2
ATOM      2  O   UNL     1     -10.027   6.455 133.211  0.00  0.00    +0.000 OA
ATOM      3  H   UNL     1      -9.312   6.934 133.657  0.00  0.00    +0.000 HD
ENDBRANCH   1   2
BRANCH   1   4
ATOM      4  P   UNL     1     -10.798   5.588 130.744  0.00  0.00    +0.000 P 
ATOM      5  O   UNL     1     -11.879   5.455 129.644  0.00  0.00    +0.000 OA
BRANCH   4   6
ATOM      6  O   UNL     1     -11.973   5.860 131.885  0.00  0.00    +0.000 OA
ATOM      7  H   UNL     1     -11.894   6.695 132.400  0.00  0.00    +0.000 HD
ENDBRANCH   4   6
BRANCH   4   8
ATOM      8  O   UNL     1     -10.741   7.202 130.408  0.00  0.00    +0.000 OA
ATOM      9  H   UNL     1     -10.030   7.748 130.025  0.00  0.00    +0.000 HD
ENDBRANCH   4   8
ENDBRANCH   1   4
BRANCH   1  10
ATOM     10  P   UNL     1      -9.065   4.080 132.654  0.00  0.00    +0.000 P 
ATOM     11  O   UNL     1      -8.679   2.671 133.171  0.00  0.00    +0.000 OA
BRANCH  10  12
ATOM     12  O   UNL     1     -10.036   4.258 133.958  0.00  0.00    +0.000 OA
ATOM     13  H   UNL     1     -10.741   4.949 133.952  0.00  0.00    +0.000 HD
ENDBRANCH  10  12
BRANCH  10  14
ATOM     14  O   UNL     1     -10.181   3.522 131.571  0.00  0.00    +0.000 OA
ATOM     15  H   UNL     1     -10.420   4.136 130.844  0.00  0.00    +0.000 HD
ENDBRANCH  10  14
ENDBRANCH   1  10
BRANCH   1  16
ATOM     16  C   UNL     1      -8.236   6.476 131.522  0.00  0.00    +0.000 C 
BRANCH  16  17
ATOM     17  C   UNL     1      -6.934   6.048 132.197  0.00  0.00    +0.000 C 
BRANCH  17  18
ATOM     18  C   UNL     1      -5.667   6.562 131.541  0.00  0.00    +0.000 C 
BRANCH  18  19
ATOM     19  N   UNL     1      -6.088   7.435 130.454  0.00  0.00    +0.000 NA
ATOM     20  H   UNL     1      -7.031   7.783 130.621  0.00  0.00    +0.000 HD
ATOM     21  H   UNL     1      -6.117   6.932 129.568  0.00  0.00    +0.000 HD
ENDBRANCH  18  19
ENDBRANCH  17  18
ENDBRANCH  16  17
ENDBRANCH   1  16
TORSDOF 11
ENDMDL
MODEL 9
REMARK VINA RESULT:      -4.7      2.944      3.794
REMARK  Name = Alendronic acid
REMARK  11 active torsions:
REMARK  status: ('A' for Active; 'I' for Inactive)
REMARK    1  A    between atoms: N_1  and  C_2
REMARK    2  A    between atoms: C_2  and  C_3
REMARK    3  A    between atoms: C_3  and  C_4
REMARK    4  A    between atoms: C_4  and  C_5
REMARK    5  A    between atoms: C_5  and  O_6
REMARK    6  A    between atoms: C_5  and  P_7
REMARK    7  A    between atoms: C_5  and  P_11
REMARK    8  A    between atoms: P_7  and  O_8
REMARK    9  A    between atoms: P_7  and  O_9
REMARK   10  A    between atoms: P_11  and  O_12
REMARK   11  A    between atoms: P_11  and  O_13
REMARK                            x       y       z     vdW  Elec       q    Type
REMARK                         _______ _______ _______ _____ _____    ______ ____
ROOT
ATOM      1  C   UNL     1     -10.543   5.693 130.998  0.00  0.00    +0.000 C 
ENDROOT
BRANCH   1   2
ATOM      2  O   UNL     1     -11.197   4.390 131.010  0.00  0.00    +0.000 OA
ATOM      3  H   UNL     1     -10.556   3.684 130.834  0.00  0.00    +0.000 HD
ENDBRANCH   1   2
BRANCH   1   4
ATOM      4  P   UNL     1     -11.582   6.960 130.184  0.00  0.00    +0.000 P 
ATOM      5  O   UNL     1     -12.461   8.033 129.496  0.00  0.00    +0.000 OA
BRANCH   4   6
ATOM      6  O   UNL     1     -12.280   5.773 129.257  0.00  0.00    +0.000 OA
ATOM      7  H   UNL     1     -11.862   4.883 129.304  0.00  0.00    +0.000 HD
ENDBRANCH   4   6
BRANCH   4   8
ATOM      8  O   UNL     1     -12.776   6.792 131.310  0.00  0.00    +0.000 OA
ATOM      9  H   UNL     1     -13.679   7.158 131.340  0.00  0.00    +0.000 HD
ENDBRANCH   4   8
ENDBRANCH   1   4
BRANCH   1  10
ATOM     10  P   UNL     1      -9.006   5.453 130.033  0.00  0.00    +0.000 P 
ATOM     11  O   UNL     1      -7.706   5.249 129.217  0.00  0.00    +0.000 OA
BRANCH  10  12
ATOM     12  O   UNL     1      -9.652   4.159 129.269  0.00  0.00    +0.000 OA
ATOM     13  H   UNL     1     -10.632   4.087 129.172  0.00  0.00    +0.000 HD
ENDBRANCH  10  12
BRANCH  10  14
ATOM     14  O   UNL     1      -9.589   6.652 129.057  0.00  0.00    +0.000 OA
ATOM     15  H   UNL     1      -8.917   7.183 128.578  0.00  0.00    +0.000 HD
ENDBRANCH  10  14
ENDBRANCH   1  10
BRANCH   1  16
ATOM     16  C   UNL     1     -10.177   6.090 132.470  0.00  0.00    +0.000 C 
BRANCH  16  17
ATOM     17  C   UNL     1      -8.736   5.783 132.878  0.00  0.00    +0.000 C 
BRANCH  17  18
ATOM     18  C   UNL     1      -8.579   4.698 133.926  0.00  0.00    +0.000 C 
BRANCH  18  19
ATOM     19  N   UNL     1      -9.781   3.879 133.857  0.00  0.00    +0.000 NA
ATOM     20  H   UNL     1      -9.847   3.272 134.672  0.00  0.00    +0.000 HD
ATOM     21  H   UNL     1      -9.764   3.268 133.041  0.00  0.00    +0.000 HD
ENDBRANCH  18  19
ENDBRANCH  17  18
ENDBRANCH  16  17
ENDBRANCH   1  16
TORSDOF 11
ENDMDL
