MODEL 1
REMARK VINA RESULT:      -8.2      0.000      0.000
REMARK  Name = Alfacalcidol
REMARK  12 active torsions:
REMARK  status: ('A' for Active; 'I' for Inactive)
REMARK    1  A    between atoms: C_1  and  C_2
REMARK    2  A    between atoms: C_2  and  C_3
REMARK    3  A    between atoms: C_2  and  C_4
REMARK    4  A    between atoms: C_4  and  C_5
REMARK    5  A    between atoms: C_5  and  C_6
REMARK    6  A    between atoms: C_6  and  C_7
REMARK    7  A    between atoms: C_7  and  C_8
REMARK    8  A    between atoms: C_7  and  C_9
REMARK    9  A    between atoms: C_19  and  C_20
REMARK   10  A    between atoms: C_21  and  C_22
REMARK   11  A    between atoms: C_25  and  O_26
REMARK   12  A    between atoms: C_28  and  O_29
REMARK                            x       y       z     vdW  Elec       q    Type
REMARK                         _______ _______ _______ _____ _____    ______ ____
ROOT
ATOM      1  C   UNL     1      -4.813   4.797 132.221  0.00  0.00    +0.000 C 
ATOM      2  C   UNL     1      -4.596   6.191 131.570  0.00  0.00    +0.000 C 
ATOM      3  C   UNL     1      -5.972   6.825 131.384  0.00  0.00    +0.000 C 
ATOM      4  C   UNL     1      -6.863   6.016 132.312  0.00  0.00    +0.000 C 
ATOM      5  C   UNL     1      -8.347   6.012 132.162  0.00  0.00    +0.000 C 
ATOM      6  C   UNL     1      -8.981   5.054 133.150  0.00  0.00    +0.000 C 
ATOM      7  C   UNL     1      -8.421   3.647 133.227  0.00  0.00    +0.000 C 
ATOM      8  C   UNL     1      -6.907   3.685 133.276  0.00  0.00    +0.000 C 
ATOM      9  C   UNL     1      -6.366   4.565 132.122  0.00  0.00    +0.000 C 
ATOM     10  C   UNL     1      -6.942   4.075 130.736  0.00  0.00    +0.000 C 
ATOM     11  C   UNL     1      -9.044   6.740 131.251  0.00  0.00    +0.000 C 
ENDROOT
BRANCH  11  12
ATOM     12  C   UNL     1     -10.487   6.793 131.217  0.00  0.00    +0.000 C 
ATOM     13  C   UNL     1     -11.251   6.934 130.104  0.00  0.00    +0.000 C 
ATOM     14  C   UNL     1     -12.741   7.138 130.230  0.00  0.00    +0.000 C 
ATOM     15  C   UNL     1     -13.246   8.366 129.451  0.00  0.00    +0.000 C 
ATOM     16  C   UNL     1     -12.733   8.401 128.011  0.00  0.00    +0.000 C 
ATOM     17  C   UNL     1     -11.222   8.272 127.950  0.00  0.00    +0.000 C 
ATOM     18  C   UNL     1     -10.734   7.043 128.722  0.00  0.00    +0.000 C 
ATOM     19  C   UNL     1      -9.809   6.192 128.235  0.00  0.00    +0.000 C 
BRANCH  15  20
ATOM     20  O   UNL     1     -12.919   9.579 130.132  0.00  0.00    +0.000 OA
ATOM     21  H   UNL     1     -13.115  10.336 129.552  0.00  0.00    +0.000 HD
ENDBRANCH  15  20
BRANCH  17  22
ATOM     22  O   UNL     1     -10.791   8.260 126.592  0.00  0.00    +0.000 OA
ATOM     23  H   UNL     1     -11.551   8.528 126.052  0.00  0.00    +0.000 HD
ENDBRANCH  17  22
ENDBRANCH  11  12
BRANCH   1  24
ATOM     24  C   UNL     1      -3.843   3.665 131.755  0.00  0.00    +0.000 C 
ATOM     25  C   UNL     1      -2.833   3.252 132.827  0.00  0.00    +0.000 C 
BRANCH  24  26
ATOM     26  C   UNL     1      -3.114   4.110 130.509  0.00  0.00    +0.000 C 
BRANCH  26  27
ATOM     27  C   UNL     1      -3.520   3.626 129.166  0.00  0.00    +0.000 C 
BRANCH  27  28
ATOM     28  C   UNL     1      -2.800   4.475 128.111  0.00  0.00    +0.000 C 
BRANCH  28  30
ATOM     29  C   UNL     1      -1.475   2.944 126.641  0.00  0.00    +0.000 C 
ATOM     30  C   UNL     1      -2.785   3.700 126.802  0.00  0.00    +0.000 C 
ATOM     31  C   UNL     1      -3.966   2.728 126.735  0.00  0.00    +0.000 C 
ENDBRANCH  28  30
ENDBRANCH  27  28
ENDBRANCH  26  27
ENDBRANCH  24  26
ENDBRANCH   1  24
TORSDOF 8
ENDMDL
MODEL 2
REMARK VINA RESULT:      -7.9      5.477      9.323
REMARK  Name = Alfacalcidol
REMARK  12 active torsions:
REMARK  status: ('A' for Active; 'I' for Inactive)
REMARK    1  A    between atoms: C_1  and  C_2
REMARK    2  A    between atoms: C_2  and  C_3
REMARK    3  A    between atoms: C_2  and  C_4
REMARK    4  A    between atoms: C_4  and  C_5
REMARK    5  A    between atoms: C_5  and  C_6
REMARK    6  A    between atoms: C_6  and  C_7
REMARK    7  A    between atoms: C_7  and  C_8
REMARK    8  A    between atoms: C_7  and  C_9
REMARK    9  A    between atoms: C_19  and  C_20
REMARK   10  A    between atoms: C_21  and  C_22
REMARK   11  A    between atoms: C_25  and  O_26
REMARK   12  A    between atoms: C_28  and  O_29
REMARK                            x       y       z     vdW  Elec       q    Type
REMARK                         _______ _______ _______ _____ _____    ______ ____
ROOT
ATOM      1  C   UNL     1      -8.374   4.363 131.802  0.00  0.00    +0.000 C 
ATOM      2  C   UNL     1      -9.213   3.655 132.902  0.00  0.00    +0.000 C 
ATOM      3  C   UNL     1      -9.089   2.152 132.672  0.00  0.00    +0.000 C 
ATOM      4  C   UNL     1      -7.868   2.030 131.774  0.00  0.00    +0.000 C 
ATOM      5  C   UNL     1      -7.608   0.800 130.973  0.00  0.00    +0.000 C 
ATOM      6  C   UNL     1      -6.383   0.981 130.099  0.00  0.00    +0.000 C 
ATOM      7  C   UNL     1      -6.302   2.234 129.248  0.00  0.00    +0.000 C 
ATOM      8  C   UNL     1      -6.671   3.453 130.069  0.00  0.00    +0.000 C 
ATOM      9  C   UNL     1      -8.021   3.212 130.790  0.00  0.00    +0.000 C 
ATOM     10  C   UNL     1      -9.133   2.787 129.753  0.00  0.00    +0.000 C 
ATOM     11  C   UNL     1      -8.371  -0.323 130.991  0.00  0.00    +0.000 C 
ENDROOT
BRANCH  11  12
ATOM     12  C   UNL     1      -8.017  -1.533 130.287  0.00  0.00    +0.000 C 
ATOM     13  C   UNL     1      -7.423  -2.626 130.832  0.00  0.00    +0.000 C 
ATOM     14  C   UNL     1      -6.962  -3.757 129.946  0.00  0.00    +0.000 C 
ATOM     15  C   UNL     1      -5.492  -4.144 130.184  0.00  0.00    +0.000 C 
ATOM     16  C   UNL     1      -5.166  -4.341 131.664  0.00  0.00    +0.000 C 
ATOM     17  C   UNL     1      -5.579  -3.139 132.495  0.00  0.00    +0.000 C 
ATOM     18  C   UNL     1      -7.045  -2.771 132.254  0.00  0.00    +0.000 C 
ATOM     19  C   UNL     1      -7.899  -2.476 133.255  0.00  0.00    +0.000 C 
BRANCH  15  20
ATOM     20  O   UNL     1      -4.606  -3.187 129.597  0.00  0.00    +0.000 OA
ATOM     21  H   UNL     1      -3.712  -3.311 129.963  0.00  0.00    +0.000 HD
ENDBRANCH  15  20
BRANCH  17  22
ATOM     22  O   UNL     1      -5.305  -3.384 133.871  0.00  0.00    +0.000 OA
ATOM     23  H   UNL     1      -4.617  -2.755 134.139  0.00  0.00    +0.000 HD
ENDBRANCH  17  22
ENDBRANCH  11  12
BRANCH   1  24
ATOM     24  C   UNL     1      -8.955   5.706 131.256  0.00  0.00    +0.000 C 
ATOM     25  C   UNL     1      -7.918   6.826 131.171  0.00  0.00    +0.000 C 
BRANCH  24  26
ATOM     26  C   UNL     1     -10.111   6.143 132.124  0.00  0.00    +0.000 C 
BRANCH  26  27
ATOM     27  C   UNL     1     -11.465   6.357 131.553  0.00  0.00    +0.000 C 
BRANCH  27  28
ATOM     28  C   UNL     1     -11.408   6.042 130.054  0.00  0.00    +0.000 C 
BRANCH  28  30
ATOM     29  C   UNL     1     -12.594   8.242 130.169  0.00  0.00    +0.000 C 
ATOM     30  C   UNL     1     -11.795   7.297 129.286  0.00  0.00    +0.000 C 
ATOM     31  C   UNL     1     -10.550   8.006 128.746  0.00  0.00    +0.000 C 
ENDBRANCH  28  30
ENDBRANCH  27  28
ENDBRANCH  26  27
ENDBRANCH  24  26
ENDBRANCH   1  24
TORSDOF 8
ENDMDL
MODEL 3
REMARK VINA RESULT:      -7.8      5.056      8.716
REMARK  Name = Alfacalcidol
REMARK  12 active torsions:
REMARK  status: ('A' for Active; 'I' for Inactive)
REMARK    1  A    between atoms: C_1  and  C_2
REMARK    2  A    between atoms: C_2  and  C_3
REMARK    3  A    between atoms: C_2  and  C_4
REMARK    4  A    between atoms: C_4  and  C_5
REMARK    5  A    between atoms: C_5  and  C_6
REMARK    6  A    between atoms: C_6  and  C_7
REMARK    7  A    between atoms: C_7  and  C_8
REMARK    8  A    between atoms: C_7  and  C_9
REMARK    9  A    between atoms: C_19  and  C_20
REMARK   10  A    between atoms: C_21  and  C_22
REMARK   11  A    between atoms: C_25  and  O_26
REMARK   12  A    between atoms: C_28  and  O_29
REMARK                            x       y       z     vdW  Elec       q    Type
REMARK                         _______ _______ _______ _____ _____    ______ ____
ROOT
ATOM      1  C   UNL     1      -8.562   0.601 124.726  0.00  0.00    +0.000 C 
ATOM      2  C   UNL     1      -8.926   0.645 126.236  0.00  0.00    +0.000 C 
ATOM      3  C   UNL     1      -8.140   1.795 126.860  0.00  0.00    +0.000 C 
ATOM      4  C   UNL     1      -7.724   2.632 125.661  0.00  0.00    +0.000 C 
ATOM      5  C   UNL     1      -6.612   3.622 125.749  0.00  0.00    +0.000 C 
ATOM      6  C   UNL     1      -6.344   4.245 124.393  0.00  0.00    +0.000 C 
ATOM      7  C   UNL     1      -6.173   3.312 123.210  0.00  0.00    +0.000 C 
ATOM      8  C   UNL     1      -7.261   2.257 123.209  0.00  0.00    +0.000 C 
ATOM      9  C   UNL     1      -7.335   1.578 124.599  0.00  0.00    +0.000 C 
ATOM     10  C   UNL     1      -5.917   1.025 125.019  0.00  0.00    +0.000 C 
ATOM     11  C   UNL     1      -5.910   3.914 126.874  0.00  0.00    +0.000 C 
ENDROOT
BRANCH  11  12
ATOM     12  C   UNL     1      -4.919   4.963 126.940  0.00  0.00    +0.000 C 
ATOM     13  C   UNL     1      -4.058   5.179 127.967  0.00  0.00    +0.000 C 
ATOM     14  C   UNL     1      -3.185   6.411 127.975  0.00  0.00    +0.000 C 
ATOM     15  C   UNL     1      -3.293   7.213 129.284  0.00  0.00    +0.000 C 
ATOM     16  C   UNL     1      -3.142   6.336 130.527  0.00  0.00    +0.000 C 
ATOM     17  C   UNL     1      -4.100   5.158 130.502  0.00  0.00    +0.000 C 
ATOM     18  C   UNL     1      -3.977   4.365 129.198  0.00  0.00    +0.000 C 
ATOM     19  C   UNL     1      -3.926   3.018 129.163  0.00  0.00    +0.000 C 
BRANCH  15  20
ATOM     20  O   UNL     1      -4.515   7.954 129.336  0.00  0.00    +0.000 OA
ATOM     21  H   UNL     1      -4.391   8.737 129.900  0.00  0.00    +0.000 HD
ENDBRANCH  15  20
BRANCH  17  22
ATOM     22  O   UNL     1      -3.893   4.340 131.650  0.00  0.00    +0.000 OA
ATOM     23  H   UNL     1      -2.944   4.140 131.687  0.00  0.00    +0.000 HD
ENDBRANCH  17  22
ENDBRANCH  11  12
BRANCH   1  24
ATOM     24  C   UNL     1      -8.473  -0.819 124.084  0.00  0.00    +0.000 C 
ATOM     25  C   UNL     1      -9.484  -1.041 122.958  0.00  0.00    +0.000 C 
BRANCH  24  26
ATOM     26  C   UNL     1      -8.662  -1.867 125.156  0.00  0.00    +0.000 C 
BRANCH  26  27
ATOM     27  C   UNL     1      -7.549  -2.762 125.562  0.00  0.00    +0.000 C 
BRANCH  27  28
ATOM     28  C   UNL     1      -7.087  -3.545 124.328  0.00  0.00    +0.000 C 
BRANCH  28  30
ATOM     29  C   UNL     1      -4.745  -4.302 123.875  0.00  0.00    +0.000 C 
ATOM     30  C   UNL     1      -5.673  -3.102 123.982  0.00  0.00    +0.000 C 
ATOM     31  C   UNL     1      -5.661  -2.308 122.673  0.00  0.00    +0.000 C 
ENDBRANCH  28  30
ENDBRANCH  27  28
ENDBRANCH  26  27
ENDBRANCH  24  26
ENDBRANCH   1  24
TORSDOF 8
ENDMDL
MODEL 4
REMARK VINA RESULT:      -7.8      7.575     10.766
REMARK  Name = Alfacalcidol
REMARK  12 active torsions:
REMARK  status: ('A' for Active; 'I' for Inactive)
REMARK    1  A    between atoms: C_1  and  C_2
REMARK    2  A    between atoms: C_2  and  C_3
REMARK    3  A    between atoms: C_2  and  C_4
REMARK    4  A    between atoms: C_4  and  C_5
REMARK    5  A    between atoms: C_5  and  C_6
REMARK    6  A    between atoms: C_6  and  C_7
REMARK    7  A    between atoms: C_7  and  C_8
REMARK    8  A    between atoms: C_7  and  C_9
REMARK    9  A    between atoms: C_19  and  C_20
REMARK   10  A    between atoms: C_21  and  C_22
REMARK   11  A    between atoms: C_25  and  O_26
REMARK   12  A    between atoms: C_28  and  O_29
REMARK                            x       y       z     vdW  Elec       q    Type
REMARK                         _______ _______ _______ _____ _____    ______ ____
ROOT
ATOM      1  C   UNL     1      -8.300  -1.849 127.321  0.00  0.00    +0.000 C 
ATOM      2  C   UNL     1      -8.701  -3.308 127.670  0.00  0.00    +0.000 C 
ATOM      3  C   UNL     1      -7.804  -3.763 128.819  0.00  0.00    +0.000 C 
ATOM      4  C   UNL     1      -7.257  -2.460 129.379  0.00  0.00    +0.000 C 
ATOM      5  C   UNL     1      -6.040  -2.431 130.240  0.00  0.00    +0.000 C 
ATOM      6  C   UNL     1      -5.661  -1.004 130.580  0.00  0.00    +0.000 C 
ATOM      7  C   UNL     1      -5.566  -0.008 129.439  0.00  0.00    +0.000 C 
ATOM      8  C   UNL     1      -6.770  -0.135 128.528  0.00  0.00    +0.000 C 
ATOM      9  C   UNL     1      -6.964  -1.616 128.117  0.00  0.00    +0.000 C 
ATOM     10  C   UNL     1      -5.634  -2.195 127.494  0.00  0.00    +0.000 C 
ATOM     11  C   UNL     1      -5.342  -3.523 130.646  0.00  0.00    +0.000 C 
ENDROOT
BRANCH  11  12
ATOM     12  C   UNL     1      -4.237  -3.456 131.574  0.00  0.00    +0.000 C 
ATOM     13  C   UNL     1      -4.337  -3.284 132.918  0.00  0.00    +0.000 C 
ATOM     14  C   UNL     1      -3.095  -3.070 133.747  0.00  0.00    +0.000 C 
ATOM     15  C   UNL     1      -3.180  -1.821 134.643  0.00  0.00    +0.000 C 
ATOM     16  C   UNL     1      -4.480  -1.758 135.443  0.00  0.00    +0.000 C 
ATOM     17  C   UNL     1      -5.698  -1.898 134.548  0.00  0.00    +0.000 C 
ATOM     18  C   UNL     1      -5.604  -3.148 133.669  0.00  0.00    +0.000 C 
ATOM     19  C   UNL     1      -6.636  -3.996 133.489  0.00  0.00    +0.000 C 
BRANCH  15  20
ATOM     20  O   UNL     1      -3.000  -0.626 133.879  0.00  0.00    +0.000 OA
ATOM     21  H   UNL     1      -3.706  -0.560 133.214  0.00  0.00    +0.000 HD
ENDBRANCH  15  20
BRANCH  17  22
ATOM     22  O   UNL     1      -6.884  -1.885 135.337  0.00  0.00    +0.000 OA
ATOM     23  H   UNL     1      -7.562  -1.421 134.821  0.00  0.00    +0.000 HD
ENDBRANCH  17  22
ENDBRANCH  11  12
BRANCH   1  24
ATOM     24  C   UNL     1      -8.361  -1.466 125.808  0.00  0.00    +0.000 C 
ATOM     25  C   UNL     1      -9.222  -0.234 125.527  0.00  0.00    +0.000 C 
BRANCH  24  26
ATOM     26  C   UNL     1      -8.876  -2.642 125.013  0.00  0.00    +0.000 C 
BRANCH  26  27
ATOM     27  C   UNL     1      -8.114  -3.183 123.858  0.00  0.00    +0.000 C 
BRANCH  27  28
ATOM     28  C   UNL     1      -6.843  -3.854 124.393  0.00  0.00    +0.000 C 
BRANCH  28  30
ATOM     29  C   UNL     1      -4.494  -3.971 123.538  0.00  0.00    +0.000 C 
ATOM     30  C   UNL     1      -5.642  -3.049 123.920  0.00  0.00    +0.000 C 
ATOM     31  C   UNL     1      -6.021  -2.160 122.732  0.00  0.00    +0.000 C 
ENDBRANCH  28  30
ENDBRANCH  27  28
ENDBRANCH  26  27
ENDBRANCH  24  26
ENDBRANCH   1  24
TORSDOF 8
ENDMDL
MODEL 5
REMARK VINA RESULT:      -7.6      7.172      9.768
REMARK  Name = Alfacalcidol
REMARK  12 active torsions:
REMARK  status: ('A' for Active; 'I' for Inactive)
REMARK    1  A    between atoms: C_1  and  C_2
REMARK    2  A    between atoms: C_2  and  C_3
REMARK    3  A    between atoms: C_2  and  C_4
REMARK    4  A    between atoms: C_4  and  C_5
REMARK    5  A    between atoms: C_5  and  C_6
REMARK    6  A    between atoms: C_6  and  C_7
REMARK    7  A    between atoms: C_7  and  C_8
REMARK    8  A    between atoms: C_7  and  C_9
REMARK    9  A    between atoms: C_19  and  C_20
REMARK   10  A    between atoms: C_21  and  C_22
REMARK   11  A    between atoms: C_25  and  O_26
REMARK   12  A    between atoms: C_28  and  O_29
REMARK                            x       y       z     vdW  Elec       q    Type
REMARK                         _______ _______ _______ _____ _____    ______ ____
ROOT
ATOM      1  C   UNL     1      -7.220  -2.096 131.320  0.00  0.00    +0.000 C 
ATOM      2  C   UNL     1      -6.273  -0.870 131.196  0.00  0.00    +0.000 C 
ATOM      3  C   UNL     1      -6.019  -0.640 129.709  0.00  0.00    +0.000 C 
ATOM      4  C   UNL     1      -7.141  -1.413 129.034  0.00  0.00    +0.000 C 
ATOM      5  C   UNL     1      -7.064  -1.803 127.596  0.00  0.00    +0.000 C 
ATOM      6  C   UNL     1      -8.265  -2.642 127.207  0.00  0.00    +0.000 C 
ATOM      7  C   UNL     1      -8.618  -3.822 128.092  0.00  0.00    +0.000 C 
ATOM      8  C   UNL     1      -8.587  -3.414 129.551  0.00  0.00    +0.000 C 
ATOM      9  C   UNL     1      -7.246  -2.708 129.871  0.00  0.00    +0.000 C 
ATOM     10  C   UNL     1      -6.028  -3.615 129.441  0.00  0.00    +0.000 C 
ATOM     11  C   UNL     1      -6.051  -1.483 126.751  0.00  0.00    +0.000 C 
ENDROOT
BRANCH  11  12
ATOM     12  C   UNL     1      -6.074  -1.784 125.338  0.00  0.00    +0.000 C 
ATOM     13  C   UNL     1      -6.850  -1.171 124.407  0.00  0.00    +0.000 C 
ATOM     14  C   UNL     1      -6.891  -1.696 122.993  0.00  0.00    +0.000 C 
ATOM     15  C   UNL     1      -8.323  -1.948 122.489  0.00  0.00    +0.000 C 
ATOM     16  C   UNL     1      -9.254  -0.762 122.739  0.00  0.00    +0.000 C 
ATOM     17  C   UNL     1      -9.233  -0.329 124.194  0.00  0.00    +0.000 C 
ATOM     18  C   UNL     1      -7.803  -0.074 124.680  0.00  0.00    +0.000 C 
ATOM     19  C   UNL     1      -7.460   1.006 125.410  0.00  0.00    +0.000 C 
BRANCH  15  20
ATOM     20  O   UNL     1      -8.867  -3.143 123.056  0.00  0.00    +0.000 OA
ATOM     21  H   UNL     1      -9.838  -3.108 123.010  0.00  0.00    +0.000 HD
ENDBRANCH  15  20
BRANCH  17  22
ATOM     22  O   UNL     1     -10.072   0.808 124.374  0.00  0.00    +0.000 OA
ATOM     23  H   UNL     1     -10.307   0.840 125.315  0.00  0.00    +0.000 HD
ENDBRANCH  17  22
ENDBRANCH  11  12
BRANCH   1  24
ATOM     24  C   UNL     1      -6.965  -3.038 132.539  0.00  0.00    +0.000 C 
ATOM     25  C   UNL     1      -7.983  -2.860 133.667  0.00  0.00    +0.000 C 
BRANCH  24  26
ATOM     26  C   UNL     1      -5.569  -2.806 133.068  0.00  0.00    +0.000 C 
BRANCH  26  27
ATOM     27  C   UNL     1      -4.446  -3.703 132.694  0.00  0.00    +0.000 C 
BRANCH  27  28
ATOM     28  C   UNL     1      -4.978  -5.139 132.631  0.00  0.00    +0.000 C 
BRANCH  28  30
ATOM     29  C   UNL     1      -2.954  -5.368 134.084  0.00  0.00    +0.000 C 
ATOM     30  C   UNL     1      -4.320  -5.942 133.742  0.00  0.00    +0.000 C 
ATOM     31  C   UNL     1      -5.208  -5.969 134.989  0.00  0.00    +0.000 C 
ENDBRANCH  28  30
ENDBRANCH  27  28
ENDBRANCH  26  27
ENDBRANCH  24  26
ENDBRANCH   1  24
TORSDOF 8
ENDMDL
MODEL 6
REMARK VINA RESULT:      -7.5      4.296      5.832
REMARK  Name = Alfacalcidol
REMARK  12 active torsions:
REMARK  status: ('A' for Active; 'I' for Inactive)
REMARK    1  A    between atoms: C_1  and  C_2
REMARK    2  A    between atoms: C_2  and  C_3
REMARK    3  A    between atoms: C_2  and  C_4
REMARK    4  A    between atoms: C_4  and  C_5
REMARK    5  A    between atoms: C_5  and  C_6
REMARK    6  A    between atoms: C_6  and  C_7
REMARK    7  A    between atoms: C_7  and  C_8
REMARK    8  A    between atoms: C_7  and  C_9
REMARK    9  A    between atoms: C_19  and  C_20
REMARK   10  A    between atoms: C_21  and  C_22
REMARK   11  A    between atoms: C_25  and  O_26
REMARK   12  A    between atoms: C_28  and  O_29
REMARK                            x       y       z     vdW  Elec       q    Type
REMARK                         _______ _______ _______ _____ _____    ______ ____
ROOT
ATOM      1  C   UNL     1      -7.789  -0.104 130.842  0.00  0.00    +0.000 C 
ATOM      2  C   UNL     1      -8.940   0.200 131.840  0.00  0.00    +0.000 C 
ATOM      3  C   UNL     1      -9.455   1.602 131.527  0.00  0.00    +0.000 C 
ATOM      4  C   UNL     1      -8.926   1.870 130.127  0.00  0.00    +0.000 C 
ATOM      5  C   UNL     1      -8.838   3.254 129.578  0.00  0.00    +0.000 C 
ATOM      6  C   UNL     1      -8.190   3.243 128.208  0.00  0.00    +0.000 C 
ATOM      7  C   UNL     1      -6.881   2.493 128.052  0.00  0.00    +0.000 C 
ATOM      8  C   UNL     1      -6.973   1.131 128.711  0.00  0.00    +0.000 C 
ATOM      9  C   UNL     1      -7.496   1.283 130.161  0.00  0.00    +0.000 C 
ATOM     10  C   UNL     1      -6.610   2.315 130.962  0.00  0.00    +0.000 C 
ATOM     11  C   UNL     1      -9.251   4.378 130.217  0.00  0.00    +0.000 C 
ENDROOT
BRANCH  11  12
ATOM     12  C   UNL     1      -9.253   5.684 129.601  0.00  0.00    +0.000 C 
ATOM     13  C   UNL     1     -10.062   6.721 129.939  0.00  0.00    +0.000 C 
ATOM     14  C   UNL     1     -10.070   7.978 129.103  0.00  0.00    +0.000 C 
ATOM     15  C   UNL     1     -11.483   8.394 128.660  0.00  0.00    +0.000 C 
ATOM     16  C   UNL     1     -12.483   8.411 129.816  0.00  0.00    +0.000 C 
ATOM     17  C   UNL     1     -12.490   7.094 130.571  0.00  0.00    +0.000 C 
ATOM     18  C   UNL     1     -11.079   6.696 131.012  0.00  0.00    +0.000 C 
ATOM     19  C   UNL     1     -10.801   6.235 132.249  0.00  0.00    +0.000 C 
BRANCH  15  20
ATOM     20  O   UNL     1     -11.957   7.563 127.597  0.00  0.00    +0.000 OA
ATOM     21  H   UNL     1     -11.200   7.123 127.173  0.00  0.00    +0.000 HD
ENDBRANCH  15  20
BRANCH  17  22
ATOM     22  O   UNL     1     -13.395   7.169 131.668  0.00  0.00    +0.000 OA
ATOM     23  H   UNL     1     -14.138   7.726 131.385  0.00  0.00    +0.000 HD
ENDBRANCH  17  22
ENDBRANCH  11  12
BRANCH   1  24
ATOM     24  C   UNL     1      -6.598  -0.942 131.406  0.00  0.00    +0.000 C 
ATOM     25  C   UNL     1      -5.806  -1.675 130.322  0.00  0.00    +0.000 C 
BRANCH  24  26
ATOM     26  C   UNL     1      -7.117  -1.934 132.419  0.00  0.00    +0.000 C 
BRANCH  26  27
ATOM     27  C   UNL     1      -7.120  -3.392 132.137  0.00  0.00    +0.000 C 
BRANCH  27  28
ATOM     28  C   UNL     1      -6.321  -4.096 133.239  0.00  0.00    +0.000 C 
BRANCH  28  30
ATOM     29  C   UNL     1      -5.532  -5.258 131.168  0.00  0.00    +0.000 C 
ATOM     30  C   UNL     1      -5.172  -4.852 132.589  0.00  0.00    +0.000 C 
ATOM     31  C   UNL     1      -3.898  -4.003 132.588  0.00  0.00    +0.000 C 
ENDBRANCH  28  30
ENDBRANCH  27  28
ENDBRANCH  26  27
ENDBRANCH  24  26
ENDBRANCH   1  24
TORSDOF 8
ENDMDL
MODEL 7
REMARK VINA RESULT:      -7.5      6.096      8.679
REMARK  Name = Alfacalcidol
REMARK  12 active torsions:
REMARK  status: ('A' for Active; 'I' for Inactive)
REMARK    1  A    between atoms: C_1  and  C_2
REMARK    2  A    between atoms: C_2  and  C_3
REMARK    3  A    between atoms: C_2  and  C_4
REMARK    4  A    between atoms: C_4  and  C_5
REMARK    5  A    between atoms: C_5  and  C_6
REMARK    6  A    between atoms: C_6  and  C_7
REMARK    7  A    between atoms: C_7  and  C_8
REMARK    8  A    between atoms: C_7  and  C_9
REMARK    9  A    between atoms: C_19  and  C_20
REMARK   10  A    between atoms: C_21  and  C_22
REMARK   11  A    between atoms: C_25  and  O_26
REMARK   12  A    between atoms: C_28  and  O_29
REMARK                            x       y       z     vdW  Elec       q    Type
REMARK                         _______ _______ _______ _____ _____    ______ ____
ROOT
ATOM      1  C   UNL     1      -6.447  -0.874 132.377  0.00  0.00    +0.000 C 
ATOM      2  C   UNL     1      -7.642   0.031 131.971  0.00  0.00    +0.000 C 
ATOM      3  C   UNL     1      -8.240  -0.551 130.693  0.00  0.00    +0.000 C 
ATOM      4  C   UNL     1      -7.691  -1.968 130.658  0.00  0.00    +0.000 C 
ATOM      5  C   UNL     1      -7.680  -2.770 129.400  0.00  0.00    +0.000 C 
ATOM      6  C   UNL     1      -6.995  -4.104 129.625  0.00  0.00    +0.000 C 
ATOM      7  C   UNL     1      -5.636  -4.095 130.297  0.00  0.00    +0.000 C 
ATOM      8  C   UNL     1      -5.656  -3.190 131.513  0.00  0.00    +0.000 C 
ATOM      9  C   UNL     1      -6.227  -1.803 131.126  0.00  0.00    +0.000 C 
ATOM     10  C   UNL     1      -5.434  -1.201 129.902  0.00  0.00    +0.000 C 
ATOM     11  C   UNL     1      -8.184  -2.363 128.207  0.00  0.00    +0.000 C 
ENDROOT
BRANCH  11  12
ATOM     12  C   UNL     1      -8.255  -3.217 127.045  0.00  0.00    +0.000 C 
ATOM     13  C   UNL     1      -7.759  -2.928 125.814  0.00  0.00    +0.000 C 
ATOM     14  C   UNL     1      -8.047  -3.843 124.649  0.00  0.00    +0.000 C 
ATOM     15  C   UNL     1      -8.626  -3.099 123.432  0.00  0.00    +0.000 C 
ATOM     16  C   UNL     1      -7.817  -1.856 123.062  0.00  0.00    +0.000 C 
ATOM     17  C   UNL     1      -7.628  -0.934 124.253  0.00  0.00    +0.000 C 
ATOM     18  C   UNL     1      -7.044  -1.685 125.453  0.00  0.00    +0.000 C 
ATOM     19  C   UNL     1      -6.038  -1.195 126.204  0.00  0.00    +0.000 C 
BRANCH  15  20
ATOM     20  O   UNL     1     -10.000  -2.763 123.639  0.00  0.00    +0.000 OA
ATOM     21  H   UNL     1     -10.260  -3.017 124.541  0.00  0.00    +0.000 HD
ENDBRANCH  15  20
BRANCH  17  22
ATOM     22  O   UNL     1      -6.828   0.184 123.878  0.00  0.00    +0.000 OA
ATOM     23  H   UNL     1      -6.637   0.680 124.690  0.00  0.00    +0.000 HD
ENDBRANCH  17  22
ENDBRANCH  11  12
BRANCH   1  24
ATOM     24  C   UNL     1      -5.219  -0.144 133.008  0.00  0.00    +0.000 C 
ATOM     25  C   UNL     1      -4.698  -0.820 134.277  0.00  0.00    +0.000 C 
BRANCH  24  26
ATOM     26  C   UNL     1      -5.586   1.290 133.306  0.00  0.00    +0.000 C 
BRANCH  26  27
ATOM     27  C   UNL     1      -5.043   2.408 132.493  0.00  0.00    +0.000 C 
BRANCH  27  28
ATOM     28  C   UNL     1      -4.008   1.834 131.519  0.00  0.00    +0.000 C 
BRANCH  28  30
ATOM     29  C   UNL     1      -5.714   2.485 129.808  0.00  0.00    +0.000 C 
ATOM     30  C   UNL     1      -4.233   2.467 130.154  0.00  0.00    +0.000 C 
ATOM     31  C   UNL     1      -3.666   3.888 130.116  0.00  0.00    +0.000 C 
ENDBRANCH  28  30
ENDBRANCH  27  28
ENDBRANCH  26  27
ENDBRANCH  24  26
ENDBRANCH   1  24
TORSDOF 8
ENDMDL
MODEL 8
REMARK VINA RESULT:      -7.5      5.577      8.264
REMARK  Name = Alfacalcidol
REMARK  12 active torsions:
REMARK  status: ('A' for Active; 'I' for Inactive)
REMARK    1  A    between atoms: C_1  and  C_2
REMARK    2  A    between atoms: C_2  and  C_3
REMARK    3  A    between atoms: C_2  and  C_4
REMARK    4  A    between atoms: C_4  and  C_5
REMARK    5  A    between atoms: C_5  and  C_6
REMARK    6  A    between atoms: C_6  and  C_7
REMARK    7  A    between atoms: C_7  and  C_8
REMARK    8  A    between atoms: C_7  and  C_9
REMARK    9  A    between atoms: C_19  and  C_20
REMARK   10  A    between atoms: C_21  and  C_22
REMARK   11  A    between atoms: C_25  and  O_26
REMARK   12  A    between atoms: C_28  and  O_29
REMARK                            x       y       z     vdW  Elec       q    Type
REMARK                         _______ _______ _______ _____ _____    ______ ____
ROOT
ATOM      1  C   UNL     1      -3.474   4.668 127.275  0.00  0.00    +0.000 C 
ATOM      2  C   UNL     1      -2.547   3.422 127.314  0.00  0.00    +0.000 C 
ATOM      3  C   UNL     1      -3.324   2.258 126.706  0.00  0.00    +0.000 C 
ATOM      4  C   UNL     1      -4.450   2.941 125.946  0.00  0.00    +0.000 C 
ATOM      5  C   UNL     1      -5.676   2.199 125.535  0.00  0.00    +0.000 C 
ATOM      6  C   UNL     1      -6.672   3.136 124.882  0.00  0.00    +0.000 C 
ATOM      7  C   UNL     1      -7.011   4.424 125.608  0.00  0.00    +0.000 C 
ATOM      8  C   UNL     1      -5.747   5.099 126.100  0.00  0.00    +0.000 C 
ATOM      9  C   UNL     1      -4.884   4.085 126.891  0.00  0.00    +0.000 C 
ATOM     10  C   UNL     1      -5.732   3.415 128.041  0.00  0.00    +0.000 C 
ATOM     11  C   UNL     1      -5.896   0.874 125.738  0.00  0.00    +0.000 C 
ENDROOT
BRANCH  11  12
ATOM     12  C   UNL     1      -7.048   0.174 125.221  0.00  0.00    +0.000 C 
ATOM     13  C   UNL     1      -7.871  -0.637 125.933  0.00  0.00    +0.000 C 
ATOM     14  C   UNL     1      -8.943  -1.434 125.230  0.00  0.00    +0.000 C 
ATOM     15  C   UNL     1      -8.898  -2.933 125.574  0.00  0.00    +0.000 C 
ATOM     16  C   UNL     1      -8.820  -3.190 127.079  0.00  0.00    +0.000 C 
ATOM     17  C   UNL     1      -7.675  -2.427 127.720  0.00  0.00    +0.000 C 
ATOM     18  C   UNL     1      -7.736  -0.936 127.375  0.00  0.00    +0.000 C 
ATOM     19  C   UNL     1      -7.554   0.035 128.293  0.00  0.00    +0.000 C 
BRANCH  15  20
ATOM     20  O   UNL     1      -7.823  -3.587 124.895  0.00  0.00    +0.000 OA
ATOM     21  H   UNL     1      -7.784  -3.270 123.975  0.00  0.00    +0.000 HD
ENDBRANCH  15  20
BRANCH  17  22
ATOM     22  O   UNL     1      -7.668  -2.654 129.126  0.00  0.00    +0.000 OA
ATOM     23  H   UNL     1      -8.033  -1.857 129.543  0.00  0.00    +0.000 HD
ENDBRANCH  17  22
ENDBRANCH  11  12
BRANCH   1  24
ATOM     24  C   UNL     1      -3.358   5.645 128.487  0.00  0.00    +0.000 C 
ATOM     25  C   UNL     1      -2.414   6.822 128.231  0.00  0.00    +0.000 C 
BRANCH  24  26
ATOM     26  C   UNL     1      -2.903   4.881 129.707  0.00  0.00    +0.000 C 
BRANCH  26  27
ATOM     27  C   UNL     1      -3.147   5.401 131.076  0.00  0.00    +0.000 C 
BRANCH  27  28
ATOM     28  C   UNL     1      -1.807   5.442 131.820  0.00  0.00    +0.000 C 
BRANCH  28  30
ATOM     29  C   UNL     1      -2.522   7.822 132.116  0.00  0.00    +0.000 C 
ATOM     30  C   UNL     1      -1.343   6.890 131.888  0.00  0.00    +0.000 C 
ATOM     31  C   UNL     1      -0.304   7.072 132.998  0.00  0.00    +0.000 C 
ENDBRANCH  28  30
ENDBRANCH  27  28
ENDBRANCH  26  27
ENDBRANCH  24  26
ENDBRANCH   1  24
TORSDOF 8
ENDMDL
MODEL 9
REMARK VINA RESULT:      -7.4      4.149      6.353
REMARK  Name = Alfacalcidol
REMARK  12 active torsions:
REMARK  status: ('A' for Active; 'I' for Inactive)
REMARK    1  A    between atoms: C_1  and  C_2
REMARK    2  A    between atoms: C_2  and  C_3
REMARK    3  A    between atoms: C_2  and  C_4
REMARK    4  A    between atoms: C_4  and  C_5
REMARK    5  A    between atoms: C_5  and  C_6
REMARK    6  A    between atoms: C_6  and  C_7
REMARK    7  A    between atoms: C_7  and  C_8
REMARK    8  A    between atoms: C_7  and  C_9
REMARK    9  A    between atoms: C_19  and  C_20
REMARK   10  A    between atoms: C_21  and  C_22
REMARK   11  A    between atoms: C_25  and  O_26
REMARK   12  A    between atoms: C_28  and  O_29
REMARK                            x       y       z     vdW  Elec       q    Type
REMARK                         _______ _______ _______ _____ _____    ______ ____
ROOT
ATOM      1  C   UNL     1      -2.062   7.425 133.268  0.00  0.00    +0.000 C 
ATOM      2  C   UNL     1      -3.042   7.409 134.473  0.00  0.00    +0.000 C 
ATOM      3  C   UNL     1      -4.207   6.497 134.099  0.00  0.00    +0.000 C 
ATOM      4  C   UNL     1      -3.664   5.687 132.934  0.00  0.00    +0.000 C 
ATOM      5  C   UNL     1      -4.571   4.963 131.997  0.00  0.00    +0.000 C 
ATOM      6  C   UNL     1      -3.778   4.318 130.878  0.00  0.00    +0.000 C 
ATOM      7  C   UNL     1      -2.776   5.182 130.135  0.00  0.00    +0.000 C 
ATOM      8  C   UNL     1      -1.940   5.980 131.115  0.00  0.00    +0.000 C 
ATOM      9  C   UNL     1      -2.865   6.723 132.111  0.00  0.00    +0.000 C 
ATOM     10  C   UNL     1      -3.930   7.591 131.334  0.00  0.00    +0.000 C 
ATOM     11  C   UNL     1      -5.923   4.904 132.104  0.00  0.00    +0.000 C 
ENDROOT
BRANCH  11  12
ATOM     12  C   UNL     1      -6.752   4.096 131.241  0.00  0.00    +0.000 C 
ATOM     13  C   UNL     1      -7.961   4.453 130.738  0.00  0.00    +0.000 C 
ATOM     14  C   UNL     1      -8.793   3.446 129.981  0.00  0.00    +0.000 C 
ATOM     15  C   UNL     1     -10.230   3.330 130.519  0.00  0.00    +0.000 C 
ATOM     16  C   UNL     1     -10.906   4.690 130.692  0.00  0.00    +0.000 C 
ATOM     17  C   UNL     1     -10.062   5.634 131.529  0.00  0.00    +0.000 C 
ATOM     18  C   UNL     1      -8.637   5.746 130.978  0.00  0.00    +0.000 C 
ATOM     19  C   UNL     1      -7.997   6.924 130.840  0.00  0.00    +0.000 C 
BRANCH  15  20
ATOM     20  O   UNL     1     -10.264   2.591 131.742  0.00  0.00    +0.000 OA
ATOM     21  H   UNL     1      -9.786   1.752 131.624  0.00  0.00    +0.000 HD
ENDBRANCH  15  20
BRANCH  17  22
ATOM     22  O   UNL     1     -10.703   6.903 131.624  0.00  0.00    +0.000 OA
ATOM     23  H   UNL     1     -11.633   6.768 131.383  0.00  0.00    +0.000 HD
ENDBRANCH  17  22
ENDBRANCH  11  12
BRANCH   1  24
ATOM     24  C   UNL     1      -1.349   8.785 132.982  0.00  0.00    +0.000 C 
ATOM     25  C   UNL     1       0.085   8.840 133.512  0.00  0.00    +0.000 C 
BRANCH  24  26
ATOM     26  C   UNL     1      -2.158   9.911 133.579  0.00  0.00    +0.000 C 
BRANCH  26  27
ATOM     27  C   UNL     1      -2.235  11.238 132.916  0.00  0.00    +0.000 C 
BRANCH  27  28
ATOM     28  C   UNL     1      -1.470  12.249 133.777  0.00  0.00    +0.000 C 
BRANCH  28  30
ATOM     29  C   UNL     1       0.956  12.442 133.191  0.00  0.00    +0.000 C 
ATOM     30  C   UNL     1      -0.447  12.950 132.896  0.00  0.00    +0.000 C 
ATOM     31  C   UNL     1      -0.779  12.747 131.415  0.00  0.00    +0.000 C 
ENDBRANCH  28  30
ENDBRANCH  27  28
ENDBRANCH  26  27
ENDBRANCH  24  26
ENDBRANCH   1  24
TORSDOF 8
ENDMDL
