MODEL 1
REMARK VINA RESULT:      -7.5      0.000      0.000
REMARK  Name = Alfentanil
REMARK  12 active torsions:
REMARK  status: ('A' for Active; 'I' for Inactive)
REMARK    1  A    between atoms: C_1  and  C_2
REMARK    2  A    between atoms: C_2  and  N_3
REMARK    3  A    between atoms: N_6  and  C_7
REMARK    4  A    between atoms: C_7  and  C_8
REMARK    5  A    between atoms: C_8  and  N_9
REMARK    6  A    between atoms: C_12  and  C_13
REMARK    7  A    between atoms: C_12  and  N_18
REMARK    8  A    between atoms: C_13  and  O_14
REMARK    9  A    between atoms: O_14  and  C_15
REMARK   10  A    between atoms: N_18  and  C_23
REMARK   11  A    between atoms: C_19  and  C_21
REMARK   12  A    between atoms: C_21  and  C_22
REMARK                            x       y       z     vdW  Elec       q    Type
REMARK                         _______ _______ _______ _____ _____    ______ ____
ROOT
ATOM      1  N   UNL     1      -5.415   0.147 126.312  0.00  0.00    +0.000 NA
ATOM      2  C   UNL     1      -5.998  -0.970 127.090  0.00  0.00    +0.000 C 
ATOM      3  C   UNL     1      -5.818  -2.236 126.268  0.00  0.00    +0.000 C 
ATOM      4  C   UNL     1      -6.646  -2.173 124.946  0.00  0.00    +0.000 C 
ATOM      5  C   UNL     1      -6.072  -0.948 124.218  0.00  0.00    +0.000 C 
ATOM      6  C   UNL     1      -6.202   0.282 125.109  0.00  0.00    +0.000 C 
ENDROOT
BRANCH   4   7
ATOM      7  N   UNL     1      -8.183  -2.099 125.146  0.00  0.00    +0.000 N 
ATOM      8  C   UNL     1      -9.013  -2.854 126.026  0.00  0.00    +0.000 C 
ATOM      9  O   UNL     1     -10.245  -2.729 125.999  0.00  0.00    +0.000 OA
BRANCH   7  10
ATOM     10  C   UNL     1      -8.851  -1.043 124.382  0.00  0.00    +0.000 A 
ATOM     11  C   UNL     1      -9.229   0.163 124.987  0.00  0.00    +0.000 A 
ATOM     12  C   UNL     1      -9.947   1.134 124.264  0.00  0.00    +0.000 A 
ATOM     13  C   UNL     1     -10.207   0.964 122.904  0.00  0.00    +0.000 A 
ATOM     14  C   UNL     1      -9.811  -0.206 122.282  0.00  0.00    +0.000 A 
ATOM     15  C   UNL     1      -9.182  -1.205 123.029  0.00  0.00    +0.000 A 
ENDBRANCH   7  10
BRANCH   8  16
ATOM     16  C   UNL     1      -8.450  -3.861 127.063  0.00  0.00    +0.000 C 
ATOM     17  C   UNL     1      -8.694  -3.543 128.518  0.00  0.00    +0.000 C 
ENDBRANCH   8  16
ENDBRANCH   4   7
BRANCH   1  18
ATOM     18  C   UNL     1      -5.602   1.359 127.094  0.00  0.00    +0.000 C 
BRANCH  18  19
ATOM     19  C   UNL     1      -5.511   2.711 126.361  0.00  0.00    +0.000 C 
BRANCH  19  23
ATOM     20  N   UNL     1      -2.887   4.835 127.485  0.00  0.00    +0.000 N 
ATOM     21  N   UNL     1      -2.229   3.648 127.331  0.00  0.00    +0.000 NA
ATOM     22  N   UNL     1      -3.054   2.781 126.863  0.00  0.00    +0.000 NA
ATOM     23  N   UNL     1      -4.284   3.374 126.738  0.00  0.00    +0.000 N 
ATOM     24  C   UNL     1      -4.193   4.693 127.122  0.00  0.00    +0.000 A 
ATOM     25  O   UNL     1      -5.032   5.562 127.188  0.00  0.00    +0.000 OA
BRANCH  20  27
ATOM     26  C   UNL     1      -2.553   5.919 129.660  0.00  0.00    +0.000 C 
ATOM     27  C   UNL     1      -2.462   6.036 128.137  0.00  0.00    +0.000 C 
ENDBRANCH  20  27
ENDBRANCH  19  23
ENDBRANCH  18  19
ENDBRANCH   1  18
BRANCH   4  28
ATOM     28  C   UNL     1      -6.293  -3.430 124.109  0.00  0.00    +0.000 C 
BRANCH  28  29
ATOM     29  O   UNL     1      -4.913  -3.384 123.734  0.00  0.00    +0.000 OA
ATOM     30  C   UNL     1      -4.356  -4.677 123.614  0.00  0.00    +0.000 C 
ENDBRANCH  28  29
ENDBRANCH   4  28
TORSDOF 9
ENDMDL
MODEL 2
REMARK VINA RESULT:      -7.5      6.375      9.180
REMARK  Name = Alfentanil
REMARK  12 active torsions:
REMARK  status: ('A' for Active; 'I' for Inactive)
REMARK    1  A    between atoms: C_1  and  C_2
REMARK    2  A    between atoms: C_2  and  N_3
REMARK    3  A    between atoms: N_6  and  C_7
REMARK    4  A    between atoms: C_7  and  C_8
REMARK    5  A    between atoms: C_8  and  N_9
REMARK    6  A    between atoms: C_12  and  C_13
REMARK    7  A    between atoms: C_12  and  N_18
REMARK    8  A    between atoms: C_13  and  O_14
REMARK    9  A    between atoms: O_14  and  C_15
REMARK   10  A    between atoms: N_18  and  C_23
REMARK   11  A    between atoms: C_19  and  C_21
REMARK   12  A    between atoms: C_21  and  C_22
REMARK                            x       y       z     vdW  Elec       q    Type
REMARK                         _______ _______ _______ _____ _____    ______ ____
ROOT
ATOM      1  N   UNL     1      -7.305   3.830 131.003  0.00  0.00    +0.000 NA
ATOM      2  C   UNL     1      -6.449   3.294 129.919  0.00  0.00    +0.000 C 
ATOM      3  C   UNL     1      -5.053   3.112 130.494  0.00  0.00    +0.000 C 
ATOM      4  C   UNL     1      -4.421   4.485 130.883  0.00  0.00    +0.000 C 
ATOM      5  C   UNL     1      -5.390   5.045 131.935  0.00  0.00    +0.000 C 
ATOM      6  C   UNL     1      -6.791   5.136 131.341  0.00  0.00    +0.000 C 
ENDROOT
BRANCH   4   7
ATOM      7  N   UNL     1      -4.188   5.453 129.693  0.00  0.00    +0.000 N 
ATOM      8  C   UNL     1      -4.118   6.877 129.692  0.00  0.00    +0.000 C 
ATOM      9  O   UNL     1      -4.011   7.507 128.630  0.00  0.00    +0.000 OA
BRANCH   7  10
ATOM     10  C   UNL     1      -3.915   4.797 128.412  0.00  0.00    +0.000 A 
ATOM     11  C   UNL     1      -2.662   4.238 128.134  0.00  0.00    +0.000 A 
ATOM     12  C   UNL     1      -2.387   3.687 126.868  0.00  0.00    +0.000 A 
ATOM     13  C   UNL     1      -3.385   3.592 125.899  0.00  0.00    +0.000 A 
ATOM     14  C   UNL     1      -4.639   4.109 126.168  0.00  0.00    +0.000 A 
ATOM     15  C   UNL     1      -4.876   4.738 127.392  0.00  0.00    +0.000 A 
ENDBRANCH   7  10
BRANCH   8  16
ATOM     16  C   UNL     1      -4.165   7.727 130.990  0.00  0.00    +0.000 C 
ATOM     17  C   UNL     1      -2.867   7.884 131.744  0.00  0.00    +0.000 C 
ENDBRANCH   8  16
ENDBRANCH   4   7
BRANCH   1  18
ATOM     18  C   UNL     1      -8.636   4.017 130.446  0.00  0.00    +0.000 C 
BRANCH  18  19
ATOM     19  C   UNL     1      -9.611   4.939 131.202  0.00  0.00    +0.000 C 
BRANCH  19  23
ATOM     20  N   UNL     1     -10.979   7.154 128.777  0.00  0.00    +0.000 N 
ATOM     21  N   UNL     1     -11.917   6.161 128.797  0.00  0.00    +0.000 NA
ATOM     22  N   UNL     1     -11.580   5.300 129.691  0.00  0.00    +0.000 NA
ATOM     23  N   UNL     1     -10.390   5.692 130.247  0.00  0.00    +0.000 N 
ATOM     24  C   UNL     1      -9.995   6.884 129.681  0.00  0.00    +0.000 A 
ATOM     25  O   UNL     1      -9.010   7.561 129.861  0.00  0.00    +0.000 OA
BRANCH  20  27
ATOM     26  C   UNL     1     -11.018   7.765 126.402  0.00  0.00    +0.000 C 
ATOM     27  C   UNL     1     -10.806   8.226 127.845  0.00  0.00    +0.000 C 
ENDBRANCH  20  27
ENDBRANCH  19  23
ENDBRANCH  18  19
ENDBRANCH   1  18
BRANCH   4  28
ATOM     28  C   UNL     1      -3.070   4.198 131.587  0.00  0.00    +0.000 C 
BRANCH  28  29
ATOM     29  O   UNL     1      -3.291   4.013 132.989  0.00  0.00    +0.000 OA
ATOM     30  C   UNL     1      -2.901   2.723 133.418  0.00  0.00    +0.000 C 
ENDBRANCH  28  29
ENDBRANCH   4  28
TORSDOF 9
ENDMDL
MODEL 3
REMARK VINA RESULT:      -7.4      1.297      2.797
REMARK  Name = Alfentanil
REMARK  12 active torsions:
REMARK  status: ('A' for Active; 'I' for Inactive)
REMARK    1  A    between atoms: C_1  and  C_2
REMARK    2  A    between atoms: C_2  and  N_3
REMARK    3  A    between atoms: N_6  and  C_7
REMARK    4  A    between atoms: C_7  and  C_8
REMARK    5  A    between atoms: C_8  and  N_9
REMARK    6  A    between atoms: C_12  and  C_13
REMARK    7  A    between atoms: C_12  and  N_18
REMARK    8  A    between atoms: C_13  and  O_14
REMARK    9  A    between atoms: O_14  and  C_15
REMARK   10  A    between atoms: N_18  and  C_23
REMARK   11  A    between atoms: C_19  and  C_21
REMARK   12  A    between atoms: C_21  and  C_22
REMARK                            x       y       z     vdW  Elec       q    Type
REMARK                         _______ _______ _______ _____ _____    ______ ____
ROOT
ATOM      1  N   UNL     1      -6.288   0.331 127.631  0.00  0.00    +0.000 NA
ATOM      2  C   UNL     1      -7.370   0.807 126.739  0.00  0.00    +0.000 C 
ATOM      3  C   UNL     1      -8.383  -0.320 126.615  0.00  0.00    +0.000 C 
ATOM      4  C   UNL     1      -7.763  -1.558 125.894  0.00  0.00    +0.000 C 
ATOM      5  C   UNL     1      -6.591  -1.957 126.803  0.00  0.00    +0.000 C 
ATOM      6  C   UNL     1      -5.643  -0.774 126.962  0.00  0.00    +0.000 C 
ENDROOT
BRANCH   4   7
ATOM      7  N   UNL     1      -7.336  -1.306 124.424  0.00  0.00    +0.000 N 
ATOM      8  C   UNL     1      -6.473  -2.079 123.592  0.00  0.00    +0.000 C 
ATOM      9  O   UNL     1      -6.166  -1.687 122.458  0.00  0.00    +0.000 OA
BRANCH   7  10
ATOM     10  C   UNL     1      -7.986  -0.160 123.783  0.00  0.00    +0.000 A 
ATOM     11  C   UNL     1      -7.301   1.045 123.581  0.00  0.00    +0.000 A 
ATOM     12  C   UNL     1      -7.963   2.164 123.043  0.00  0.00    +0.000 A 
ATOM     13  C   UNL     1      -9.283   2.071 122.605  0.00  0.00    +0.000 A 
ATOM     14  C   UNL     1      -9.966   0.878 122.767  0.00  0.00    +0.000 A 
ATOM     15  C   UNL     1      -9.330  -0.200 123.387  0.00  0.00    +0.000 A 
ENDBRANCH   7  10
BRANCH   8  16
ATOM     16  C   UNL     1      -5.871  -3.440 124.033  0.00  0.00    +0.000 C 
ATOM     17  C   UNL     1      -4.473  -3.749 123.552  0.00  0.00    +0.000 C 
ENDBRANCH   8  16
ENDBRANCH   4   7
BRANCH   1  18
ATOM     18  C   UNL     1      -5.313   1.406 127.736  0.00  0.00    +0.000 C 
BRANCH  18  19
ATOM     19  C   UNL     1      -4.856   2.094 126.435  0.00  0.00    +0.000 C 
BRANCH  19  23
ATOM     20  N   UNL     1      -3.138   5.049 127.422  0.00  0.00    +0.000 N 
ATOM     21  N   UNL     1      -2.105   4.164 127.295  0.00  0.00    +0.000 NA
ATOM     22  N   UNL     1      -2.576   3.044 126.877  0.00  0.00    +0.000 NA
ATOM     23  N   UNL     1      -3.937   3.160 126.760  0.00  0.00    +0.000 N 
ATOM     24  C   UNL     1      -4.314   4.442 127.095  0.00  0.00    +0.000 A 
ATOM     25  O   UNL     1      -5.404   4.962 127.150  0.00  0.00    +0.000 OA
BRANCH  20  27
ATOM     26  C   UNL     1      -2.119   6.475 129.139  0.00  0.00    +0.000 C 
ATOM     27  C   UNL     1      -3.157   6.348 128.022  0.00  0.00    +0.000 C 
ENDBRANCH  20  27
ENDBRANCH  19  23
ENDBRANCH  18  19
ENDBRANCH   1  18
BRANCH   4  28
ATOM     28  C   UNL     1      -8.809  -2.702 125.939  0.00  0.00    +0.000 C 
BRANCH  28  29
ATOM     29  O   UNL     1      -8.342  -3.744 126.801  0.00  0.00    +0.000 OA
ATOM     30  C   UNL     1      -9.216  -3.959 127.891  0.00  0.00    +0.000 C 
ENDBRANCH  28  29
ENDBRANCH   4  28
TORSDOF 9
ENDMDL
MODEL 4
REMARK VINA RESULT:      -7.4      2.406      2.908
REMARK  Name = Alfentanil
REMARK  12 active torsions:
REMARK  status: ('A' for Active; 'I' for Inactive)
REMARK    1  A    between atoms: C_1  and  C_2
REMARK    2  A    between atoms: C_2  and  N_3
REMARK    3  A    between atoms: N_6  and  C_7
REMARK    4  A    between atoms: C_7  and  C_8
REMARK    5  A    between atoms: C_8  and  N_9
REMARK    6  A    between atoms: C_12  and  C_13
REMARK    7  A    between atoms: C_12  and  N_18
REMARK    8  A    between atoms: C_13  and  O_14
REMARK    9  A    between atoms: O_14  and  C_15
REMARK   10  A    between atoms: N_18  and  C_23
REMARK   11  A    between atoms: C_19  and  C_21
REMARK   12  A    between atoms: C_21  and  C_22
REMARK                            x       y       z     vdW  Elec       q    Type
REMARK                         _______ _______ _______ _____ _____    ______ ____
ROOT
ATOM      1  N   UNL     1      -5.469   0.153 126.511  0.00  0.00    +0.000 NA
ATOM      2  C   UNL     1      -6.061  -0.987 127.247  0.00  0.00    +0.000 C 
ATOM      3  C   UNL     1      -5.853  -2.231 126.398  0.00  0.00    +0.000 C 
ATOM      4  C   UNL     1      -6.651  -2.140 125.060  0.00  0.00    +0.000 C 
ATOM      5  C   UNL     1      -6.072  -0.892 124.376  0.00  0.00    +0.000 C 
ATOM      6  C   UNL     1      -6.231   0.314 125.295  0.00  0.00    +0.000 C 
ENDROOT
BRANCH   4   7
ATOM      7  N   UNL     1      -8.193  -2.082 125.227  0.00  0.00    +0.000 N 
ATOM      8  C   UNL     1      -9.036  -2.864 126.070  0.00  0.00    +0.000 C 
ATOM      9  O   UNL     1     -10.269  -2.748 126.018  0.00  0.00    +0.000 OA
BRANCH   7  10
ATOM     10  C   UNL     1      -8.853  -1.013 124.474  0.00  0.00    +0.000 A 
ATOM     11  C   UNL     1      -9.249   0.177 125.098  0.00  0.00    +0.000 A 
ATOM     12  C   UNL     1      -9.958   1.160 124.383  0.00  0.00    +0.000 A 
ATOM     13  C   UNL     1     -10.192   1.019 123.015  0.00  0.00    +0.000 A 
ATOM     14  C   UNL     1      -9.777  -0.135 122.375  0.00  0.00    +0.000 A 
ATOM     15  C   UNL     1      -9.157  -1.147 123.112  0.00  0.00    +0.000 A 
ENDBRANCH   7  10
BRANCH   8  16
ATOM     16  C   UNL     1      -8.488  -3.892 127.095  0.00  0.00    +0.000 C 
ATOM     17  C   UNL     1      -8.613  -3.526 128.554  0.00  0.00    +0.000 C 
ENDBRANCH   8  16
ENDBRANCH   4   7
BRANCH   1  18
ATOM     18  C   UNL     1      -5.684   1.344 127.319  0.00  0.00    +0.000 C 
BRANCH  18  19
ATOM     19  C   UNL     1      -6.634   2.426 126.772  0.00  0.00    +0.000 C 
BRANCH  19  23
ATOM     20  N   UNL     1      -8.502   4.015 129.350  0.00  0.00    +0.000 N 
ATOM     21  N   UNL     1      -9.307   2.954 129.045  0.00  0.00    +0.000 NA
ATOM     22  N   UNL     1      -8.721   2.240 128.151  0.00  0.00    +0.000 NA
ATOM     23  N   UNL     1      -7.535   2.842 127.821  0.00  0.00    +0.000 N 
ATOM     24  C   UNL     1      -7.373   3.976 128.587  0.00  0.00    +0.000 A 
ATOM     25  O   UNL     1      -6.492   4.804 128.605  0.00  0.00    +0.000 OA
BRANCH  20  27
ATOM     26  C   UNL     1      -9.916   6.011 129.532  0.00  0.00    +0.000 C 
ATOM     27  C   UNL     1      -8.784   5.177 130.136  0.00  0.00    +0.000 C 
ENDBRANCH  20  27
ENDBRANCH  19  23
ENDBRANCH  18  19
ENDBRANCH   1  18
BRANCH   4  28
ATOM     28  C   UNL     1      -6.271  -3.372 124.199  0.00  0.00    +0.000 C 
BRANCH  28  29
ATOM     29  O   UNL     1      -4.932  -3.223 123.717  0.00  0.00    +0.000 OA
ATOM     30  C   UNL     1      -4.252  -4.461 123.658  0.00  0.00    +0.000 C 
ENDBRANCH  28  29
ENDBRANCH   4  28
TORSDOF 9
ENDMDL
MODEL 5
REMARK VINA RESULT:      -7.3      4.349      6.007
REMARK  Name = Alfentanil
REMARK  12 active torsions:
REMARK  status: ('A' for Active; 'I' for Inactive)
REMARK    1  A    between atoms: C_1  and  C_2
REMARK    2  A    between atoms: C_2  and  N_3
REMARK    3  A    between atoms: N_6  and  C_7
REMARK    4  A    between atoms: C_7  and  C_8
REMARK    5  A    between atoms: C_8  and  N_9
REMARK    6  A    between atoms: C_12  and  C_13
REMARK    7  A    between atoms: C_12  and  N_18
REMARK    8  A    between atoms: C_13  and  O_14
REMARK    9  A    between atoms: O_14  and  C_15
REMARK   10  A    between atoms: N_18  and  C_23
REMARK   11  A    between atoms: C_19  and  C_21
REMARK   12  A    between atoms: C_21  and  C_22
REMARK                            x       y       z     vdW  Elec       q    Type
REMARK                         _______ _______ _______ _____ _____    ______ ____
ROOT
ATOM      1  N   UNL     1      -7.566   1.236 128.193  0.00  0.00    +0.000 NA
ATOM      2  C   UNL     1      -6.844   0.338 129.124  0.00  0.00    +0.000 C 
ATOM      3  C   UNL     1      -5.854  -0.468 128.298  0.00  0.00    +0.000 C 
ATOM      4  C   UNL     1      -6.592  -1.412 127.297  0.00  0.00    +0.000 C 
ATOM      5  C   UNL     1      -7.400  -0.446 126.417  0.00  0.00    +0.000 C 
ATOM      6  C   UNL     1      -8.320   0.395 127.293  0.00  0.00    +0.000 C 
ENDROOT
BRANCH   4   7
ATOM      7  N   UNL     1      -7.468  -2.506 127.963  0.00  0.00    +0.000 N 
ATOM      8  C   UNL     1      -8.574  -3.225 127.423  0.00  0.00    +0.000 C 
ATOM      9  O   UNL     1      -9.224  -4.012 128.126  0.00  0.00    +0.000 OA
BRANCH   7  10
ATOM     10  C   UNL     1      -7.031  -2.912 129.301  0.00  0.00    +0.000 A 
ATOM     11  C   UNL     1      -5.916  -3.740 129.482  0.00  0.00    +0.000 A 
ATOM     12  C   UNL     1      -5.558  -4.192 130.766  0.00  0.00    +0.000 A 
ATOM     13  C   UNL     1      -6.241  -3.744 131.896  0.00  0.00    +0.000 A 
ATOM     14  C   UNL     1      -7.325  -2.899 131.739  0.00  0.00    +0.000 A 
ATOM     15  C   UNL     1      -7.731  -2.530 130.455  0.00  0.00    +0.000 A 
ENDBRANCH   7  10
BRANCH   8  16
ATOM     16  C   UNL     1      -9.037  -3.082 125.949  0.00  0.00    +0.000 C 
ATOM     17  C   UNL     1      -8.347  -3.961 124.934  0.00  0.00    +0.000 C 
ENDBRANCH   8  16
ENDBRANCH   4   7
BRANCH   1  18
ATOM     18  C   UNL     1      -8.523   1.995 128.984  0.00  0.00    +0.000 C 
BRANCH  18  19
ATOM     19  C   UNL     1      -8.150   3.436 129.381  0.00  0.00    +0.000 C 
BRANCH  19  23
ATOM     20  N   UNL     1     -10.747   5.722 130.209  0.00  0.00    +0.000 N 
ATOM     21  N   UNL     1     -11.424   4.536 130.193  0.00  0.00    +0.000 NA
ATOM     22  N   UNL     1     -10.585   3.590 129.962  0.00  0.00    +0.000 NA
ATOM     23  N   UNL     1      -9.344   4.143 129.781  0.00  0.00    +0.000 N 
ATOM     24  C   UNL     1      -9.427   5.508 129.946  0.00  0.00    +0.000 A 
ATOM     25  O   UNL     1      -8.586   6.372 129.854  0.00  0.00    +0.000 OA
BRANCH  20  27
ATOM     26  C   UNL     1     -12.490   7.181 131.132  0.00  0.00    +0.000 C 
ATOM     27  C   UNL     1     -11.253   7.061 130.240  0.00  0.00    +0.000 C 
ENDBRANCH  20  27
ENDBRANCH  19  23
ENDBRANCH  18  19
ENDBRANCH   1  18
BRANCH   4  28
ATOM     28  C   UNL     1      -5.518  -2.083 126.403  0.00  0.00    +0.000 C 
BRANCH  28  29
ATOM     29  O   UNL     1      -5.594  -1.547 125.079  0.00  0.00    +0.000 OA
ATOM     30  C   UNL     1      -5.179  -2.484 124.106  0.00  0.00    +0.000 C 
ENDBRANCH  28  29
ENDBRANCH   4  28
TORSDOF 9
ENDMDL
MODEL 6
REMARK VINA RESULT:      -7.2      4.846      7.023
REMARK  Name = Alfentanil
REMARK  12 active torsions:
REMARK  status: ('A' for Active; 'I' for Inactive)
REMARK    1  A    between atoms: C_1  and  C_2
REMARK    2  A    between atoms: C_2  and  N_3
REMARK    3  A    between atoms: N_6  and  C_7
REMARK    4  A    between atoms: C_7  and  C_8
REMARK    5  A    between atoms: C_8  and  N_9
REMARK    6  A    between atoms: C_12  and  C_13
REMARK    7  A    between atoms: C_12  and  N_18
REMARK    8  A    between atoms: C_13  and  O_14
REMARK    9  A    between atoms: O_14  and  C_15
REMARK   10  A    between atoms: N_18  and  C_23
REMARK   11  A    between atoms: C_19  and  C_21
REMARK   12  A    between atoms: C_21  and  C_22
REMARK                            x       y       z     vdW  Elec       q    Type
REMARK                         _______ _______ _______ _____ _____    ______ ____
ROOT
ATOM      1  N   UNL     1      -8.570   3.966 129.454  0.00  0.00    +0.000 NA
ATOM      2  C   UNL     1      -7.302   4.316 128.773  0.00  0.00    +0.000 C 
ATOM      3  C   UNL     1      -7.391   3.784 127.352  0.00  0.00    +0.000 C 
ATOM      4  C   UNL     1      -7.456   2.225 127.336  0.00  0.00    +0.000 C 
ATOM      5  C   UNL     1      -8.731   1.907 128.131  0.00  0.00    +0.000 C 
ATOM      6  C   UNL     1      -8.632   2.525 129.522  0.00  0.00    +0.000 C 
ENDROOT
BRANCH   4   7
ATOM      7  N   UNL     1      -6.195   1.517 127.897  0.00  0.00    +0.000 N 
ATOM      8  C   UNL     1      -6.067   0.205 128.442  0.00  0.00    +0.000 C 
ATOM      9  O   UNL     1      -4.994  -0.177 128.930  0.00  0.00    +0.000 OA
BRANCH   7  10
ATOM     10  C   UNL     1      -4.951   2.279 127.762  0.00  0.00    +0.000 A 
ATOM     11  C   UNL     1      -4.246   2.311 126.552  0.00  0.00    +0.000 A 
ATOM     12  C   UNL     1      -3.010   2.977 126.460  0.00  0.00    +0.000 A 
ATOM     13  C   UNL     1      -2.508   3.704 127.538  0.00  0.00    +0.000 A 
ATOM     14  C   UNL     1      -3.208   3.711 128.732  0.00  0.00    +0.000 A 
ATOM     15  C   UNL     1      -4.387   2.972 128.843  0.00  0.00    +0.000 A 
ENDBRANCH   7  10
BRANCH   8  16
ATOM     16  C   UNL     1      -7.232  -0.819 128.462  0.00  0.00    +0.000 C 
ATOM     17  C   UNL     1      -7.706  -1.280 129.819  0.00  0.00    +0.000 C 
ENDBRANCH   8  16
ENDBRANCH   4   7
BRANCH   1  18
ATOM     18  C   UNL     1      -8.476   4.462 130.819  0.00  0.00    +0.000 C 
BRANCH  18  19
ATOM     19  C   UNL     1      -9.723   5.127 131.433  0.00  0.00    +0.000 C 
BRANCH  19  23
ATOM     20  N   UNL     1     -10.945   7.200 128.812  0.00  0.00    +0.000 N 
ATOM     21  N   UNL     1     -11.896   6.221 128.849  0.00  0.00    +0.000 NA
ATOM     22  N   UNL     1     -11.614   5.413 129.809  0.00  0.00    +0.000 NA
ATOM     23  N   UNL     1     -10.446   5.827 130.397  0.00  0.00    +0.000 N 
ATOM     24  C   UNL     1     -10.009   6.977 129.777  0.00  0.00    +0.000 A 
ATOM     25  O   UNL     1      -9.024   7.654 129.962  0.00  0.00    +0.000 OA
BRANCH  20  27
ATOM     26  C   UNL     1     -11.003   7.700 126.411  0.00  0.00    +0.000 C 
ATOM     27  C   UNL     1     -10.714   8.210 127.825  0.00  0.00    +0.000 C 
ENDBRANCH  20  27
ENDBRANCH  19  23
ENDBRANCH  18  19
ENDBRANCH   1  18
BRANCH   4  28
ATOM     28  C   UNL     1      -7.689   1.779 125.869  0.00  0.00    +0.000 C 
BRANCH  28  29
ATOM     29  O   UNL     1      -8.849   2.435 125.348  0.00  0.00    +0.000 OA
ATOM     30  C   UNL     1      -9.535   1.629 124.411  0.00  0.00    +0.000 C 
ENDBRANCH  28  29
ENDBRANCH   4  28
TORSDOF 9
ENDMDL
MODEL 7
REMARK VINA RESULT:      -7.2      3.052      4.591
REMARK  Name = Alfentanil
REMARK  12 active torsions:
REMARK  status: ('A' for Active; 'I' for Inactive)
REMARK    1  A    between atoms: C_1  and  C_2
REMARK    2  A    between atoms: C_2  and  N_3
REMARK    3  A    between atoms: N_6  and  C_7
REMARK    4  A    between atoms: C_7  and  C_8
REMARK    5  A    between atoms: C_8  and  N_9
REMARK    6  A    between atoms: C_12  and  C_13
REMARK    7  A    between atoms: C_12  and  N_18
REMARK    8  A    between atoms: C_13  and  O_14
REMARK    9  A    between atoms: O_14  and  C_15
REMARK   10  A    between atoms: N_18  and  C_23
REMARK   11  A    between atoms: C_19  and  C_21
REMARK   12  A    between atoms: C_21  and  C_22
REMARK                            x       y       z     vdW  Elec       q    Type
REMARK                         _______ _______ _______ _____ _____    ______ ____
ROOT
ATOM      1  N   UNL     1      -5.724   2.525 125.986  0.00  0.00    +0.000 NA
ATOM      2  C   UNL     1      -5.815   1.265 126.759  0.00  0.00    +0.000 C 
ATOM      3  C   UNL     1      -5.663   0.117 125.774  0.00  0.00    +0.000 C 
ATOM      4  C   UNL     1      -6.855   0.075 124.768  0.00  0.00    +0.000 C 
ATOM      5  C   UNL     1      -6.778   1.435 124.058  0.00  0.00    +0.000 C 
ATOM      6  C   UNL     1      -6.856   2.555 125.090  0.00  0.00    +0.000 C 
ENDROOT
BRANCH   4   7
ATOM      7  N   UNL     1      -8.240  -0.197 125.414  0.00  0.00    +0.000 N 
ATOM      8  C   UNL     1      -9.509   0.365 125.090  0.00  0.00    +0.000 C 
ATOM      9  O   UNL     1     -10.512   0.100 125.768  0.00  0.00    +0.000 OA
BRANCH   7  10
ATOM     10  C   UNL     1      -8.245  -1.245 126.437  0.00  0.00    +0.000 A 
ATOM     11  C   UNL     1      -8.644  -2.553 126.136  0.00  0.00    +0.000 A 
ATOM     12  C   UNL     1      -8.726  -3.530 127.146  0.00  0.00    +0.000 A 
ATOM     13  C   UNL     1      -8.314  -3.246 128.448  0.00  0.00    +0.000 A 
ATOM     14  C   UNL     1      -7.884  -1.967 128.756  0.00  0.00    +0.000 A 
ATOM     15  C   UNL     1      -7.895  -0.980 127.769  0.00  0.00    +0.000 A 
ENDBRANCH   7  10
BRANCH   8  16
ATOM     16  C   UNL     1      -9.728   1.326 123.891  0.00  0.00    +0.000 C 
ATOM     17  C   UNL     1     -10.182   0.699 122.595  0.00  0.00    +0.000 C 
ENDBRANCH   8  16
ENDBRANCH   4   7
BRANCH   1  18
ATOM     18  C   UNL     1      -5.886   3.621 126.929  0.00  0.00    +0.000 C 
BRANCH  18  19
ATOM     19  C   UNL     1      -6.385   3.285 128.347  0.00  0.00    +0.000 C 
BRANCH  19  23
ATOM     20  N   UNL     1      -8.599   5.663 129.796  0.00  0.00    +0.000 N 
ATOM     21  N   UNL     1      -9.071   5.598 128.516  0.00  0.00    +0.000 NA
ATOM     22  N   UNL     1      -8.392   4.714 127.875  0.00  0.00    +0.000 NA
ATOM     23  N   UNL     1      -7.431   4.211 128.713  0.00  0.00    +0.000 N 
ATOM     24  C   UNL     1      -7.556   4.800 129.952  0.00  0.00    +0.000 A 
ATOM     25  O   UNL     1      -6.909   4.665 130.965  0.00  0.00    +0.000 OA
BRANCH  20  27
ATOM     26  C   UNL     1     -10.248   6.329 131.485  0.00  0.00    +0.000 C 
ATOM     27  C   UNL     1      -8.894   6.608 130.830  0.00  0.00    +0.000 C 
ENDBRANCH  20  27
ENDBRANCH  19  23
ENDBRANCH  18  19
ENDBRANCH   1  18
BRANCH   4  28
ATOM     28  C   UNL     1      -6.548  -1.025 123.720  0.00  0.00    +0.000 C 
BRANCH  28  29
ATOM     29  O   UNL     1      -5.450  -1.824 124.172  0.00  0.00    +0.000 OA
ATOM     30  C   UNL     1      -5.657  -3.199 123.917  0.00  0.00    +0.000 C 
ENDBRANCH  28  29
ENDBRANCH   4  28
TORSDOF 9
ENDMDL
MODEL 8
REMARK VINA RESULT:      -7.1      4.657      6.632
REMARK  Name = Alfentanil
REMARK  12 active torsions:
REMARK  status: ('A' for Active; 'I' for Inactive)
REMARK    1  A    between atoms: C_1  and  C_2
REMARK    2  A    between atoms: C_2  and  N_3
REMARK    3  A    between atoms: N_6  and  C_7
REMARK    4  A    between atoms: C_7  and  C_8
REMARK    5  A    between atoms: C_8  and  N_9
REMARK    6  A    between atoms: C_12  and  C_13
REMARK    7  A    between atoms: C_12  and  N_18
REMARK    8  A    between atoms: C_13  and  O_14
REMARK    9  A    between atoms: O_14  and  C_15
REMARK   10  A    between atoms: N_18  and  C_23
REMARK   11  A    between atoms: C_19  and  C_21
REMARK   12  A    between atoms: C_21  and  C_22
REMARK                            x       y       z     vdW  Elec       q    Type
REMARK                         _______ _______ _______ _____ _____    ______ ____
ROOT
ATOM      1  N   UNL     1      -7.469   3.270 129.179  0.00  0.00    +0.000 NA
ATOM      2  C   UNL     1      -7.315   1.834 128.851  0.00  0.00    +0.000 C 
ATOM      3  C   UNL     1      -5.902   1.640 128.323  0.00  0.00    +0.000 C 
ATOM      4  C   UNL     1      -5.695   2.399 126.974  0.00  0.00    +0.000 C 
ATOM      5  C   UNL     1      -5.957   3.868 127.342  0.00  0.00    +0.000 C 
ATOM      6  C   UNL     1      -7.353   4.003 127.939  0.00  0.00    +0.000 C 
ENDROOT
BRANCH   4   7
ATOM      7  N   UNL     1      -6.580   1.897 125.804  0.00  0.00    +0.000 N 
ATOM      8  C   UNL     1      -7.054   2.610 124.663  0.00  0.00    +0.000 C 
ATOM      9  O   UNL     1      -7.830   2.077 123.859  0.00  0.00    +0.000 OA
BRANCH   7  10
ATOM     10  C   UNL     1      -6.893   0.466 125.840  0.00  0.00    +0.000 A 
ATOM     11  C   UNL     1      -5.954  -0.494 125.444  0.00  0.00    +0.000 A 
ATOM     12  C   UNL     1      -6.296  -1.858 125.402  0.00  0.00    +0.000 A 
ATOM     13  C   UNL     1      -7.541  -2.296 125.853  0.00  0.00    +0.000 A 
ATOM     14  C   UNL     1      -8.471  -1.364 126.280  0.00  0.00    +0.000 A 
ATOM     15  C   UNL     1      -8.156  -0.005 126.229  0.00  0.00    +0.000 A 
ENDBRANCH   7  10
BRANCH   8  16
ATOM     16  C   UNL     1      -6.640   4.072 124.349  0.00  0.00    +0.000 C 
ATOM     17  C   UNL     1      -5.518   4.260 123.356  0.00  0.00    +0.000 C 
ENDBRANCH   8  16
ENDBRANCH   4   7
BRANCH   1  18
ATOM     18  C   UNL     1      -8.826   3.456 129.669  0.00  0.00    +0.000 C 
BRANCH  18  19
ATOM     19  C   UNL     1      -9.098   4.651 130.602  0.00  0.00    +0.000 C 
BRANCH  19  23
ATOM     20  N   UNL     1     -11.211   7.097 129.114  0.00  0.00    +0.000 N 
ATOM     21  N   UNL     1     -12.016   5.994 129.095  0.00  0.00    +0.000 NA
ATOM     22  N   UNL     1     -11.396   5.025 129.668  0.00  0.00    +0.000 NA
ATOM     23  N   UNL     1     -10.151   5.463 130.039  0.00  0.00    +0.000 N 
ATOM     24  C   UNL     1     -10.019   6.792 129.701  0.00  0.00    +0.000 A 
ATOM     25  O   UNL     1      -9.089   7.555 129.826  0.00  0.00    +0.000 OA
BRANCH  20  27
ATOM     26  C   UNL     1     -12.802   8.877 128.553  0.00  0.00    +0.000 C 
ATOM     27  C   UNL     1     -11.368   8.354 128.448  0.00  0.00    +0.000 C 
ENDBRANCH  20  27
ENDBRANCH  19  23
ENDBRANCH  18  19
ENDBRANCH   1  18
BRANCH   4  28
ATOM     28  C   UNL     1      -4.200   2.267 126.585  0.00  0.00    +0.000 C 
BRANCH  28  29
ATOM     29  O   UNL     1      -3.594   3.563 126.566  0.00  0.00    +0.000 OA
ATOM     30  C   UNL     1      -2.185   3.486 126.485  0.00  0.00    +0.000 C 
ENDBRANCH  28  29
ENDBRANCH   4  28
TORSDOF 9
ENDMDL
MODEL 9
REMARK VINA RESULT:      -7.0      1.536      3.435
REMARK  Name = Alfentanil
REMARK  12 active torsions:
REMARK  status: ('A' for Active; 'I' for Inactive)
REMARK    1  A    between atoms: C_1  and  C_2
REMARK    2  A    between atoms: C_2  and  N_3
REMARK    3  A    between atoms: N_6  and  C_7
REMARK    4  A    between atoms: C_7  and  C_8
REMARK    5  A    between atoms: C_8  and  N_9
REMARK    6  A    between atoms: C_12  and  C_13
REMARK    7  A    between atoms: C_12  and  N_18
REMARK    8  A    between atoms: C_13  and  O_14
REMARK    9  A    between atoms: O_14  and  C_15
REMARK   10  A    between atoms: N_18  and  C_23
REMARK   11  A    between atoms: C_19  and  C_21
REMARK   12  A    between atoms: C_21  and  C_22
REMARK                            x       y       z     vdW  Elec       q    Type
REMARK                         _______ _______ _______ _____ _____    ______ ____
ROOT
ATOM      1  N   UNL     1      -5.353   2.110 125.843  0.00  0.00    +0.000 NA
ATOM      2  C   UNL     1      -5.552   0.873 126.633  0.00  0.00    +0.000 C 
ATOM      3  C   UNL     1      -5.573  -0.290 125.654  0.00  0.00    +0.000 C 
ATOM      4  C   UNL     1      -6.806  -0.203 124.700  0.00  0.00    +0.000 C 
ATOM      5  C   UNL     1      -6.607   1.136 123.974  0.00  0.00    +0.000 C 
ATOM      6  C   UNL     1      -6.513   2.262 124.996  0.00  0.00    +0.000 C 
ENDROOT
BRANCH   4   7
ATOM      7  N   UNL     1      -8.182  -0.314 125.408  0.00  0.00    +0.000 N 
ATOM      8  C   UNL     1      -9.404   0.357 125.108  0.00  0.00    +0.000 C 
ATOM      9  O   UNL     1     -10.399   0.217 125.833  0.00  0.00    +0.000 OA
BRANCH   7  10
ATOM     10  C   UNL     1      -8.246  -1.317 126.474  0.00  0.00    +0.000 A 
ATOM     11  C   UNL     1      -7.847  -1.014 127.781  0.00  0.00    +0.000 A 
ATOM     12  C   UNL     1      -7.831  -2.009 128.776  0.00  0.00    +0.000 A 
ATOM     13  C   UNL     1      -8.309  -3.292 128.509  0.00  0.00    +0.000 A 
ATOM     14  C   UNL     1      -8.739  -3.600 127.231  0.00  0.00    +0.000 A 
ATOM     15  C   UNL     1      -8.663  -2.633 126.227  0.00  0.00    +0.000 A 
ENDBRANCH   7  10
BRANCH   8  16
ATOM     16  C   UNL     1      -9.579   1.287 123.879  0.00  0.00    +0.000 C 
ATOM     17  C   UNL     1     -10.113   0.651 122.618  0.00  0.00    +0.000 C 
ENDBRANCH   8  16
ENDBRANCH   4   7
BRANCH   1  18
ATOM     18  C   UNL     1      -5.350   3.222 126.781  0.00  0.00    +0.000 C 
BRANCH  18  19
ATOM     19  C   UNL     1      -4.300   3.212 127.908  0.00  0.00    +0.000 C 
BRANCH  19  23
ATOM     20  N   UNL     1      -3.569   6.581 128.785  0.00  0.00    +0.000 N 
ATOM     21  N   UNL     1      -2.406   6.200 128.178  0.00  0.00    +0.000 NA
ATOM     22  N   UNL     1      -2.546   4.997 127.746  0.00  0.00    +0.000 NA
ATOM     23  N   UNL     1      -3.794   4.550 128.098  0.00  0.00    +0.000 N 
ATOM     24  C   UNL     1      -4.467   5.556 128.756  0.00  0.00    +0.000 A 
ATOM     25  O   UNL     1      -5.570   5.583 129.252  0.00  0.00    +0.000 OA
BRANCH  20  27
ATOM     26  C   UNL     1      -3.288   7.610 130.994  0.00  0.00    +0.000 C 
ATOM     27  C   UNL     1      -3.847   7.741 129.576  0.00  0.00    +0.000 C 
ENDBRANCH  20  27
ENDBRANCH  19  23
ENDBRANCH  18  19
ENDBRANCH   1  18
BRANCH   4  28
ATOM     28  C   UNL     1      -6.671  -1.337 123.651  0.00  0.00    +0.000 C 
BRANCH  28  29
ATOM     29  O   UNL     1      -5.511  -2.123 123.943  0.00  0.00    +0.000 OA
ATOM     30  C   UNL     1      -5.811  -3.502 124.008  0.00  0.00    +0.000 C 
ENDBRANCH  28  29
ENDBRANCH   4  28
TORSDOF 9
ENDMDL
