MODEL 1
REMARK VINA RESULT:      -7.5      0.000      0.000
REMARK  Name = Alfuzosin
REMARK  10 active torsions:
REMARK  status: ('A' for Active; 'I' for Inactive)
REMARK    1  A    between atoms: C_1  and  O_2
REMARK    2  A    between atoms: O_2  and  C_3
REMARK    3  A    between atoms: C_8  and  O_9
REMARK    4  A    between atoms: O_9  and  C_10
REMARK    5  A    between atoms: N_16  and  C_17
REMARK    6  A    between atoms: N_16  and  C_18
REMARK    7  A    between atoms: C_18  and  C_19
REMARK    8  A    between atoms: C_19  and  C_20
REMARK    9  A    between atoms: C_20  and  N_21
REMARK   10  A    between atoms: C_22  and  C_24
REMARK                            x       y       z     vdW  Elec       q    Type
REMARK                         _______ _______ _______ _____ _____    ______ ____
ROOT
ATOM      1  C   UNL     1      -6.450   3.927 121.668  0.00  0.00    +0.000 A 
ATOM      2  C   UNL     1      -6.128   3.558 122.995  0.00  0.00    +0.000 A 
ATOM      3  C   UNL     1      -7.043   2.954 123.868  0.00  0.00    +0.000 A 
ATOM      4  C   UNL     1      -8.313   2.700 123.365  0.00  0.00    +0.000 A 
ATOM      5  C   UNL     1      -8.646   3.056 122.029  0.00  0.00    +0.000 A 
ATOM      6  C   UNL     1      -7.730   3.661 121.171  0.00  0.00    +0.000 A 
ATOM      7  C   UNL     1      -9.187   2.072 124.257  0.00  0.00    +0.000 A 
ATOM      8  N   UNL     1     -10.498   1.792 123.922  0.00  0.00    +0.000 N 
ATOM      9  N   UNL     1      -8.850   1.754 125.519  0.00  0.00    +0.000 NA
ATOM     10  C   UNL     1      -7.615   2.048 125.948  0.00  0.00    +0.000 A 
ATOM     11  N   UNL     1      -6.706   2.634 125.138  0.00  0.00    +0.000 NA
ATOM     12  N   UNL     1      -7.282   1.740 127.261  0.00  0.00    +0.000 N 
ATOM     13  C   UNL     1      -5.959   2.058 127.758  0.00  0.00    +0.000 C 
ATOM     14  H   UNL     1     -10.855   1.865 122.987  0.00  0.00    +0.000 HD
ATOM     15  H   UNL     1     -11.024   1.288 124.621  0.00  0.00    +0.000 HD
ENDROOT
BRANCH   1  17
ATOM     16  C   UNL     1      -4.298   4.961 121.679  0.00  0.00    +0.000 C 
ATOM     17  O   UNL     1      -5.401   4.438 120.940  0.00  0.00    +0.000 OA
ENDBRANCH   1  17
BRANCH   6  18
ATOM     18  O   UNL     1      -8.010   3.957 119.867  0.00  0.00    +0.000 OA
ATOM     19  C   UNL     1      -9.359   4.195 119.484  0.00  0.00    +0.000 C 
ENDBRANCH   6  18
BRANCH  12  20
ATOM     20  C   UNL     1      -8.288   1.116 128.137  0.00  0.00    +0.000 C 
BRANCH  20  21
ATOM     21  C   UNL     1      -7.675   0.209 129.224  0.00  0.00    +0.000 C 
BRANCH  21  22
ATOM     22  C   UNL     1      -7.334  -1.188 128.722  0.00  0.00    +0.000 C 
BRANCH  22  23
ATOM     23  N   UNL     1      -7.927  -1.448 127.415  0.00  0.00    +0.000 N 
ATOM     24  C   UNL     1      -8.529  -2.658 127.140  0.00  0.00    +0.000 C 
ATOM     25  O   UNL     1      -8.558  -3.563 127.983  0.00  0.00    +0.000 OA
ATOM     26  H   UNL     1      -8.004  -0.688 126.756  0.00  0.00    +0.000 HD
BRANCH  24  27
ATOM     27  C   UNL     1      -9.235  -2.821 125.777  0.00  0.00    +0.000 C 
ATOM     28  C   UNL     1      -8.598  -3.727 124.730  0.00  0.00    +0.000 C 
ATOM     29  C   UNL     1      -8.978  -3.059 123.428  0.00  0.00    +0.000 C 
ATOM     30  C   UNL     1      -9.024  -1.596 123.797  0.00  0.00    +0.000 C 
ATOM     31  O   UNL     1      -9.396  -1.528 125.172  0.00  0.00    +0.000 OA
ENDBRANCH  24  27
ENDBRANCH  22  23
ENDBRANCH  21  22
ENDBRANCH  20  21
ENDBRANCH  12  20
TORSDOF 7
ENDMDL
MODEL 2
REMARK VINA RESULT:      -7.4      5.074      7.110
REMARK  Name = Alfuzosin
REMARK  10 active torsions:
REMARK  status: ('A' for Active; 'I' for Inactive)
REMARK    1  A    between atoms: C_1  and  O_2
REMARK    2  A    between atoms: O_2  and  C_3
REMARK    3  A    between atoms: C_8  and  O_9
REMARK    4  A    between atoms: O_9  and  C_10
REMARK    5  A    between atoms: N_16  and  C_17
REMARK    6  A    between atoms: N_16  and  C_18
REMARK    7  A    between atoms: C_18  and  C_19
REMARK    8  A    between atoms: C_19  and  C_20
REMARK    9  A    between atoms: C_20  and  N_21
REMARK   10  A    between atoms: C_22  and  C_24
REMARK                            x       y       z     vdW  Elec       q    Type
REMARK                         _______ _______ _______ _____ _____    ______ ____
ROOT
ATOM      1  C   UNL     1      -7.953   3.071 123.557  0.00  0.00    +0.000 A 
ATOM      2  C   UNL     1      -8.464   3.053 124.876  0.00  0.00    +0.000 A 
ATOM      3  C   UNL     1      -7.752   3.535 125.982  0.00  0.00    +0.000 A 
ATOM      4  C   UNL     1      -6.493   4.069 125.732  0.00  0.00    +0.000 A 
ATOM      5  C   UNL     1      -5.972   4.102 124.408  0.00  0.00    +0.000 A 
ATOM      6  C   UNL     1      -6.688   3.615 123.316  0.00  0.00    +0.000 A 
ATOM      7  C   UNL     1      -5.827   4.564 126.856  0.00  0.00    +0.000 A 
ATOM      8  N   UNL     1      -4.550   5.087 126.778  0.00  0.00    +0.000 N 
ATOM      9  N   UNL     1      -6.337   4.512 128.099  0.00  0.00    +0.000 NA
ATOM     10  C   UNL     1      -7.547   3.963 128.273  0.00  0.00    +0.000 A 
ATOM     11  N   UNL     1      -8.264   3.484 127.233  0.00  0.00    +0.000 NA
ATOM     12  N   UNL     1      -8.058   3.890 129.564  0.00  0.00    +0.000 N 
ATOM     13  C   UNL     1      -9.357   3.289 129.787  0.00  0.00    +0.000 C 
ATOM     14  H   UNL     1      -4.092   5.295 125.910  0.00  0.00    +0.000 HD
ATOM     15  H   UNL     1      -4.186   5.465 127.641  0.00  0.00    +0.000 HD
ENDROOT
BRANCH   1  17
ATOM     16  C   UNL     1      -9.675   1.532 122.948  0.00  0.00    +0.000 C 
ATOM     17  O   UNL     1      -8.827   2.624 122.593  0.00  0.00    +0.000 OA
ENDBRANCH   1  17
BRANCH   6  18
ATOM     18  O   UNL     1      -6.232   3.691 122.031  0.00  0.00    +0.000 OA
ATOM     19  C   UNL     1      -5.030   4.404 121.762  0.00  0.00    +0.000 C 
ENDBRANCH   6  18
BRANCH  12  20
ATOM     20  C   UNL     1      -7.260   4.402 130.689  0.00  0.00    +0.000 C 
BRANCH  20  21
ATOM     21  C   UNL     1      -8.027   5.404 131.578  0.00  0.00    +0.000 C 
BRANCH  21  22
ATOM     22  C   UNL     1      -8.244   6.757 130.912  0.00  0.00    +0.000 C 
BRANCH  22  23
ATOM     23  N   UNL     1      -9.662   7.050 130.743  0.00  0.00    +0.000 N 
ATOM     24  C   UNL     1     -10.242   7.036 129.492  0.00  0.00    +0.000 C 
ATOM     25  O   UNL     1      -9.572   6.800 128.479  0.00  0.00    +0.000 OA
ATOM     26  H   UNL     1     -10.242   7.140 131.564  0.00  0.00    +0.000 HD
BRANCH  24  27
ATOM     27  C   UNL     1     -11.769   7.242 129.400  0.00  0.00    +0.000 C 
ATOM     28  C   UNL     1     -12.468   6.939 128.080  0.00  0.00    +0.000 C 
ATOM     29  C   UNL     1     -13.596   7.945 128.055  0.00  0.00    +0.000 C 
ATOM     30  C   UNL     1     -13.017   9.125 128.796  0.00  0.00    +0.000 C 
ATOM     31  O   UNL     1     -12.081   8.603 129.738  0.00  0.00    +0.000 OA
ENDBRANCH  24  27
ENDBRANCH  22  23
ENDBRANCH  21  22
ENDBRANCH  20  21
ENDBRANCH  12  20
TORSDOF 7
ENDMDL
MODEL 3
REMARK VINA RESULT:      -7.3      3.545      5.255
REMARK  Name = Alfuzosin
REMARK  10 active torsions:
REMARK  status: ('A' for Active; 'I' for Inactive)
REMARK    1  A    between atoms: C_1  and  O_2
REMARK    2  A    between atoms: O_2  and  C_3
REMARK    3  A    between atoms: C_8  and  O_9
REMARK    4  A    between atoms: O_9  and  C_10
REMARK    5  A    between atoms: N_16  and  C_17
REMARK    6  A    between atoms: N_16  and  C_18
REMARK    7  A    between atoms: C_18  and  C_19
REMARK    8  A    between atoms: C_19  and  C_20
REMARK    9  A    between atoms: C_20  and  N_21
REMARK   10  A    between atoms: C_22  and  C_24
REMARK                            x       y       z     vdW  Elec       q    Type
REMARK                         _______ _______ _______ _____ _____    ______ ____
ROOT
ATOM      1  C   UNL     1      -6.263   3.844 121.886  0.00  0.00    +0.000 A 
ATOM      2  C   UNL     1      -6.009   3.601 123.255  0.00  0.00    +0.000 A 
ATOM      3  C   UNL     1      -6.967   3.078 124.134  0.00  0.00    +0.000 A 
ATOM      4  C   UNL     1      -8.212   2.776 123.595  0.00  0.00    +0.000 A 
ATOM      5  C   UNL     1      -8.477   3.006 122.216  0.00  0.00    +0.000 A 
ATOM      6  C   UNL     1      -7.517   3.531 121.352  0.00  0.00    +0.000 A 
ATOM      7  C   UNL     1      -9.131   2.232 124.497  0.00  0.00    +0.000 A 
ATOM      8  N   UNL     1     -10.424   1.920 124.124  0.00  0.00    +0.000 N 
ATOM      9  N   UNL     1      -8.858   2.034 125.798  0.00  0.00    +0.000 NA
ATOM     10  C   UNL     1      -7.645   2.368 126.259  0.00  0.00    +0.000 A 
ATOM     11  N   UNL     1      -6.695   2.878 125.444  0.00  0.00    +0.000 NA
ATOM     12  N   UNL     1      -7.378   2.184 127.610  0.00  0.00    +0.000 N 
ATOM     13  C   UNL     1      -6.081   2.550 128.140  0.00  0.00    +0.000 C 
ATOM     14  H   UNL     1     -10.734   1.905 123.170  0.00  0.00    +0.000 HD
ATOM     15  H   UNL     1     -10.985   1.482 124.840  0.00  0.00    +0.000 HD
ENDROOT
BRANCH   1  17
ATOM     16  C   UNL     1      -4.204   5.053 121.876  0.00  0.00    +0.000 C 
ATOM     17  O   UNL     1      -5.178   4.287 121.166  0.00  0.00    +0.000 OA
ENDBRANCH   1  17
BRANCH   6  18
ATOM     18  O   UNL     1      -7.732   3.704 120.015  0.00  0.00    +0.000 OA
ATOM     19  C   UNL     1      -9.001   4.167 119.570  0.00  0.00    +0.000 C 
ENDBRANCH   6  18
BRANCH  12  20
ATOM     20  C   UNL     1      -8.428   1.643 128.488  0.00  0.00    +0.000 C 
BRANCH  20  21
ATOM     21  C   UNL     1      -8.082   1.743 129.989  0.00  0.00    +0.000 C 
BRANCH  21  22
ATOM     22  C   UNL     1      -8.916   2.779 130.732  0.00  0.00    +0.000 C 
BRANCH  22  23
ATOM     23  N   UNL     1      -8.804   4.098 130.118  0.00  0.00    +0.000 N 
ATOM     24  C   UNL     1      -9.929   4.847 129.844  0.00  0.00    +0.000 C 
ATOM     25  O   UNL     1     -11.062   4.410 130.085  0.00  0.00    +0.000 OA
ATOM     26  H   UNL     1      -7.889   4.510 130.014  0.00  0.00    +0.000 HD
BRANCH  24  27
ATOM     27  C   UNL     1      -9.731   6.278 129.302  0.00  0.00    +0.000 C 
ATOM     28  C   UNL     1     -10.723   7.358 129.717  0.00  0.00    +0.000 C 
ATOM     29  C   UNL     1     -10.775   8.255 128.501  0.00  0.00    +0.000 C 
ATOM     30  C   UNL     1     -10.543   7.295 127.359  0.00  0.00    +0.000 C 
ATOM     31  O   UNL     1      -9.727   6.241 127.866  0.00  0.00    +0.000 OA
ENDBRANCH  24  27
ENDBRANCH  22  23
ENDBRANCH  21  22
ENDBRANCH  20  21
ENDBRANCH  12  20
TORSDOF 7
ENDMDL
MODEL 4
REMARK VINA RESULT:      -7.2      7.854      9.289
REMARK  Name = Alfuzosin
REMARK  10 active torsions:
REMARK  status: ('A' for Active; 'I' for Inactive)
REMARK    1  A    between atoms: C_1  and  O_2
REMARK    2  A    between atoms: O_2  and  C_3
REMARK    3  A    between atoms: C_8  and  O_9
REMARK    4  A    between atoms: O_9  and  C_10
REMARK    5  A    between atoms: N_16  and  C_17
REMARK    6  A    between atoms: N_16  and  C_18
REMARK    7  A    between atoms: C_18  and  C_19
REMARK    8  A    between atoms: C_19  and  C_20
REMARK    9  A    between atoms: C_20  and  N_21
REMARK   10  A    between atoms: C_22  and  C_24
REMARK                            x       y       z     vdW  Elec       q    Type
REMARK                         _______ _______ _______ _____ _____    ______ ____
ROOT
ATOM      1  C   UNL     1     -10.449   7.030 130.185  0.00  0.00    +0.000 A 
ATOM      2  C   UNL     1      -9.040   7.082 130.082  0.00  0.00    +0.000 A 
ATOM      3  C   UNL     1      -8.178   6.677 131.110  0.00  0.00    +0.000 A 
ATOM      4  C   UNL     1      -8.772   6.186 132.267  0.00  0.00    +0.000 A 
ATOM      5  C   UNL     1     -10.189   6.119 132.379  0.00  0.00    +0.000 A 
ATOM      6  C   UNL     1     -11.036   6.529 131.351  0.00  0.00    +0.000 A 
ATOM      7  C   UNL     1      -7.879   5.767 133.257  0.00  0.00    +0.000 A 
ATOM      8  N   UNL     1      -8.314   5.295 134.481  0.00  0.00    +0.000 N 
ATOM      9  N   UNL     1      -6.544   5.850 133.130  0.00  0.00    +0.000 NA
ATOM     10  C   UNL     1      -6.037   6.355 131.997  0.00  0.00    +0.000 A 
ATOM     11  N   UNL     1      -6.834   6.760 130.984  0.00  0.00    +0.000 NA
ATOM     12  N   UNL     1      -4.656   6.462 131.882  0.00  0.00    +0.000 N 
ATOM     13  C   UNL     1      -4.078   7.017 130.675  0.00  0.00    +0.000 C 
ATOM     14  H   UNL     1      -9.272   5.070 134.676  0.00  0.00    +0.000 HD
ATOM     15  H   UNL     1      -7.586   4.969 135.100  0.00  0.00    +0.000 HD
ENDROOT
BRANCH   1  17
ATOM     16  C   UNL     1     -10.635   8.542 128.346  0.00  0.00    +0.000 C 
ATOM     17  O   UNL     1     -11.126   7.399 129.046  0.00  0.00    +0.000 OA
ENDBRANCH   1  17
BRANCH   6  18
ATOM     18  O   UNL     1     -12.395   6.418 131.415  0.00  0.00    +0.000 OA
ATOM     19  C   UNL     1     -13.188   7.599 131.433  0.00  0.00    +0.000 C 
ENDBRANCH   6  18
BRANCH  12  20
ATOM     20  C   UNL     1      -3.800   6.031 133.000  0.00  0.00    +0.000 C 
BRANCH  20  21
ATOM     21  C   UNL     1      -3.094   4.683 132.745  0.00  0.00    +0.000 C 
BRANCH  21  22
ATOM     22  C   UNL     1      -3.747   3.514 133.471  0.00  0.00    +0.000 C 
BRANCH  22  23
ATOM     23  N   UNL     1      -4.830   2.932 132.686  0.00  0.00    +0.000 N 
ATOM     24  C   UNL     1      -6.018   2.568 133.283  0.00  0.00    +0.000 C 
ATOM     25  O   UNL     1      -6.188   2.700 134.502  0.00  0.00    +0.000 OA
ATOM     26  H   UNL     1      -4.747   2.916 131.681  0.00  0.00    +0.000 HD
BRANCH  24  27
ATOM     27  C   UNL     1      -7.161   2.067 132.374  0.00  0.00    +0.000 C 
ATOM     28  C   UNL     1      -7.576   2.925 131.185  0.00  0.00    +0.000 C 
ATOM     29  C   UNL     1      -9.059   2.652 131.072  0.00  0.00    +0.000 C 
ATOM     30  C   UNL     1      -9.470   2.408 132.504  0.00  0.00    +0.000 C 
ATOM     31  O   UNL     1      -8.337   1.855 133.171  0.00  0.00    +0.000 OA
ENDBRANCH  24  27
ENDBRANCH  22  23
ENDBRANCH  21  22
ENDBRANCH  20  21
ENDBRANCH  12  20
TORSDOF 7
ENDMDL
MODEL 5
REMARK VINA RESULT:      -7.0      8.548     10.698
REMARK  Name = Alfuzosin
REMARK  10 active torsions:
REMARK  status: ('A' for Active; 'I' for Inactive)
REMARK    1  A    between atoms: C_1  and  O_2
REMARK    2  A    between atoms: O_2  and  C_3
REMARK    3  A    between atoms: C_8  and  O_9
REMARK    4  A    between atoms: O_9  and  C_10
REMARK    5  A    between atoms: N_16  and  C_17
REMARK    6  A    between atoms: N_16  and  C_18
REMARK    7  A    between atoms: C_18  and  C_19
REMARK    8  A    between atoms: C_19  and  C_20
REMARK    9  A    between atoms: C_20  and  N_21
REMARK   10  A    between atoms: C_22  and  C_24
REMARK                            x       y       z     vdW  Elec       q    Type
REMARK                         _______ _______ _______ _____ _____    ______ ____
ROOT
ATOM      1  C   UNL     1     -11.065   7.973 128.825  0.00  0.00    +0.000 A 
ATOM      2  C   UNL     1      -9.693   7.842 129.144  0.00  0.00    +0.000 A 
ATOM      3  C   UNL     1      -9.230   7.177 130.287  0.00  0.00    +0.000 A 
ATOM      4  C   UNL     1     -10.192   6.612 131.116  0.00  0.00    +0.000 A 
ATOM      5  C   UNL     1     -11.575   6.728 130.801  0.00  0.00    +0.000 A 
ATOM      6  C   UNL     1     -12.025   7.396 129.664  0.00  0.00    +0.000 A 
ATOM      7  C   UNL     1      -9.688   5.934 132.229  0.00  0.00    +0.000 A 
ATOM      8  N   UNL     1     -10.519   5.357 133.171  0.00  0.00    +0.000 N 
ATOM      9  N   UNL     1      -8.377   5.847 132.509  0.00  0.00    +0.000 NA
ATOM     10  C   UNL     1      -7.503   6.435 131.680  0.00  0.00    +0.000 A 
ATOM     11  N   UNL     1      -7.910   7.088 130.570  0.00  0.00    +0.000 NA
ATOM     12  N   UNL     1      -6.150   6.363 131.989  0.00  0.00    +0.000 N 
ATOM     13  C   UNL     1      -5.181   6.999 131.120  0.00  0.00    +0.000 C 
ATOM     14  H   UNL     1     -11.507   5.242 133.037  0.00  0.00    +0.000 HD
ATOM     15  H   UNL     1     -10.049   4.846 133.904  0.00  0.00    +0.000 HD
ENDROOT
BRANCH   1  17
ATOM     16  C   UNL     1     -10.943   7.890 126.442  0.00  0.00    +0.000 C 
ATOM     17  O   UNL     1     -11.323   8.593 127.625  0.00  0.00    +0.000 OA
ENDBRANCH   1  17
BRANCH   6  18
ATOM     18  O   UNL     1     -13.342   7.468 129.312  0.00  0.00    +0.000 OA
ATOM     19  C   UNL     1     -13.825   6.648 128.255  0.00  0.00    +0.000 C 
ENDBRANCH   6  18
BRANCH  12  20
ATOM     20  C   UNL     1      -5.722   5.660 133.210  0.00  0.00    +0.000 C 
BRANCH  20  21
ATOM     21  C   UNL     1      -4.807   4.450 132.930  0.00  0.00    +0.000 C 
BRANCH  21  22
ATOM     22  C   UNL     1      -3.507   4.480 133.723  0.00  0.00    +0.000 C 
BRANCH  22  23
ATOM     23  N   UNL     1      -2.789   5.735 133.530  0.00  0.00    +0.000 N 
ATOM     24  C   UNL     1      -1.595   5.767 132.841  0.00  0.00    +0.000 C 
ATOM     25  O   UNL     1      -1.088   4.731 132.393  0.00  0.00    +0.000 OA
ATOM     26  H   UNL     1      -3.239   6.598 133.795  0.00  0.00    +0.000 HD
BRANCH  24  27
ATOM     27  C   UNL     1      -0.950   7.143 132.574  0.00  0.00    +0.000 C 
ATOM     28  C   UNL     1       0.105   7.654 133.548  0.00  0.00    +0.000 C 
ATOM     29  C   UNL     1      -0.104   9.151 133.520  0.00  0.00    +0.000 C 
ATOM     30  C   UNL     1      -1.587   9.283 133.270  0.00  0.00    +0.000 C 
ATOM     31  O   UNL     1      -1.981   8.142 132.510  0.00  0.00    +0.000 OA
ENDBRANCH  24  27
ENDBRANCH  22  23
ENDBRANCH  21  22
ENDBRANCH  20  21
ENDBRANCH  12  20
TORSDOF 7
ENDMDL
MODEL 6
REMARK VINA RESULT:      -7.0      9.101     11.431
REMARK  Name = Alfuzosin
REMARK  10 active torsions:
REMARK  status: ('A' for Active; 'I' for Inactive)
REMARK    1  A    between atoms: C_1  and  O_2
REMARK    2  A    between atoms: O_2  and  C_3
REMARK    3  A    between atoms: C_8  and  O_9
REMARK    4  A    between atoms: O_9  and  C_10
REMARK    5  A    between atoms: N_16  and  C_17
REMARK    6  A    between atoms: N_16  and  C_18
REMARK    7  A    between atoms: C_18  and  C_19
REMARK    8  A    between atoms: C_19  and  C_20
REMARK    9  A    between atoms: C_20  and  N_21
REMARK   10  A    between atoms: C_22  and  C_24
REMARK                            x       y       z     vdW  Elec       q    Type
REMARK                         _______ _______ _______ _____ _____    ______ ____
ROOT
ATOM      1  C   UNL     1     -10.660   7.990 129.271  0.00  0.00    +0.000 A 
ATOM      2  C   UNL     1      -9.280   7.832 129.538  0.00  0.00    +0.000 A 
ATOM      3  C   UNL     1      -8.786   7.083 130.615  0.00  0.00    +0.000 A 
ATOM      4  C   UNL     1      -9.727   6.460 131.427  0.00  0.00    +0.000 A 
ATOM      5  C   UNL     1     -11.117   6.602 131.162  0.00  0.00    +0.000 A 
ATOM      6  C   UNL     1     -11.597   7.354 130.091  0.00  0.00    +0.000 A 
ATOM      7  C   UNL     1      -9.194   5.701 132.472  0.00  0.00    +0.000 A 
ATOM      8  N   UNL     1      -9.999   5.056 133.392  0.00  0.00    +0.000 N 
ATOM      9  N   UNL     1      -7.875   5.591 132.707  0.00  0.00    +0.000 NA
ATOM     10  C   UNL     1      -7.023   6.236 131.898  0.00  0.00    +0.000 A 
ATOM     11  N   UNL     1      -7.460   6.971 130.852  0.00  0.00    +0.000 NA
ATOM     12  N   UNL     1      -5.662   6.139 132.162  0.00  0.00    +0.000 N 
ATOM     13  C   UNL     1      -4.716   6.836 131.315  0.00  0.00    +0.000 C 
ATOM     14  H   UNL     1     -10.991   4.954 133.279  0.00  0.00    +0.000 HD
ATOM     15  H   UNL     1      -9.511   4.492 134.072  0.00  0.00    +0.000 HD
ENDROOT
BRANCH   1  17
ATOM     16  C   UNL     1     -10.881   7.984 126.893  0.00  0.00    +0.000 C 
ATOM     17  O   UNL     1     -10.949   8.698 128.127  0.00  0.00    +0.000 OA
ENDBRANCH   1  17
BRANCH   6  18
ATOM     18  O   UNL     1     -12.924   7.455 129.785  0.00  0.00    +0.000 OA
ATOM     19  C   UNL     1     -13.478   6.582 128.807  0.00  0.00    +0.000 C 
ENDBRANCH   6  18
BRANCH  12  20
ATOM     20  C   UNL     1      -5.202   5.346 133.314  0.00  0.00    +0.000 C 
BRANCH  20  21
ATOM     21  C   UNL     1      -4.933   6.197 134.573  0.00  0.00    +0.000 C 
BRANCH  21  22
ATOM     22  C   UNL     1      -5.363   5.515 135.865  0.00  0.00    +0.000 C 
BRANCH  22  23
ATOM     23  N   UNL     1      -5.994   6.455 136.785  0.00  0.00    +0.000 N 
ATOM     24  C   UNL     1      -7.364   6.609 136.806  0.00  0.00    +0.000 C 
ATOM     25  O   UNL     1      -8.091   5.976 136.030  0.00  0.00    +0.000 OA
ATOM     26  H   UNL     1      -5.427   6.897 137.493  0.00  0.00    +0.000 HD
BRANCH  24  27
ATOM     27  C   UNL     1      -7.971   7.534 137.882  0.00  0.00    +0.000 C 
ATOM     28  C   UNL     1      -9.325   8.179 137.610  0.00  0.00    +0.000 C 
ATOM     29  C   UNL     1      -9.218   9.507 138.325  0.00  0.00    +0.000 C 
ATOM     30  C   UNL     1      -7.750   9.839 138.207  0.00  0.00    +0.000 C 
ATOM     31  O   UNL     1      -7.047   8.599 138.162  0.00  0.00    +0.000 OA
ENDBRANCH  24  27
ENDBRANCH  22  23
ENDBRANCH  21  22
ENDBRANCH  20  21
ENDBRANCH  12  20
TORSDOF 7
ENDMDL
MODEL 7
REMARK VINA RESULT:      -7.0      4.075      6.398
REMARK  Name = Alfuzosin
REMARK  10 active torsions:
REMARK  status: ('A' for Active; 'I' for Inactive)
REMARK    1  A    between atoms: C_1  and  O_2
REMARK    2  A    between atoms: O_2  and  C_3
REMARK    3  A    between atoms: C_8  and  O_9
REMARK    4  A    between atoms: O_9  and  C_10
REMARK    5  A    between atoms: N_16  and  C_17
REMARK    6  A    between atoms: N_16  and  C_18
REMARK    7  A    between atoms: C_18  and  C_19
REMARK    8  A    between atoms: C_19  and  C_20
REMARK    9  A    between atoms: C_20  and  N_21
REMARK   10  A    between atoms: C_22  and  C_24
REMARK                            x       y       z     vdW  Elec       q    Type
REMARK                         _______ _______ _______ _____ _____    ______ ____
ROOT
ATOM      1  C   UNL     1      -9.232   0.402 123.890  0.00  0.00    +0.000 A 
ATOM      2  C   UNL     1      -9.033   0.095 125.256  0.00  0.00    +0.000 A 
ATOM      3  C   UNL     1      -8.602   1.036 126.201  0.00  0.00    +0.000 A 
ATOM      4  C   UNL     1      -8.390   2.331 125.743  0.00  0.00    +0.000 A 
ATOM      5  C   UNL     1      -8.597   2.655 124.373  0.00  0.00    +0.000 A 
ATOM      6  C   UNL     1      -9.021   1.709 123.441  0.00  0.00    +0.000 A 
ATOM      7  C   UNL     1      -7.989   3.245 126.720  0.00  0.00    +0.000 A 
ATOM      8  N   UNL     1      -7.696   4.561 126.415  0.00  0.00    +0.000 N 
ATOM      9  N   UNL     1      -7.791   2.910 128.007  0.00  0.00    +0.000 NA
ATOM     10  C   UNL     1      -7.992   1.638 128.378  0.00  0.00    +0.000 A 
ATOM     11  N   UNL     1      -8.403   0.701 127.496  0.00  0.00    +0.000 NA
ATOM     12  N   UNL     1      -7.761   1.294 129.704  0.00  0.00    +0.000 N 
ATOM     13  C   UNL     1      -7.955  -0.076 130.133  0.00  0.00    +0.000 C 
ATOM     14  H   UNL     1      -7.907   4.980 125.528  0.00  0.00    +0.000 HD
ATOM     15  H   UNL     1      -7.469   5.146 127.205  0.00  0.00    +0.000 HD
ENDROOT
BRANCH   1  17
ATOM     16  C   UNL     1      -8.875  -1.762 122.946  0.00  0.00    +0.000 C 
ATOM     17  O   UNL     1      -9.728  -0.633 123.131  0.00  0.00    +0.000 OA
ENDBRANCH   1  17
BRANCH   6  18
ATOM     18  O   UNL     1      -9.282   2.013 122.135  0.00  0.00    +0.000 OA
ATOM     19  C   UNL     1      -8.775   3.225 121.590  0.00  0.00    +0.000 C 
ENDBRANCH   6  18
BRANCH  12  20
ATOM     20  C   UNL     1      -7.298   2.323 130.650  0.00  0.00    +0.000 C 
BRANCH  20  21
ATOM     21  C   UNL     1      -8.375   2.742 131.673  0.00  0.00    +0.000 C 
BRANCH  21  22
ATOM     22  C   UNL     1      -9.674   3.204 131.025  0.00  0.00    +0.000 C 
BRANCH  22  23
ATOM     23  N   UNL     1      -9.457   4.342 130.139  0.00  0.00    +0.000 N 
ATOM     24  C   UNL     1     -10.263   5.458 130.211  0.00  0.00    +0.000 C 
ATOM     25  O   UNL     1     -11.208   5.512 131.008  0.00  0.00    +0.000 OA
ATOM     26  H   UNL     1      -8.630   4.356 129.559  0.00  0.00    +0.000 HD
BRANCH  24  27
ATOM     27  C   UNL     1      -9.905   6.669 129.323  0.00  0.00    +0.000 C 
ATOM     28  C   UNL     1     -10.810   7.894 129.362  0.00  0.00    +0.000 C 
ATOM     29  C   UNL     1     -10.716   8.429 127.951  0.00  0.00    +0.000 C 
ATOM     30  C   UNL     1     -10.519   7.180 127.126  0.00  0.00    +0.000 C 
ATOM     31  O   UNL     1      -9.832   6.243 127.953  0.00  0.00    +0.000 OA
ENDBRANCH  24  27
ENDBRANCH  22  23
ENDBRANCH  21  22
ENDBRANCH  20  21
ENDBRANCH  12  20
TORSDOF 7
ENDMDL
MODEL 8
REMARK VINA RESULT:      -6.8      2.702      7.140
REMARK  Name = Alfuzosin
REMARK  10 active torsions:
REMARK  status: ('A' for Active; 'I' for Inactive)
REMARK    1  A    between atoms: C_1  and  O_2
REMARK    2  A    between atoms: O_2  and  C_3
REMARK    3  A    between atoms: C_8  and  O_9
REMARK    4  A    between atoms: O_9  and  C_10
REMARK    5  A    between atoms: N_16  and  C_17
REMARK    6  A    between atoms: N_16  and  C_18
REMARK    7  A    between atoms: C_18  and  C_19
REMARK    8  A    between atoms: C_19  and  C_20
REMARK    9  A    between atoms: C_20  and  N_21
REMARK   10  A    between atoms: C_22  and  C_24
REMARK                            x       y       z     vdW  Elec       q    Type
REMARK                         _______ _______ _______ _____ _____    ______ ____
ROOT
ATOM      1  C   UNL     1      -9.086   1.739 131.422  0.00  0.00    +0.000 A 
ATOM      2  C   UNL     1      -9.037   2.585 130.290  0.00  0.00    +0.000 A 
ATOM      3  C   UNL     1      -8.486   2.194 129.062  0.00  0.00    +0.000 A 
ATOM      4  C   UNL     1      -7.991   0.898 128.982  0.00  0.00    +0.000 A 
ATOM      5  C   UNL     1      -8.043   0.034 130.111  0.00  0.00    +0.000 A 
ATOM      6  C   UNL     1      -8.590   0.435 131.329  0.00  0.00    +0.000 A 
ATOM      7  C   UNL     1      -7.475   0.538 127.734  0.00  0.00    +0.000 A 
ATOM      8  N   UNL     1      -6.907  -0.701 127.507  0.00  0.00    +0.000 N 
ATOM      9  N   UNL     1      -7.428   1.378 126.685  0.00  0.00    +0.000 NA
ATOM     10  C   UNL     1      -7.902   2.622 126.837  0.00  0.00    +0.000 A 
ATOM     11  N   UNL     1      -8.438   3.038 128.006  0.00  0.00    +0.000 NA
ATOM     12  N   UNL     1      -7.827   3.493 125.756  0.00  0.00    +0.000 N 
ATOM     13  C   UNL     1      -8.318   4.849 125.893  0.00  0.00    +0.000 C 
ATOM     14  H   UNL     1      -6.974  -1.464 128.155  0.00  0.00    +0.000 HD
ATOM     15  H   UNL     1      -6.616  -0.874 126.556  0.00  0.00    +0.000 HD
ENDROOT
BRANCH   1  17
ATOM     16  C   UNL     1      -8.953   3.091 133.386  0.00  0.00    +0.000 C 
ATOM     17  O   UNL     1      -9.731   2.272 132.514  0.00  0.00    +0.000 OA
ENDBRANCH   1  17
BRANCH   6  18
ATOM     18  O   UNL     1      -8.704  -0.397 132.406  0.00  0.00    +0.000 OA
ATOM     19  C   UNL     1      -7.792  -1.481 132.545  0.00  0.00    +0.000 C 
ENDBRANCH   6  18
BRANCH  12  20
ATOM     20  C   UNL     1      -7.227   3.031 124.494  0.00  0.00    +0.000 C 
BRANCH  20  21
ATOM     21  C   UNL     1      -8.238   2.944 123.332  0.00  0.00    +0.000 C 
BRANCH  21  22
ATOM     22  C   UNL     1      -9.339   1.917 123.566  0.00  0.00    +0.000 C 
BRANCH  22  23
ATOM     23  N   UNL     1      -8.802   0.564 123.655  0.00  0.00    +0.000 N 
ATOM     24  C   UNL     1      -9.383  -0.474 122.959  0.00  0.00    +0.000 C 
ATOM     25  O   UNL     1     -10.391  -0.292 122.264  0.00  0.00    +0.000 OA
ATOM     26  H   UNL     1      -7.923   0.420 124.131  0.00  0.00    +0.000 HD
BRANCH  24  27
ATOM     27  C   UNL     1      -8.694  -1.854 123.009  0.00  0.00    +0.000 C 
ATOM     28  C   UNL     1      -9.342  -2.963 123.829  0.00  0.00    +0.000 C 
ATOM     29  C   UNL     1      -8.154  -3.753 124.330  0.00  0.00    +0.000 C 
ATOM     30  C   UNL     1      -7.083  -2.699 124.478  0.00  0.00    +0.000 C 
ATOM     31  O   UNL     1      -7.355  -1.694 123.503  0.00  0.00    +0.000 OA
ENDBRANCH  24  27
ENDBRANCH  22  23
ENDBRANCH  21  22
ENDBRANCH  20  21
ENDBRANCH  12  20
TORSDOF 7
ENDMDL
MODEL 9
REMARK VINA RESULT:      -6.8      7.072      9.602
REMARK  Name = Alfuzosin
REMARK  10 active torsions:
REMARK  status: ('A' for Active; 'I' for Inactive)
REMARK    1  A    between atoms: C_1  and  O_2
REMARK    2  A    between atoms: O_2  and  C_3
REMARK    3  A    between atoms: C_8  and  O_9
REMARK    4  A    between atoms: O_9  and  C_10
REMARK    5  A    between atoms: N_16  and  C_17
REMARK    6  A    between atoms: N_16  and  C_18
REMARK    7  A    between atoms: C_18  and  C_19
REMARK    8  A    between atoms: C_19  and  C_20
REMARK    9  A    between atoms: C_20  and  N_21
REMARK   10  A    between atoms: C_22  and  C_24
REMARK                            x       y       z     vdW  Elec       q    Type
REMARK                         _______ _______ _______ _____ _____    ______ ____
ROOT
ATOM      1  C   UNL     1     -11.791   6.405 131.158  0.00  0.00    +0.000 A 
ATOM      2  C   UNL     1     -10.863   6.416 132.225  0.00  0.00    +0.000 A 
ATOM      3  C   UNL     1      -9.534   5.993 132.092  0.00  0.00    +0.000 A 
ATOM      4  C   UNL     1      -9.135   5.569 130.830  0.00  0.00    +0.000 A 
ATOM      5  C   UNL     1     -10.056   5.563 129.746  0.00  0.00    +0.000 A 
ATOM      6  C   UNL     1     -11.377   5.981 129.891  0.00  0.00    +0.000 A 
ATOM      7  C   UNL     1      -7.795   5.182 130.733  0.00  0.00    +0.000 A 
ATOM      8  N   UNL     1      -7.259   4.694 129.556  0.00  0.00    +0.000 N 
ATOM      9  N   UNL     1      -6.948   5.187 131.776  0.00  0.00    +0.000 NA
ATOM     10  C   UNL     1      -7.403   5.587 132.971  0.00  0.00    +0.000 A 
ATOM     11  N   UNL     1      -8.679   5.998 133.141  0.00  0.00    +0.000 NA
ATOM     12  N   UNL     1      -6.529   5.566 134.051  0.00  0.00    +0.000 N 
ATOM     13  C   UNL     1      -6.995   5.979 135.359  0.00  0.00    +0.000 C 
ATOM     14  H   UNL     1      -7.735   4.741 128.673  0.00  0.00    +0.000 HD
ATOM     15  H   UNL     1      -6.269   4.497 129.583  0.00  0.00    +0.000 HD
ENDROOT
BRANCH   1  17
ATOM     16  C   UNL     1     -13.155   8.347 131.416  0.00  0.00    +0.000 C 
ATOM     17  O   UNL     1     -13.027   6.927 131.461  0.00  0.00    +0.000 OA
ENDBRANCH   1  17
BRANCH   6  18
ATOM     18  O   UNL     1     -12.260   6.039 128.851  0.00  0.00    +0.000 OA
ATOM     19  C   UNL     1     -12.221   7.155 127.968  0.00  0.00    +0.000 C 
ENDBRANCH   6  18
BRANCH  12  20
ATOM     20  C   UNL     1      -5.146   5.101 133.855  0.00  0.00    +0.000 C 
BRANCH  20  21
ATOM     21  C   UNL     1      -4.095   6.216 134.034  0.00  0.00    +0.000 C 
BRANCH  21  22
ATOM     22  C   UNL     1      -3.443   6.646 132.725  0.00  0.00    +0.000 C 
BRANCH  22  23
ATOM     23  N   UNL     1      -3.886   5.820 131.608  0.00  0.00    +0.000 N 
ATOM     24  C   UNL     1      -3.244   5.878 130.389  0.00  0.00    +0.000 C 
ATOM     25  O   UNL     1      -2.296   6.652 130.202  0.00  0.00    +0.000 OA
ATOM     26  H   UNL     1      -4.585   5.112 131.774  0.00  0.00    +0.000 HD
BRANCH  24  27
ATOM     27  C   UNL     1      -3.692   4.894 129.288  0.00  0.00    +0.000 C 
ATOM     28  C   UNL     1      -2.650   4.380 128.302  0.00  0.00    +0.000 C 
ATOM     29  C   UNL     1      -3.446   4.201 127.029  0.00  0.00    +0.000 C 
ATOM     30  C   UNL     1      -4.489   5.288 127.125  0.00  0.00    +0.000 C 
ATOM     31  O   UNL     1      -4.741   5.498 128.514  0.00  0.00    +0.000 OA
ENDBRANCH  24  27
ENDBRANCH  22  23
ENDBRANCH  21  22
ENDBRANCH  20  21
ENDBRANCH  12  20
TORSDOF 7
ENDMDL
