MODEL 1
REMARK VINA RESULT:      -6.5      0.000      0.000
REMARK  Name = Alimemazine
REMARK  7 active torsions:
REMARK  status: ('A' for Active; 'I' for Inactive)
REMARK    1  A    between atoms: C_1  and  C_2
REMARK    2  A    between atoms: C_2  and  C_3
REMARK    3  A    between atoms: C_2  and  C_7
REMARK    4  A    between atoms: C_3  and  N_4
REMARK    5  A    between atoms: N_4  and  C_5
REMARK    6  A    between atoms: N_4  and  C_6
REMARK    7  A    between atoms: C_7  and  N_8
REMARK                            x       y       z     vdW  Elec       q    Type
REMARK                         _______ _______ _______ _____ _____    ______ ____
ROOT
ATOM      1  N   UNL     1      -7.080  -0.873 126.441  0.00  0.00    +0.000 N 
ATOM      2  C   UNL     1      -7.284  -1.264 125.102  0.00  0.00    +0.000 A 
ATOM      3  C   UNL     1      -6.464  -0.776 124.075  0.00  0.00    +0.000 A 
ATOM      4  C   UNL     1      -6.613  -1.227 122.764  0.00  0.00    +0.000 A 
ATOM      5  C   UNL     1      -7.600  -2.161 122.454  0.00  0.00    +0.000 A 
ATOM      6  C   UNL     1      -8.440  -2.643 123.453  0.00  0.00    +0.000 A 
ATOM      7  C   UNL     1      -8.277  -2.216 124.772  0.00  0.00    +0.000 A 
ATOM      8  S   UNL     1      -9.390  -2.857 126.018  0.00  0.00    +0.000 S 
ATOM      9  C   UNL     1      -8.307  -2.754 127.433  0.00  0.00    +0.000 A 
ATOM     10  C   UNL     1      -8.437  -3.712 128.442  0.00  0.00    +0.000 A 
ATOM     11  C   UNL     1      -7.566  -3.711 129.528  0.00  0.00    +0.000 A 
ATOM     12  C   UNL     1      -6.565  -2.745 129.614  0.00  0.00    +0.000 A 
ATOM     13  C   UNL     1      -6.444  -1.776 128.619  0.00  0.00    +0.000 A 
ATOM     14  C   UNL     1      -7.312  -1.755 127.516  0.00  0.00    +0.000 A 
ENDROOT
BRANCH   1  15
ATOM     15  C   UNL     1      -6.966   0.564 126.747  0.00  0.00    +0.000 C 
BRANCH  15  17
ATOM     16  C   UNL     1      -8.520   1.780 128.207  0.00  0.00    +0.000 C 
ATOM     17  C   UNL     1      -8.306   1.356 126.745  0.00  0.00    +0.000 C 
BRANCH  17  18
ATOM     18  C   UNL     1      -8.280   2.555 125.754  0.00  0.00    +0.000 C 
BRANCH  18  19
ATOM     19  N   UNL     1      -9.214   2.565 124.607  0.00  0.00    +0.000 NA
ATOM     20  C   UNL     1      -8.565   2.755 123.317  0.00  0.00    +0.000 C 
ATOM     21  C   UNL     1      -9.941   1.286 124.563  0.00  0.00    +0.000 C 
ENDBRANCH  18  19
ENDBRANCH  17  18
ENDBRANCH  15  17
ENDBRANCH   1  15
TORSDOF 4
ENDMDL
MODEL 2
REMARK VINA RESULT:      -6.0      5.574      8.618
REMARK  Name = Alimemazine
REMARK  7 active torsions:
REMARK  status: ('A' for Active; 'I' for Inactive)
REMARK    1  A    between atoms: C_1  and  C_2
REMARK    2  A    between atoms: C_2  and  C_3
REMARK    3  A    between atoms: C_2  and  C_7
REMARK    4  A    between atoms: C_3  and  N_4
REMARK    5  A    between atoms: N_4  and  C_5
REMARK    6  A    between atoms: N_4  and  C_6
REMARK    7  A    between atoms: C_7  and  N_8
REMARK                            x       y       z     vdW  Elec       q    Type
REMARK                         _______ _______ _______ _____ _____    ______ ____
ROOT
ATOM      1  N   UNL     1      -9.931   4.422 131.312  0.00  0.00    +0.000 N 
ATOM      2  C   UNL     1     -10.396   5.499 130.530  0.00  0.00    +0.000 A 
ATOM      3  C   UNL     1     -11.698   5.505 130.012  0.00  0.00    +0.000 A 
ATOM      4  C   UNL     1     -12.185   6.606 129.310  0.00  0.00    +0.000 A 
ATOM      5  C   UNL     1     -11.368   7.716 129.096  0.00  0.00    +0.000 A 
ATOM      6  C   UNL     1     -10.064   7.723 129.582  0.00  0.00    +0.000 A 
ATOM      7  C   UNL     1      -9.581   6.634 130.310  0.00  0.00    +0.000 A 
ATOM      8  S   UNL     1      -7.894   6.688 130.904  0.00  0.00    +0.000 S 
ATOM      9  C   UNL     1      -8.078   5.656 132.348  0.00  0.00    +0.000 A 
ATOM     10  C   UNL     1      -7.285   5.928 133.465  0.00  0.00    +0.000 A 
ATOM     11  C   UNL     1      -7.446   5.194 134.637  0.00  0.00    +0.000 A 
ATOM     12  C   UNL     1      -8.397   4.176 134.692  0.00  0.00    +0.000 A 
ATOM     13  C   UNL     1      -9.177   3.888 133.573  0.00  0.00    +0.000 A 
ATOM     14  C   UNL     1      -9.030   4.614 132.380  0.00  0.00    +0.000 A 
ENDROOT
BRANCH   1  15
ATOM     15  C   UNL     1     -10.101   3.051 130.799  0.00  0.00    +0.000 C 
BRANCH  15  17
ATOM     16  C   UNL     1      -8.738   1.043 131.161  0.00  0.00    +0.000 C 
ATOM     17  C   UNL     1      -8.792   2.342 130.341  0.00  0.00    +0.000 C 
BRANCH  17  18
ATOM     18  C   UNL     1      -8.758   2.102 128.805  0.00  0.00    +0.000 C 
BRANCH  18  19
ATOM     19  N   UNL     1      -8.321   3.198 127.912  0.00  0.00    +0.000 NA
ATOM     20  C   UNL     1      -7.245   4.014 128.458  0.00  0.00    +0.000 C 
ATOM     21  C   UNL     1      -7.854   2.627 126.638  0.00  0.00    +0.000 C 
ENDBRANCH  18  19
ENDBRANCH  17  18
ENDBRANCH  15  17
ENDBRANCH   1  15
TORSDOF 4
ENDMDL
MODEL 3
REMARK VINA RESULT:      -5.9      1.643      2.348
REMARK  Name = Alimemazine
REMARK  7 active torsions:
REMARK  status: ('A' for Active; 'I' for Inactive)
REMARK    1  A    between atoms: C_1  and  C_2
REMARK    2  A    between atoms: C_2  and  C_3
REMARK    3  A    between atoms: C_2  and  C_7
REMARK    4  A    between atoms: C_3  and  N_4
REMARK    5  A    between atoms: N_4  and  C_5
REMARK    6  A    between atoms: N_4  and  C_6
REMARK    7  A    between atoms: C_7  and  N_8
REMARK                            x       y       z     vdW  Elec       q    Type
REMARK                         _______ _______ _______ _____ _____    ______ ____
ROOT
ATOM      1  N   UNL     1      -5.943  -1.986 126.961  0.00  0.00    +0.000 N 
ATOM      2  C   UNL     1      -6.989  -2.419 126.121  0.00  0.00    +0.000 A 
ATOM      3  C   UNL     1      -6.861  -2.372 124.726  0.00  0.00    +0.000 A 
ATOM      4  C   UNL     1      -7.862  -2.878 123.897  0.00  0.00    +0.000 A 
ATOM      5  C   UNL     1      -9.020  -3.422 124.451  0.00  0.00    +0.000 A 
ATOM      6  C   UNL     1      -9.179  -3.459 125.834  0.00  0.00    +0.000 A 
ATOM      7  C   UNL     1      -8.167  -2.979 126.668  0.00  0.00    +0.000 A 
ATOM      8  S   UNL     1      -8.425  -3.039 128.438  0.00  0.00    +0.000 S 
ATOM      9  C   UNL     1      -6.724  -3.181 128.958  0.00  0.00    +0.000 A 
ATOM     10  C   UNL     1      -6.441  -3.913 130.114  0.00  0.00    +0.000 A 
ATOM     11  C   UNL     1      -5.123  -4.109 130.517  0.00  0.00    +0.000 A 
ATOM     12  C   UNL     1      -4.081  -3.564 129.768  0.00  0.00    +0.000 A 
ATOM     13  C   UNL     1      -4.360  -2.817 128.624  0.00  0.00    +0.000 A 
ATOM     14  C   UNL     1      -5.681  -2.604 128.201  0.00  0.00    +0.000 A 
ENDROOT
BRANCH   1  15
ATOM     15  C   UNL     1      -5.344  -0.662 126.716  0.00  0.00    +0.000 C 
BRANCH  15  17
ATOM     16  C   UNL     1      -5.630   1.469 127.900  0.00  0.00    +0.000 C 
ATOM     17  C   UNL     1      -6.310   0.549 126.874  0.00  0.00    +0.000 C 
BRANCH  17  18
ATOM     18  C   UNL     1      -6.602   1.250 125.517  0.00  0.00    +0.000 C 
BRANCH  18  19
ATOM     19  N   UNL     1      -8.005   1.434 125.085  0.00  0.00    +0.000 NA
ATOM     20  C   UNL     1      -8.973   0.699 125.888  0.00  0.00    +0.000 C 
ATOM     21  C   UNL     1      -8.350   2.863 125.157  0.00  0.00    +0.000 C 
ENDBRANCH  18  19
ENDBRANCH  17  18
ENDBRANCH  15  17
ENDBRANCH   1  15
TORSDOF 4
ENDMDL
MODEL 4
REMARK VINA RESULT:      -5.8      2.530      3.464
REMARK  Name = Alimemazine
REMARK  7 active torsions:
REMARK  status: ('A' for Active; 'I' for Inactive)
REMARK    1  A    between atoms: C_1  and  C_2
REMARK    2  A    between atoms: C_2  and  C_3
REMARK    3  A    between atoms: C_2  and  C_7
REMARK    4  A    between atoms: C_3  and  N_4
REMARK    5  A    between atoms: N_4  and  C_5
REMARK    6  A    between atoms: N_4  and  C_6
REMARK    7  A    between atoms: C_7  and  N_8
REMARK                            x       y       z     vdW  Elec       q    Type
REMARK                         _______ _______ _______ _____ _____    ______ ____
ROOT
ATOM      1  N   UNL     1      -5.953  -1.942 127.299  0.00  0.00    +0.000 N 
ATOM      2  C   UNL     1      -7.035  -2.332 126.482  0.00  0.00    +0.000 A 
ATOM      3  C   UNL     1      -6.973  -2.195 125.089  0.00  0.00    +0.000 A 
ATOM      4  C   UNL     1      -8.008  -2.657 124.277  0.00  0.00    +0.000 A 
ATOM      5  C   UNL     1      -9.134  -3.247 124.848  0.00  0.00    +0.000 A 
ATOM      6  C   UNL     1      -9.228  -3.374 126.231  0.00  0.00    +0.000 A 
ATOM      7  C   UNL     1      -8.182  -2.938 127.046  0.00  0.00    +0.000 A 
ATOM      8  S   UNL     1      -8.355  -3.113 128.819  0.00  0.00    +0.000 S 
ATOM      9  C   UNL     1      -6.630  -3.270 129.249  0.00  0.00    +0.000 A 
ATOM     10  C   UNL     1      -6.288  -4.071 130.341  0.00  0.00    +0.000 A 
ATOM     11  C   UNL     1      -4.951  -4.279 130.669  0.00  0.00    +0.000 A 
ATOM     12  C   UNL     1      -3.949  -3.677 129.909  0.00  0.00    +0.000 A 
ATOM     13  C   UNL     1      -4.287  -2.861 128.830  0.00  0.00    +0.000 A 
ATOM     14  C   UNL     1      -5.629  -2.635 128.483  0.00  0.00    +0.000 A 
ENDROOT
BRANCH   1  15
ATOM     15  C   UNL     1      -5.376  -0.599 127.112  0.00  0.00    +0.000 C 
BRANCH  15  17
ATOM     16  C   UNL     1      -4.905   1.688 127.868  0.00  0.00    +0.000 C 
ATOM     17  C   UNL     1      -5.738   0.443 128.211  0.00  0.00    +0.000 C 
BRANCH  17  18
ATOM     18  C   UNL     1      -7.267   0.723 128.275  0.00  0.00    +0.000 C 
BRANCH  18  19
ATOM     19  N   UNL     1      -7.975   0.580 129.566  0.00  0.00    +0.000 NA
ATOM     20  C   UNL     1      -7.129   0.116 130.657  0.00  0.00    +0.000 C 
ATOM     21  C   UNL     1      -8.542   1.881 129.954  0.00  0.00    +0.000 C 
ENDBRANCH  18  19
ENDBRANCH  17  18
ENDBRANCH  15  17
ENDBRANCH   1  15
TORSDOF 4
ENDMDL
MODEL 5
REMARK VINA RESULT:      -5.8      2.478      4.430
REMARK  Name = Alimemazine
REMARK  7 active torsions:
REMARK  status: ('A' for Active; 'I' for Inactive)
REMARK    1  A    between atoms: C_1  and  C_2
REMARK    2  A    between atoms: C_2  and  C_3
REMARK    3  A    between atoms: C_2  and  C_7
REMARK    4  A    between atoms: C_3  and  N_4
REMARK    5  A    between atoms: N_4  and  C_5
REMARK    6  A    between atoms: N_4  and  C_6
REMARK    7  A    between atoms: C_7  and  N_8
REMARK                            x       y       z     vdW  Elec       q    Type
REMARK                         _______ _______ _______ _____ _____    ______ ____
ROOT
ATOM      1  N   UNL     1      -8.587  -0.056 125.695  0.00  0.00    +0.000 N 
ATOM      2  C   UNL     1      -7.912   0.603 126.743  0.00  0.00    +0.000 A 
ATOM      3  C   UNL     1      -8.616   1.347 127.699  0.00  0.00    +0.000 A 
ATOM      4  C   UNL     1      -7.957   1.929 128.781  0.00  0.00    +0.000 A 
ATOM      5  C   UNL     1      -6.576   1.792 128.915  0.00  0.00    +0.000 A 
ATOM      6  C   UNL     1      -5.853   1.076 127.965  0.00  0.00    +0.000 A 
ATOM      7  C   UNL     1      -6.512   0.469 126.895  0.00  0.00    +0.000 A 
ATOM      8  S   UNL     1      -5.536  -0.432 125.695  0.00  0.00    +0.000 S 
ATOM      9  C   UNL     1      -6.765  -1.617 125.175  0.00  0.00    +0.000 A 
ATOM     10  C   UNL     1      -6.339  -2.893 124.798  0.00  0.00    +0.000 A 
ATOM     11  C   UNL     1      -7.270  -3.870 124.453  0.00  0.00    +0.000 A 
ATOM     12  C   UNL     1      -8.631  -3.571 124.477  0.00  0.00    +0.000 A 
ATOM     13  C   UNL     1      -9.058  -2.293 124.834  0.00  0.00    +0.000 A 
ATOM     14  C   UNL     1      -8.138  -1.291 125.183  0.00  0.00    +0.000 A 
ENDROOT
BRANCH   1  15
ATOM     15  C   UNL     1      -9.556   0.708 124.889  0.00  0.00    +0.000 C 
BRANCH  15  17
ATOM     16  C   UNL     1     -10.222   0.795 122.528  0.00  0.00    +0.000 C 
ATOM     17  C   UNL     1      -9.060   1.134 123.476  0.00  0.00    +0.000 C 
BRANCH  17  18
ATOM     18  C   UNL     1      -8.642   2.631 123.425  0.00  0.00    +0.000 C 
BRANCH  18  19
ATOM     19  N   UNL     1      -7.437   3.070 124.162  0.00  0.00    +0.000 NA
ATOM     20  C   UNL     1      -6.416   3.679 123.320  0.00  0.00    +0.000 C 
ATOM     21  C   UNL     1      -7.827   4.055 125.184  0.00  0.00    +0.000 C 
ENDBRANCH  18  19
ENDBRANCH  17  18
ENDBRANCH  15  17
ENDBRANCH   1  15
TORSDOF 4
ENDMDL
MODEL 6
REMARK VINA RESULT:      -5.8      1.913      4.201
REMARK  Name = Alimemazine
REMARK  7 active torsions:
REMARK  status: ('A' for Active; 'I' for Inactive)
REMARK    1  A    between atoms: C_1  and  C_2
REMARK    2  A    between atoms: C_2  and  C_3
REMARK    3  A    between atoms: C_2  and  C_7
REMARK    4  A    between atoms: C_3  and  N_4
REMARK    5  A    between atoms: N_4  and  C_5
REMARK    6  A    between atoms: N_4  and  C_6
REMARK    7  A    between atoms: C_7  and  N_8
REMARK                            x       y       z     vdW  Elec       q    Type
REMARK                         _______ _______ _______ _____ _____    ______ ____
ROOT
ATOM      1  N   UNL     1      -8.519  -1.894 126.647  0.00  0.00    +0.000 N 
ATOM      2  C   UNL     1      -8.360  -0.597 126.118  0.00  0.00    +0.000 A 
ATOM      3  C   UNL     1      -9.461   0.130 125.646  0.00  0.00    +0.000 A 
ATOM      4  C   UNL     1      -9.315   1.443 125.201  0.00  0.00    +0.000 A 
ATOM      5  C   UNL     1      -8.058   2.046 125.202  0.00  0.00    +0.000 A 
ATOM      6  C   UNL     1      -6.946   1.335 125.645  0.00  0.00    +0.000 A 
ATOM      7  C   UNL     1      -7.092   0.030 126.118  0.00  0.00    +0.000 A 
ATOM      8  S   UNL     1      -5.630  -0.844 126.667  0.00  0.00    +0.000 S 
ATOM      9  C   UNL     1      -6.390  -1.923 127.869  0.00  0.00    +0.000 A 
ATOM     10  C   UNL     1      -5.651  -2.285 128.998  0.00  0.00    +0.000 A 
ATOM     11  C   UNL     1      -6.230  -3.066 129.995  0.00  0.00    +0.000 A 
ATOM     12  C   UNL     1      -7.549  -3.495 129.862  0.00  0.00    +0.000 A 
ATOM     13  C   UNL     1      -8.284  -3.152 128.727  0.00  0.00    +0.000 A 
ATOM     14  C   UNL     1      -7.721  -2.368 127.708  0.00  0.00    +0.000 A 
ENDROOT
BRANCH   1  15
ATOM     15  C   UNL     1      -9.276  -2.888 125.864  0.00  0.00    +0.000 C 
BRANCH  15  17
ATOM     16  C   UNL     1      -9.328  -3.160 123.425  0.00  0.00    +0.000 C 
ATOM     17  C   UNL     1      -8.504  -3.525 124.671  0.00  0.00    +0.000 C 
BRANCH  17  18
ATOM     18  C   UNL     1      -7.029  -3.039 124.596  0.00  0.00    +0.000 C 
BRANCH  18  19
ATOM     19  N   UNL     1      -6.432  -2.740 123.276  0.00  0.00    +0.000 NA
ATOM     20  C   UNL     1      -6.512  -1.337 122.894  0.00  0.00    +0.000 C 
ATOM     21  C   UNL     1      -5.011  -3.125 123.289  0.00  0.00    +0.000 C 
ENDBRANCH  18  19
ENDBRANCH  17  18
ENDBRANCH  15  17
ENDBRANCH   1  15
TORSDOF 4
ENDMDL
MODEL 7
REMARK VINA RESULT:      -5.7      2.493      5.040
REMARK  Name = Alimemazine
REMARK  7 active torsions:
REMARK  status: ('A' for Active; 'I' for Inactive)
REMARK    1  A    between atoms: C_1  and  C_2
REMARK    2  A    between atoms: C_2  and  C_3
REMARK    3  A    between atoms: C_2  and  C_7
REMARK    4  A    between atoms: C_3  and  N_4
REMARK    5  A    between atoms: N_4  and  C_5
REMARK    6  A    between atoms: N_4  and  C_6
REMARK    7  A    between atoms: C_7  and  N_8
REMARK                            x       y       z     vdW  Elec       q    Type
REMARK                         _______ _______ _______ _____ _____    ______ ____
ROOT
ATOM      1  N   UNL     1      -7.155  -0.240 126.152  0.00  0.00    +0.000 N 
ATOM      2  C   UNL     1      -7.651  -1.409 126.764  0.00  0.00    +0.000 A 
ATOM      3  C   UNL     1      -7.423  -1.664 128.123  0.00  0.00    +0.000 A 
ATOM      4  C   UNL     1      -7.984  -2.778 128.746  0.00  0.00    +0.000 A 
ATOM      5  C   UNL     1      -8.768  -3.669 128.014  0.00  0.00    +0.000 A 
ATOM      6  C   UNL     1      -8.989  -3.448 126.658  0.00  0.00    +0.000 A 
ATOM      7  C   UNL     1      -8.453  -2.319 126.036  0.00  0.00    +0.000 A 
ATOM      8  S   UNL     1      -8.757  -2.086 124.288  0.00  0.00    +0.000 S 
ATOM      9  C   UNL     1      -8.682  -0.304 124.231  0.00  0.00    +0.000 A 
ATOM     10  C   UNL     1      -9.488   0.367 123.307  0.00  0.00    +0.000 A 
ATOM     11  C   UNL     1      -9.514   1.758 123.277  0.00  0.00    +0.000 A 
ATOM     12  C   UNL     1      -8.726   2.486 124.168  0.00  0.00    +0.000 A 
ATOM     13  C   UNL     1      -7.906   1.821 125.078  0.00  0.00    +0.000 A 
ATOM     14  C   UNL     1      -7.862   0.418 125.125  0.00  0.00    +0.000 A 
ENDROOT
BRANCH   1  15
ATOM     15  C   UNL     1      -5.732   0.101 126.331  0.00  0.00    +0.000 C 
BRANCH  15  17
ATOM     16  C   UNL     1      -5.030   0.995 128.506  0.00  0.00    +0.000 C 
ATOM     17  C   UNL     1      -5.455   1.430 127.095  0.00  0.00    +0.000 C 
BRANCH  17  18
ATOM     18  C   UNL     1      -4.394   2.312 126.377  0.00  0.00    +0.000 C 
BRANCH  18  19
ATOM     19  N   UNL     1      -3.424   3.080 127.188  0.00  0.00    +0.000 NA
ATOM     20  C   UNL     1      -2.065   3.056 126.666  0.00  0.00    +0.000 C 
ATOM     21  C   UNL     1      -3.858   4.485 127.257  0.00  0.00    +0.000 C 
ENDBRANCH  18  19
ENDBRANCH  17  18
ENDBRANCH  15  17
ENDBRANCH   1  15
TORSDOF 4
ENDMDL
MODEL 8
REMARK VINA RESULT:      -5.7      1.954      5.215
REMARK  Name = Alimemazine
REMARK  7 active torsions:
REMARK  status: ('A' for Active; 'I' for Inactive)
REMARK    1  A    between atoms: C_1  and  C_2
REMARK    2  A    between atoms: C_2  and  C_3
REMARK    3  A    between atoms: C_2  and  C_7
REMARK    4  A    between atoms: C_3  and  N_4
REMARK    5  A    between atoms: N_4  and  C_5
REMARK    6  A    between atoms: N_4  and  C_6
REMARK    7  A    between atoms: C_7  and  N_8
REMARK                            x       y       z     vdW  Elec       q    Type
REMARK                         _______ _______ _______ _____ _____    ______ ____
ROOT
ATOM      1  N   UNL     1      -7.853  -1.409 126.685  0.00  0.00    +0.000 N 
ATOM      2  C   UNL     1      -8.222  -1.847 125.397  0.00  0.00    +0.000 A 
ATOM      3  C   UNL     1      -8.994  -3.005 125.223  0.00  0.00    +0.000 A 
ATOM      4  C   UNL     1      -9.429  -3.391 123.956  0.00  0.00    +0.000 A 
ATOM      5  C   UNL     1      -9.082  -2.636 122.837  0.00  0.00    +0.000 A 
ATOM      6  C   UNL     1      -8.298  -1.495 122.983  0.00  0.00    +0.000 A 
ATOM      7  C   UNL     1      -7.884  -1.088 124.253  0.00  0.00    +0.000 A 
ATOM      8  S   UNL     1      -6.868   0.379 124.386  0.00  0.00    +0.000 S 
ATOM      9  C   UNL     1      -7.355   0.902 126.022  0.00  0.00    +0.000 A 
ATOM     10  C   UNL     1      -7.384   2.271 126.301  0.00  0.00    +0.000 A 
ATOM     11  C   UNL     1      -7.826   2.726 127.540  0.00  0.00    +0.000 A 
ATOM     12  C   UNL     1      -8.233   1.811 128.510  0.00  0.00    +0.000 A 
ATOM     13  C   UNL     1      -8.187   0.443 128.242  0.00  0.00    +0.000 A 
ATOM     14  C   UNL     1      -7.743  -0.039 127.000  0.00  0.00    +0.000 A 
ENDROOT
BRANCH   1  15
ATOM     15  C   UNL     1      -7.234  -2.375 127.610  0.00  0.00    +0.000 C 
BRANCH  15  17
ATOM     16  C   UNL     1      -8.879  -4.038 128.352  0.00  0.00    +0.000 C 
ATOM     17  C   UNL     1      -8.112  -2.793 128.825  0.00  0.00    +0.000 C 
BRANCH  17  18
ATOM     18  C   UNL     1      -7.265  -3.042 130.106  0.00  0.00    +0.000 C 
BRANCH  18  19
ATOM     19  N   UNL     1      -5.846  -3.435 129.969  0.00  0.00    +0.000 NA
ATOM     20  C   UNL     1      -4.910  -2.494 130.570  0.00  0.00    +0.000 C 
ATOM     21  C   UNL     1      -5.642  -4.745 130.607  0.00  0.00    +0.000 C 
ENDBRANCH  18  19
ENDBRANCH  17  18
ENDBRANCH  15  17
ENDBRANCH   1  15
TORSDOF 4
ENDMDL
MODEL 9
REMARK VINA RESULT:      -5.6      2.583      3.845
REMARK  Name = Alimemazine
REMARK  7 active torsions:
REMARK  status: ('A' for Active; 'I' for Inactive)
REMARK    1  A    between atoms: C_1  and  C_2
REMARK    2  A    between atoms: C_2  and  C_3
REMARK    3  A    between atoms: C_2  and  C_7
REMARK    4  A    between atoms: C_3  and  N_4
REMARK    5  A    between atoms: N_4  and  C_5
REMARK    6  A    between atoms: N_4  and  C_6
REMARK    7  A    between atoms: C_7  and  N_8
REMARK                            x       y       z     vdW  Elec       q    Type
REMARK                         _______ _______ _______ _____ _____    ______ ____
ROOT
ATOM      1  N   UNL     1      -6.418   0.658 124.657  0.00  0.00    +0.000 N 
ATOM      2  C   UNL     1      -7.143   1.520 123.810  0.00  0.00    +0.000 A 
ATOM      3  C   UNL     1      -6.549   2.670 123.271  0.00  0.00    +0.000 A 
ATOM      4  C   UNL     1      -7.240   3.477 122.368  0.00  0.00    +0.000 A 
ATOM      5  C   UNL     1      -8.547   3.158 122.003  0.00  0.00    +0.000 A 
ATOM      6  C   UNL     1      -9.165   2.033 122.543  0.00  0.00    +0.000 A 
ATOM      7  C   UNL     1      -8.468   1.207 123.426  0.00  0.00    +0.000 A 
ATOM      8  S   UNL     1      -9.311  -0.220 124.101  0.00  0.00    +0.000 S 
ATOM      9  C   UNL     1      -7.896  -1.279 124.357  0.00  0.00    +0.000 A 
ATOM     10  C   UNL     1      -8.064  -2.658 124.217  0.00  0.00    +0.000 A 
ATOM     11  C   UNL     1      -6.973  -3.515 124.337  0.00  0.00    +0.000 A 
ATOM     12  C   UNL     1      -5.709  -2.993 124.608  0.00  0.00    +0.000 A 
ATOM     13  C   UNL     1      -5.541  -1.619 124.768  0.00  0.00    +0.000 A 
ATOM     14  C   UNL     1      -6.627  -0.736 124.653  0.00  0.00    +0.000 A 
ENDROOT
BRANCH   1  15
ATOM     15  C   UNL     1      -5.692   1.238 125.802  0.00  0.00    +0.000 C 
BRANCH  15  17
ATOM     16  C   UNL     1      -6.561   0.842 128.063  0.00  0.00    +0.000 C 
ATOM     17  C   UNL     1      -6.588   1.862 126.913  0.00  0.00    +0.000 C 
BRANCH  17  18
ATOM     18  C   UNL     1      -6.102   3.277 127.335  0.00  0.00    +0.000 C 
BRANCH  18  19
ATOM     19  N   UNL     1      -7.061   4.404 127.324  0.00  0.00    +0.000 NA
ATOM     20  C   UNL     1      -7.881   4.472 126.122  0.00  0.00    +0.000 C 
ATOM     21  C   UNL     1      -7.962   4.283 128.481  0.00  0.00    +0.000 C 
ENDBRANCH  18  19
ENDBRANCH  17  18
ENDBRANCH  15  17
ENDBRANCH   1  15
TORSDOF 4
ENDMDL
