MODEL 1
REMARK VINA RESULT:      -7.1      0.000      0.000
REMARK  Name = Aliskiren
REMARK  29 active torsions:
REMARK  status: ('A' for Active; 'I' for Inactive)
REMARK    1  A    between atoms: C_1  and  O_2
REMARK    2  A    between atoms: O_2  and  C_3
REMARK    3  A    between atoms: C_3  and  C_4
REMARK    4  A    between atoms: C_4  and  C_5
REMARK    5  A    between atoms: C_5  and  O_6
REMARK    6  A    between atoms: O_6  and  C_7
REMARK    7  A    between atoms: C_8  and  O_9
REMARK    8  A    between atoms: O_9  and  C_10
REMARK    9  A    between atoms: C_13  and  C_14
REMARK   10  A    between atoms: C_14  and  C_15
REMARK   11  A    between atoms: C_15  and  C_16
REMARK   12  A    between atoms: C_15  and  C_36
REMARK   13  A    between atoms: C_16  and  C_17
REMARK   14  A    between atoms: C_17  and  N_18
REMARK   15  A    between atoms: C_17  and  C_19
REMARK   16  A    between atoms: C_19  and  O_20
REMARK   17  A    between atoms: C_19  and  C_21
REMARK   18  A    between atoms: C_21  and  C_22
REMARK   19  A    between atoms: C_22  and  C_23
REMARK   20  A    between atoms: C_22  and  C_26
REMARK   21  A    between atoms: C_23  and  C_24
REMARK   22  A    between atoms: C_23  and  C_25
REMARK   23  A    between atoms: N_28  and  C_29
REMARK   24  A    between atoms: C_29  and  C_30
REMARK   25  A    between atoms: C_30  and  C_31
REMARK   26  A    between atoms: C_30  and  C_32
REMARK   27  A    between atoms: C_30  and  C_33
REMARK   28  A    between atoms: C_36  and  C_37
REMARK   29  A    between atoms: C_36  and  C_38
REMARK                            x       y       z     vdW  Elec       q    Type
REMARK                         _______ _______ _______ _____ _____    ______ ____
ROOT
ATOM      1  C   UNL     1      -8.354   1.857 131.001  0.00  0.00    +0.000 C 
ENDROOT
BRANCH   1   2
ATOM      2  N   UNL     1      -9.776   1.448 131.163  0.00  0.00    +0.000 NA
ATOM      3  H   UNL     1      -9.892   0.976 132.054  0.00  0.00    +0.000 HD
ATOM      4  H   UNL     1      -9.868   0.677 130.477  0.00  0.00    +0.000 HD
ENDBRANCH   1   2
BRANCH   1   5
ATOM      5  C   UNL     1      -7.382   0.720 131.034  0.00  0.00    +0.000 C 
BRANCH   5   6
ATOM      6  C   UNL     1      -6.989  -0.103 129.751  0.00  0.00    +0.000 C 
BRANCH   6   7
ATOM      7  C   UNL     1      -5.445   0.053 129.651  0.00  0.00    +0.000 C 
ATOM      8  C   UNL     1      -4.742  -1.278 129.433  0.00  0.00    +0.000 C 
ATOM      9  C   UNL     1      -5.081   1.006 128.496  0.00  0.00    +0.000 C 
ENDBRANCH   6   7
BRANCH   6  10
ATOM     10  C   UNL     1      -7.442  -1.599 129.581  0.00  0.00    +0.000 C 
BRANCH  10  15
ATOM     11  C   UNL     1      -8.876  -1.395 126.091  0.00  0.00    +0.000 A 
ATOM     12  C   UNL     1      -9.208  -2.717 125.809  0.00  0.00    +0.000 A 
ATOM     13  C   UNL     1      -8.837  -3.707 126.726  0.00  0.00    +0.000 A 
ATOM     14  C   UNL     1      -8.113  -3.382 127.887  0.00  0.00    +0.000 A 
ATOM     15  C   UNL     1      -7.809  -2.044 128.170  0.00  0.00    +0.000 A 
ATOM     16  C   UNL     1      -8.053  -1.097 127.176  0.00  0.00    +0.000 A 
BRANCH  12  17
ATOM     17  O   UNL     1      -9.878  -3.139 124.689  0.00  0.00    +0.000 OA
ATOM     18  C   UNL     1      -9.097  -3.193 123.490  0.00  0.00    +0.000 C 
ENDBRANCH  12  17
BRANCH  11  19
ATOM     19  O   UNL     1      -9.610  -0.389 125.494  0.00  0.00    +0.000 OA
BRANCH  19  20
ATOM     20  C   UNL     1      -8.835   0.594 124.826  0.00  0.00    +0.000 C 
BRANCH  20  21
ATOM     21  C   UNL     1      -9.012   1.940 125.516  0.00  0.00    +0.000 C 
BRANCH  21  22
ATOM     22  C   UNL     1      -8.533   3.031 124.576  0.00  0.00    +0.000 C 
BRANCH  22  24
ATOM     23  C   UNL     1      -7.370   4.809 125.546  0.00  0.00    +0.000 C 
ATOM     24  O   UNL     1      -8.655   4.304 125.198  0.00  0.00    +0.000 OA
ENDBRANCH  22  24
ENDBRANCH  21  22
ENDBRANCH  20  21
ENDBRANCH  19  20
ENDBRANCH  11  19
ENDBRANCH  10  15
ENDBRANCH   6  10
ENDBRANCH   5   6
ENDBRANCH   1   5
BRANCH   1  25
ATOM     25  C   UNL     1      -8.237   2.830 129.835  0.00  0.00    +0.000 C 
BRANCH  25  26
ATOM     26  O   UNL     1      -9.232   2.217 129.010  0.00  0.00    +0.000 OA
ATOM     27  H   UNL     1      -8.828   1.947 128.165  0.00  0.00    +0.000 HD
ENDBRANCH  25  26
BRANCH  25  28
ATOM     28  C   UNL     1      -8.502   4.309 130.139  0.00  0.00    +0.000 C 
BRANCH  28  29
ATOM     29  C   UNL     1      -9.541   4.812 131.152  0.00  0.00    +0.000 C 
BRANCH  29  30
ATOM     30  C   UNL     1     -10.940   4.894 130.409  0.00  0.00    +0.000 C 
ATOM     31  O   UNL     1     -11.595   3.941 130.051  0.00  0.00    +0.000 OA
ATOM     32  N   UNL     1     -11.403   6.177 130.206  0.00  0.00    +0.000 N 
ATOM     33  H   UNL     1     -10.914   6.935 130.649  0.00  0.00    +0.000 HD
BRANCH  32  34
ATOM     34  C   UNL     1     -12.587   6.486 129.424  0.00  0.00    +0.000 C 
BRANCH  34  35
ATOM     35  C   UNL     1     -12.334   7.491 128.281  0.00  0.00    +0.000 C 
ATOM     36  C   UNL     1     -13.003   6.986 126.988  0.00  0.00    +0.000 C 
ATOM     37  C   UNL     1     -12.909   8.878 128.627  0.00  0.00    +0.000 C 
BRANCH  35  38
ATOM     38  C   UNL     1     -10.833   7.683 127.992  0.00  0.00    +0.000 C 
ATOM     39  N   UNL     1     -10.264   8.893 128.257  0.00  0.00    +0.000 N 
ATOM     40  O   UNL     1     -10.133   6.790 127.528  0.00  0.00    +0.000 OA
ATOM     41  H   UNL     1     -10.736   9.702 128.633  0.00  0.00    +0.000 HD
ATOM     42  H   UNL     1      -9.276   8.991 128.059  0.00  0.00    +0.000 HD
ENDBRANCH  35  38
ENDBRANCH  34  35
ENDBRANCH  32  34
ENDBRANCH  29  30
BRANCH  29  43
ATOM     43  C   UNL     1      -9.109   6.172 131.761  0.00  0.00    +0.000 C 
ATOM     44  C   UNL     1      -8.581   6.044 133.173  0.00  0.00    +0.000 C 
ATOM     45  C   UNL     1      -7.921   6.833 131.073  0.00  0.00    +0.000 C 
ENDBRANCH  29  43
ENDBRANCH  28  29
ENDBRANCH  25  28
ENDBRANCH   1  25
TORSDOF 21
ENDMDL
MODEL 2
REMARK VINA RESULT:      -7.1      2.686      3.782
REMARK  Name = Aliskiren
REMARK  29 active torsions:
REMARK  status: ('A' for Active; 'I' for Inactive)
REMARK    1  A    between atoms: C_1  and  O_2
REMARK    2  A    between atoms: O_2  and  C_3
REMARK    3  A    between atoms: C_3  and  C_4
REMARK    4  A    between atoms: C_4  and  C_5
REMARK    5  A    between atoms: C_5  and  O_6
REMARK    6  A    between atoms: O_6  and  C_7
REMARK    7  A    between atoms: C_8  and  O_9
REMARK    8  A    between atoms: O_9  and  C_10
REMARK    9  A    between atoms: C_13  and  C_14
REMARK   10  A    between atoms: C_14  and  C_15
REMARK   11  A    between atoms: C_15  and  C_16
REMARK   12  A    between atoms: C_15  and  C_36
REMARK   13  A    between atoms: C_16  and  C_17
REMARK   14  A    between atoms: C_17  and  N_18
REMARK   15  A    between atoms: C_17  and  C_19
REMARK   16  A    between atoms: C_19  and  O_20
REMARK   17  A    between atoms: C_19  and  C_21
REMARK   18  A    between atoms: C_21  and  C_22
REMARK   19  A    between atoms: C_22  and  C_23
REMARK   20  A    between atoms: C_22  and  C_26
REMARK   21  A    between atoms: C_23  and  C_24
REMARK   22  A    between atoms: C_23  and  C_25
REMARK   23  A    between atoms: N_28  and  C_29
REMARK   24  A    between atoms: C_29  and  C_30
REMARK   25  A    between atoms: C_30  and  C_31
REMARK   26  A    between atoms: C_30  and  C_32
REMARK   27  A    between atoms: C_30  and  C_33
REMARK   28  A    between atoms: C_36  and  C_37
REMARK   29  A    between atoms: C_36  and  C_38
REMARK                            x       y       z     vdW  Elec       q    Type
REMARK                         _______ _______ _______ _____ _____    ______ ____
ROOT
ATOM      1  C   UNL     1      -7.404   4.421 129.222  0.00  0.00    +0.000 C 
ENDROOT
BRANCH   1   2
ATOM      2  N   UNL     1      -8.309   4.705 128.074  0.00  0.00    +0.000 NA
ATOM      3  H   UNL     1      -8.353   5.708 127.920  0.00  0.00    +0.000 HD
ATOM      4  H   UNL     1      -9.244   4.488 128.465  0.00  0.00    +0.000 HD
ENDBRANCH   1   2
BRANCH   1   5
ATOM      5  C   UNL     1      -6.008   4.058 128.824  0.00  0.00    +0.000 C 
BRANCH   5   6
ATOM      6  C   UNL     1      -5.686   3.124 127.597  0.00  0.00    +0.000 C 
BRANCH   6   7
ATOM      7  C   UNL     1      -4.134   3.144 127.495  0.00  0.00    +0.000 C 
ATOM      8  C   UNL     1      -3.642   3.999 126.337  0.00  0.00    +0.000 C 
ATOM      9  C   UNL     1      -3.523   3.676 128.805  0.00  0.00    +0.000 C 
ENDBRANCH   6   7
BRANCH   6  10
ATOM     10  C   UNL     1      -6.263   1.663 127.522  0.00  0.00    +0.000 C 
BRANCH  10  15
ATOM     11  C   UNL     1      -7.948   2.055 124.162  0.00  0.00    +0.000 A 
ATOM     12  C   UNL     1      -9.221   1.538 124.387  0.00  0.00    +0.000 A 
ATOM     13  C   UNL     1      -9.487   0.933 125.620  0.00  0.00    +0.000 A 
ATOM     14  C   UNL     1      -8.484   0.817 126.599  0.00  0.00    +0.000 A 
ATOM     15  C   UNL     1      -7.215   1.366 126.370  0.00  0.00    +0.000 A 
ATOM     16  C   UNL     1      -6.928   1.825 125.085  0.00  0.00    +0.000 A 
BRANCH  12  17
ATOM     17  O   UNL     1     -10.254   1.569 123.484  0.00  0.00    +0.000 OA
ATOM     18  C   UNL     1     -10.266   0.503 122.529  0.00  0.00    +0.000 C 
ENDBRANCH  12  17
BRANCH  11  19
ATOM     19  O   UNL     1      -7.796   3.040 123.206  0.00  0.00    +0.000 OA
BRANCH  19  20
ATOM     20  C   UNL     1      -6.454   3.442 122.979  0.00  0.00    +0.000 C 
BRANCH  20  21
ATOM     21  C   UNL     1      -6.098   3.231 121.513  0.00  0.00    +0.000 C 
BRANCH  21  22
ATOM     22  C   UNL     1      -5.212   4.377 121.061  0.00  0.00    +0.000 C 
BRANCH  22  24
ATOM     23  C   UNL     1      -6.910   4.285 119.460  0.00  0.00    +0.000 C 
ATOM     24  O   UNL     1      -5.773   5.011 119.918  0.00  0.00    +0.000 OA
ENDBRANCH  22  24
ENDBRANCH  21  22
ENDBRANCH  20  21
ENDBRANCH  19  20
ENDBRANCH  11  19
ENDBRANCH  10  15
ENDBRANCH   6  10
ENDBRANCH   5   6
ENDBRANCH   1   5
BRANCH   1  25
ATOM     25  C   UNL     1      -7.560   5.513 130.271  0.00  0.00    +0.000 C 
BRANCH  25  26
ATOM     26  O   UNL     1      -8.455   6.337 129.521  0.00  0.00    +0.000 OA
ATOM     27  H   UNL     1      -8.229   6.280 128.574  0.00  0.00    +0.000 HD
ENDBRANCH  25  26
BRANCH  25  28
ATOM     28  C   UNL     1      -8.103   5.084 131.640  0.00  0.00    +0.000 C 
BRANCH  28  29
ATOM     29  C   UNL     1      -9.526   4.556 131.878  0.00  0.00    +0.000 C 
BRANCH  29  30
ATOM     30  C   UNL     1     -10.502   5.804 131.931  0.00  0.00    +0.000 C 
ATOM     31  O   UNL     1     -10.564   6.603 132.839  0.00  0.00    +0.000 OA
ATOM     32  N   UNL     1     -11.300   5.952 130.815  0.00  0.00    +0.000 N 
ATOM     33  H   UNL     1     -11.116   5.368 130.019  0.00  0.00    +0.000 HD
BRANCH  32  34
ATOM     34  C   UNL     1     -12.360   6.939 130.715  0.00  0.00    +0.000 C 
BRANCH  34  35
ATOM     35  C   UNL     1     -12.463   7.602 129.325  0.00  0.00    +0.000 C 
ATOM     36  C   UNL     1     -13.623   6.969 128.533  0.00  0.00    +0.000 C 
ATOM     37  C   UNL     1     -12.719   9.116 129.452  0.00  0.00    +0.000 C 
BRANCH  35  38
ATOM     38  C   UNL     1     -11.176   7.428 128.496  0.00  0.00    +0.000 C 
ATOM     39  N   UNL     1     -10.350   8.501 128.336  0.00  0.00    +0.000 N 
ATOM     40  O   UNL     1     -10.869   6.363 127.973  0.00  0.00    +0.000 OA
ATOM     41  H   UNL     1     -10.498   9.426 128.712  0.00  0.00    +0.000 HD
ATOM     42  H   UNL     1      -9.510   8.358 127.788  0.00  0.00    +0.000 HD
ENDBRANCH  35  38
ENDBRANCH  34  35
ENDBRANCH  32  34
ENDBRANCH  29  30
BRANCH  29  43
ATOM     43  C   UNL     1      -9.589   3.696 133.168  0.00  0.00    +0.000 C 
ATOM     44  C   UNL     1      -9.180   2.258 132.939  0.00  0.00    +0.000 C 
ATOM     45  C   UNL     1      -8.602   4.101 134.257  0.00  0.00    +0.000 C 
ENDBRANCH  29  43
ENDBRANCH  28  29
ENDBRANCH  25  28
ENDBRANCH   1  25
TORSDOF 21
ENDMDL
MODEL 3
REMARK VINA RESULT:      -7.1      1.993      2.748
REMARK  Name = Aliskiren
REMARK  29 active torsions:
REMARK  status: ('A' for Active; 'I' for Inactive)
REMARK    1  A    between atoms: C_1  and  O_2
REMARK    2  A    between atoms: O_2  and  C_3
REMARK    3  A    between atoms: C_3  and  C_4
REMARK    4  A    between atoms: C_4  and  C_5
REMARK    5  A    between atoms: C_5  and  O_6
REMARK    6  A    between atoms: O_6  and  C_7
REMARK    7  A    between atoms: C_8  and  O_9
REMARK    8  A    between atoms: O_9  and  C_10
REMARK    9  A    between atoms: C_13  and  C_14
REMARK   10  A    between atoms: C_14  and  C_15
REMARK   11  A    between atoms: C_15  and  C_16
REMARK   12  A    between atoms: C_15  and  C_36
REMARK   13  A    between atoms: C_16  and  C_17
REMARK   14  A    between atoms: C_17  and  N_18
REMARK   15  A    between atoms: C_17  and  C_19
REMARK   16  A    between atoms: C_19  and  O_20
REMARK   17  A    between atoms: C_19  and  C_21
REMARK   18  A    between atoms: C_21  and  C_22
REMARK   19  A    between atoms: C_22  and  C_23
REMARK   20  A    between atoms: C_22  and  C_26
REMARK   21  A    between atoms: C_23  and  C_24
REMARK   22  A    between atoms: C_23  and  C_25
REMARK   23  A    between atoms: N_28  and  C_29
REMARK   24  A    between atoms: C_29  and  C_30
REMARK   25  A    between atoms: C_30  and  C_31
REMARK   26  A    between atoms: C_30  and  C_32
REMARK   27  A    between atoms: C_30  and  C_33
REMARK   28  A    between atoms: C_36  and  C_37
REMARK   29  A    between atoms: C_36  and  C_38
REMARK                            x       y       z     vdW  Elec       q    Type
REMARK                         _______ _______ _______ _____ _____    ______ ____
ROOT
ATOM      1  C   UNL     1      -7.046  -0.788 132.021  0.00  0.00    +0.000 C 
ENDROOT
BRANCH   1   2
ATOM      2  N   UNL     1      -7.101  -0.556 133.491  0.00  0.00    +0.000 NA
ATOM      3  H   UNL     1      -6.209  -0.192 133.808  0.00  0.00    +0.000 HD
ATOM      4  H   UNL     1      -7.108  -1.521 133.870  0.00  0.00    +0.000 HD
ENDBRANCH   1   2
BRANCH   1   5
ATOM      5  C   UNL     1      -6.710  -2.193 131.635  0.00  0.00    +0.000 C 
BRANCH   5   6
ATOM      6  C   UNL     1      -6.773  -2.708 130.148  0.00  0.00    +0.000 C 
BRANCH   6   7
ATOM      7  C   UNL     1      -5.791  -3.914 130.116  0.00  0.00    +0.000 C 
ATOM      8  C   UNL     1      -4.457  -3.556 129.476  0.00  0.00    +0.000 C 
ATOM      9  C   UNL     1      -5.538  -4.431 131.544  0.00  0.00    +0.000 C 
ENDBRANCH   6   7
BRANCH   6  10
ATOM     10  C   UNL     1      -8.149  -3.051 129.470  0.00  0.00    +0.000 C 
BRANCH  10  15
ATOM     11  C   UNL     1      -8.077  -1.387 126.078  0.00  0.00    +0.000 A 
ATOM     12  C   UNL     1      -8.916  -2.193 125.314  0.00  0.00    +0.000 A 
ATOM     13  C   UNL     1      -9.407  -3.372 125.885  0.00  0.00    +0.000 A 
ATOM     14  C   UNL     1      -9.037  -3.755 127.186  0.00  0.00    +0.000 A 
ATOM     15  C   UNL     1      -8.213  -2.920 127.953  0.00  0.00    +0.000 A 
ATOM     16  C   UNL     1      -7.615  -1.833 127.316  0.00  0.00    +0.000 A 
BRANCH  12  17
ATOM     17  O   UNL     1      -9.305  -1.927 124.026  0.00  0.00    +0.000 OA
ATOM     18  C   UNL     1      -9.450  -3.072 123.179  0.00  0.00    +0.000 C 
ENDBRANCH  12  17
BRANCH  11  19
ATOM     19  O   UNL     1      -7.972  -0.049 125.752  0.00  0.00    +0.000 OA
BRANCH  19  20
ATOM     20  C   UNL     1      -9.060   0.753 126.182  0.00  0.00    +0.000 C 
BRANCH  20  21
ATOM     21  C   UNL     1      -9.783   1.326 124.971  0.00  0.00    +0.000 C 
BRANCH  21  22
ATOM     22  C   UNL     1      -8.977   2.495 124.435  0.00  0.00    +0.000 C 
BRANCH  22  24
ATOM     23  C   UNL     1      -7.573   4.131 125.333  0.00  0.00    +0.000 C 
ATOM     24  O   UNL     1      -8.846   3.500 125.433  0.00  0.00    +0.000 OA
ENDBRANCH  22  24
ENDBRANCH  21  22
ENDBRANCH  20  21
ENDBRANCH  19  20
ENDBRANCH  11  19
ENDBRANCH  10  15
ENDBRANCH   6  10
ENDBRANCH   5   6
ENDBRANCH   1   5
BRANCH   1  25
ATOM     25  C   UNL     1      -8.273  -0.168 131.366  0.00  0.00    +0.000 C 
BRANCH  25  26
ATOM     26  O   UNL     1      -9.172  -0.390 132.456  0.00  0.00    +0.000 OA
ATOM     27  H   UNL     1      -9.708  -1.183 132.275  0.00  0.00    +0.000 HD
ENDBRANCH  25  26
BRANCH  25  28
ATOM     28  C   UNL     1      -8.162   1.300 130.937  0.00  0.00    +0.000 C 
BRANCH  28  29
ATOM     29  C   UNL     1      -8.894   2.461 131.626  0.00  0.00    +0.000 C 
BRANCH  29  30
ATOM     30  C   UNL     1      -9.731   3.228 130.520  0.00  0.00    +0.000 C 
ATOM     31  O   UNL     1      -9.593   3.095 129.324  0.00  0.00    +0.000 OA
ATOM     32  N   UNL     1     -10.693   4.080 131.022  0.00  0.00    +0.000 N 
ATOM     33  H   UNL     1     -10.886   4.051 132.007  0.00  0.00    +0.000 HD
BRANCH  32  34
ATOM     34  C   UNL     1     -11.474   4.983 130.193  0.00  0.00    +0.000 C 
BRANCH  34  35
ATOM     35  C   UNL     1     -10.925   6.424 130.156  0.00  0.00    +0.000 C 
ATOM     36  C   UNL     1     -10.296   6.705 128.778  0.00  0.00    +0.000 C 
ATOM     37  C   UNL     1     -12.048   7.449 130.404  0.00  0.00    +0.000 C 
BRANCH  35  38
ATOM     38  C   UNL     1      -9.844   6.668 131.227  0.00  0.00    +0.000 C 
ATOM     39  N   UNL     1      -8.584   6.996 130.822  0.00  0.00    +0.000 N 
ATOM     40  O   UNL     1     -10.074   6.573 132.426  0.00  0.00    +0.000 OA
ATOM     41  H   UNL     1      -8.275   7.099 129.867  0.00  0.00    +0.000 HD
ATOM     42  H   UNL     1      -7.894   7.152 131.547  0.00  0.00    +0.000 HD
ENDBRANCH  35  38
ENDBRANCH  34  35
ENDBRANCH  32  34
ENDBRANCH  29  30
BRANCH  29  43
ATOM     43  C   UNL     1      -7.892   3.388 132.365  0.00  0.00    +0.000 C 
ATOM     44  C   UNL     1      -7.657   2.976 133.801  0.00  0.00    +0.000 C 
ATOM     45  C   UNL     1      -6.468   3.353 131.823  0.00  0.00    +0.000 C 
ENDBRANCH  29  43
ENDBRANCH  28  29
ENDBRANCH  25  28
ENDBRANCH   1  25
TORSDOF 21
ENDMDL
MODEL 4
REMARK VINA RESULT:      -7.0      1.857      3.351
REMARK  Name = Aliskiren
REMARK  29 active torsions:
REMARK  status: ('A' for Active; 'I' for Inactive)
REMARK    1  A    between atoms: C_1  and  O_2
REMARK    2  A    between atoms: O_2  and  C_3
REMARK    3  A    between atoms: C_3  and  C_4
REMARK    4  A    between atoms: C_4  and  C_5
REMARK    5  A    between atoms: C_5  and  O_6
REMARK    6  A    between atoms: O_6  and  C_7
REMARK    7  A    between atoms: C_8  and  O_9
REMARK    8  A    between atoms: O_9  and  C_10
REMARK    9  A    between atoms: C_13  and  C_14
REMARK   10  A    between atoms: C_14  and  C_15
REMARK   11  A    between atoms: C_15  and  C_16
REMARK   12  A    between atoms: C_15  and  C_36
REMARK   13  A    between atoms: C_16  and  C_17
REMARK   14  A    between atoms: C_17  and  N_18
REMARK   15  A    between atoms: C_17  and  C_19
REMARK   16  A    between atoms: C_19  and  O_20
REMARK   17  A    between atoms: C_19  and  C_21
REMARK   18  A    between atoms: C_21  and  C_22
REMARK   19  A    between atoms: C_22  and  C_23
REMARK   20  A    between atoms: C_22  and  C_26
REMARK   21  A    between atoms: C_23  and  C_24
REMARK   22  A    between atoms: C_23  and  C_25
REMARK   23  A    between atoms: N_28  and  C_29
REMARK   24  A    between atoms: C_29  and  C_30
REMARK   25  A    between atoms: C_30  and  C_31
REMARK   26  A    between atoms: C_30  and  C_32
REMARK   27  A    between atoms: C_30  and  C_33
REMARK   28  A    between atoms: C_36  and  C_37
REMARK   29  A    between atoms: C_36  and  C_38
REMARK                            x       y       z     vdW  Elec       q    Type
REMARK                         _______ _______ _______ _____ _____    ______ ____
ROOT
ATOM      1  C   UNL     1      -7.257   0.408 131.701  0.00  0.00    +0.000 C 
ENDROOT
BRANCH   1   2
ATOM      2  N   UNL     1      -7.869   0.759 133.013  0.00  0.00    +0.000 NA
ATOM      3  H   UNL     1      -7.417   1.588 133.384  0.00  0.00    +0.000 HD
ATOM      4  H   UNL     1      -7.520   0.006 133.633  0.00  0.00    +0.000 HD
ENDBRANCH   1   2
BRANCH   1   5
ATOM      5  C   UNL     1      -6.712  -0.983 131.633  0.00  0.00    +0.000 C 
BRANCH   5   6
ATOM      6  C   UNL     1      -6.607  -1.794 130.287  0.00  0.00    +0.000 C 
BRANCH   6   7
ATOM      7  C   UNL     1      -5.286  -2.602 130.426  0.00  0.00    +0.000 C 
ATOM      8  C   UNL     1      -5.535  -4.091 130.608  0.00  0.00    +0.000 C 
ATOM      9  C   UNL     1      -4.401  -2.390 129.183  0.00  0.00    +0.000 C 
ENDBRANCH   6   7
BRANCH   6  10
ATOM     10  C   UNL     1      -7.798  -2.692 129.791  0.00  0.00    +0.000 C 
BRANCH  10  15
ATOM     11  C   UNL     1      -8.375  -1.363 126.301  0.00  0.00    +0.000 A 
ATOM     12  C   UNL     1      -9.156  -2.353 125.712  0.00  0.00    +0.000 A 
ATOM     13  C   UNL     1      -9.387  -3.533 126.428  0.00  0.00    +0.000 A 
ATOM     14  C   UNL     1      -8.816  -3.732 127.697  0.00  0.00    +0.000 A 
ATOM     15  C   UNL     1      -8.054  -2.716 128.289  0.00  0.00    +0.000 A 
ATOM     16  C   UNL     1      -7.711  -1.618 127.500  0.00  0.00    +0.000 A 
BRANCH  12  17
ATOM     17  O   UNL     1      -9.726  -2.271 124.467  0.00  0.00    +0.000 OA
ATOM     18  C   UNL     1      -9.082  -3.038 123.445  0.00  0.00    +0.000 C 
ENDBRANCH  12  17
BRANCH  11  19
ATOM     19  O   UNL     1      -8.520  -0.062 125.863  0.00  0.00    +0.000 OA
BRANCH  19  20
ATOM     20  C   UNL     1      -7.636   0.314 124.819  0.00  0.00    +0.000 C 
BRANCH  20  21
ATOM     21  C   UNL     1      -8.383   1.159 123.795  0.00  0.00    +0.000 C 
BRANCH  21  22
ATOM     22  C   UNL     1      -7.654   2.480 123.634  0.00  0.00    +0.000 C 
BRANCH  22  24
ATOM     23  C   UNL     1      -8.074   3.942 125.407  0.00  0.00    +0.000 C 
ATOM     24  O   UNL     1      -8.468   3.551 124.095  0.00  0.00    +0.000 OA
ENDBRANCH  22  24
ENDBRANCH  21  22
ENDBRANCH  20  21
ENDBRANCH  19  20
ENDBRANCH  11  19
ENDBRANCH  10  15
ENDBRANCH   6  10
ENDBRANCH   5   6
ENDBRANCH   1   5
BRANCH   1  25
ATOM     25  C   UNL     1      -8.191   0.838 130.577  0.00  0.00    +0.000 C 
BRANCH  25  26
ATOM     26  O   UNL     1      -9.129   1.537 131.400  0.00  0.00    +0.000 OA
ATOM     27  H   UNL     1      -8.715   2.352 131.739  0.00  0.00    +0.000 HD
ENDBRANCH  25  26
BRANCH  25  28
ATOM     28  C   UNL     1      -7.581   1.693 129.461  0.00  0.00    +0.000 C 
BRANCH  28  29
ATOM     29  C   UNL     1      -6.415   2.673 129.660  0.00  0.00    +0.000 C 
BRANCH  29  30
ATOM     30  C   UNL     1      -6.930   4.123 129.275  0.00  0.00    +0.000 C 
ATOM     31  O   UNL     1      -6.229   5.103 129.162  0.00  0.00    +0.000 OA
ATOM     32  N   UNL     1      -8.286   4.202 129.041  0.00  0.00    +0.000 N 
ATOM     33  H   UNL     1      -8.811   3.347 128.992  0.00  0.00    +0.000 HD
BRANCH  32  34
ATOM     34  C   UNL     1      -8.987   5.454 128.814  0.00  0.00    +0.000 C 
BRANCH  34  35
ATOM     35  C   UNL     1      -9.950   5.844 129.955  0.00  0.00    +0.000 C 
ATOM     36  C   UNL     1      -9.222   6.760 130.958  0.00  0.00    +0.000 C 
ATOM     37  C   UNL     1     -11.182   6.590 129.408  0.00  0.00    +0.000 C 
BRANCH  35  38
ATOM     38  C   UNL     1     -10.470   4.617 130.728  0.00  0.00    +0.000 C 
ATOM     39  N   UNL     1     -10.192   4.515 132.059  0.00  0.00    +0.000 N 
ATOM     40  O   UNL     1     -11.119   3.728 130.190  0.00  0.00    +0.000 OA
ATOM     41  H   UNL     1      -9.665   5.177 132.608  0.00  0.00    +0.000 HD
ATOM     42  H   UNL     1     -10.547   3.699 132.542  0.00  0.00    +0.000 HD
ENDBRANCH  35  38
ENDBRANCH  34  35
ENDBRANCH  32  34
ENDBRANCH  29  30
BRANCH  29  43
ATOM     43  C   UNL     1      -5.178   2.241 128.829  0.00  0.00    +0.000 C 
ATOM     44  C   UNL     1      -4.202   1.397 129.619  0.00  0.00    +0.000 C 
ATOM     45  C   UNL     1      -5.484   1.305 127.665  0.00  0.00    +0.000 C 
ENDBRANCH  29  43
ENDBRANCH  28  29
ENDBRANCH  25  28
ENDBRANCH   1  25
TORSDOF 21
ENDMDL
MODEL 5
REMARK VINA RESULT:      -6.9      3.629      6.435
REMARK  Name = Aliskiren
REMARK  29 active torsions:
REMARK  status: ('A' for Active; 'I' for Inactive)
REMARK    1  A    between atoms: C_1  and  O_2
REMARK    2  A    between atoms: O_2  and  C_3
REMARK    3  A    between atoms: C_3  and  C_4
REMARK    4  A    between atoms: C_4  and  C_5
REMARK    5  A    between atoms: C_5  and  O_6
REMARK    6  A    between atoms: O_6  and  C_7
REMARK    7  A    between atoms: C_8  and  O_9
REMARK    8  A    between atoms: O_9  and  C_10
REMARK    9  A    between atoms: C_13  and  C_14
REMARK   10  A    between atoms: C_14  and  C_15
REMARK   11  A    between atoms: C_15  and  C_16
REMARK   12  A    between atoms: C_15  and  C_36
REMARK   13  A    between atoms: C_16  and  C_17
REMARK   14  A    between atoms: C_17  and  N_18
REMARK   15  A    between atoms: C_17  and  C_19
REMARK   16  A    between atoms: C_19  and  O_20
REMARK   17  A    between atoms: C_19  and  C_21
REMARK   18  A    between atoms: C_21  and  C_22
REMARK   19  A    between atoms: C_22  and  C_23
REMARK   20  A    between atoms: C_22  and  C_26
REMARK   21  A    between atoms: C_23  and  C_24
REMARK   22  A    between atoms: C_23  and  C_25
REMARK   23  A    between atoms: N_28  and  C_29
REMARK   24  A    between atoms: C_29  and  C_30
REMARK   25  A    between atoms: C_30  and  C_31
REMARK   26  A    between atoms: C_30  and  C_32
REMARK   27  A    between atoms: C_30  and  C_33
REMARK   28  A    between atoms: C_36  and  C_37
REMARK   29  A    between atoms: C_36  and  C_38
REMARK                            x       y       z     vdW  Elec       q    Type
REMARK                         _______ _______ _______ _____ _____    ______ ____
ROOT
ATOM      1  C   UNL     1      -7.848   4.295 127.948  0.00  0.00    +0.000 C 
ENDROOT
BRANCH   1   2
ATOM      2  N   UNL     1      -8.909   5.286 127.620  0.00  0.00    +0.000 NA
ATOM      3  H   UNL     1      -9.198   5.163 126.655  0.00  0.00    +0.000 HD
ATOM      4  H   UNL     1      -8.383   6.179 127.594  0.00  0.00    +0.000 HD
ENDBRANCH   1   2
BRANCH   1   5
ATOM      5  C   UNL     1      -6.791   4.159 126.898  0.00  0.00    +0.000 C 
BRANCH   5   6
ATOM      6  C   UNL     1      -6.427   2.782 126.226  0.00  0.00    +0.000 C 
BRANCH   6   7
ATOM      7  C   UNL     1      -6.782   2.980 124.725  0.00  0.00    +0.000 C 
ATOM      8  C   UNL     1      -5.751   3.827 123.994  0.00  0.00    +0.000 C 
ATOM      9  C   UNL     1      -6.898   1.614 124.022  0.00  0.00    +0.000 C 
ENDBRANCH   6   7
BRANCH   6  10
ATOM     10  C   UNL     1      -5.003   2.143 126.416  0.00  0.00    +0.000 C 
BRANCH  10  15
ATOM     11  C   UNL     1      -3.645   3.649 129.604  0.00  0.00    +0.000 A 
ATOM     12  C   UNL     1      -2.876   4.715 129.146  0.00  0.00    +0.000 A 
ATOM     13  C   UNL     1      -2.696   4.862 127.766  0.00  0.00    +0.000 A 
ATOM     14  C   UNL     1      -3.247   3.936 126.863  0.00  0.00    +0.000 A 
ATOM     15  C   UNL     1      -4.041   2.883 127.337  0.00  0.00    +0.000 A 
ATOM     16  C   UNL     1      -4.080   2.668 128.714  0.00  0.00    +0.000 A 
BRANCH  12  17
ATOM     17  O   UNL     1      -2.267   5.648 129.947  0.00  0.00    +0.000 OA
ATOM     18  C   UNL     1      -2.884   6.940 129.962  0.00  0.00    +0.000 C 
ENDBRANCH  12  17
BRANCH  11  19
ATOM     19  O   UNL     1      -4.223   3.743 130.855  0.00  0.00    +0.000 OA
BRANCH  19  20
ATOM     20  C   UNL     1      -3.654   2.891 131.836  0.00  0.00    +0.000 C 
BRANCH  20  21
ATOM     21  C   UNL     1      -2.932   3.728 132.883  0.00  0.00    +0.000 C 
BRANCH  21  22
ATOM     22  C   UNL     1      -3.767   4.962 133.174  0.00  0.00    +0.000 C 
BRANCH  22  24
ATOM     23  C   UNL     1      -1.556   5.697 133.324  0.00  0.00    +0.000 C 
ATOM     24  O   UNL     1      -2.924   6.083 133.406  0.00  0.00    +0.000 OA
ENDBRANCH  22  24
ENDBRANCH  21  22
ENDBRANCH  20  21
ENDBRANCH  19  20
ENDBRANCH  11  19
ENDBRANCH  10  15
ENDBRANCH   6  10
ENDBRANCH   5   6
ENDBRANCH   1   5
BRANCH   1  25
ATOM     25  C   UNL     1      -7.374   4.517 129.378  0.00  0.00    +0.000 C 
BRANCH  25  26
ATOM     26  O   UNL     1      -6.254   5.345 129.054  0.00  0.00    +0.000 OA
ATOM     27  H   UNL     1      -6.512   6.282 129.133  0.00  0.00    +0.000 HD
ENDBRANCH  25  26
BRANCH  25  28
ATOM     28  C   UNL     1      -8.372   5.166 130.344  0.00  0.00    +0.000 C 
BRANCH  28  29
ATOM     29  C   UNL     1      -9.405   4.388 131.172  0.00  0.00    +0.000 C 
BRANCH  29  30
ATOM     30  C   UNL     1     -10.805   4.510 130.437  0.00  0.00    +0.000 C 
ATOM     31  O   UNL     1     -11.539   3.582 130.176  0.00  0.00    +0.000 OA
ATOM     32  N   UNL     1     -11.170   5.801 130.117  0.00  0.00    +0.000 N 
ATOM     33  H   UNL     1     -10.618   6.556 130.482  0.00  0.00    +0.000 HD
BRANCH  32  34
ATOM     34  C   UNL     1     -12.340   6.128 129.320  0.00  0.00    +0.000 C 
BRANCH  34  35
ATOM     35  C   UNL     1     -12.314   7.555 128.733  0.00  0.00    +0.000 C 
ATOM     36  C   UNL     1     -13.444   7.710 127.697  0.00  0.00    +0.000 C 
ATOM     37  C   UNL     1     -12.508   8.610 129.838  0.00  0.00    +0.000 C 
BRANCH  35  38
ATOM     38  C   UNL     1     -10.981   7.875 128.030  0.00  0.00    +0.000 C 
ATOM     39  N   UNL     1     -10.933   7.837 126.668  0.00  0.00    +0.000 N 
ATOM     40  O   UNL     1      -9.962   8.157 128.649  0.00  0.00    +0.000 OA
ATOM     41  H   UNL     1     -11.702   7.614 126.052  0.00  0.00    +0.000 HD
ATOM     42  H   UNL     1     -10.045   8.053 126.232  0.00  0.00    +0.000 HD
ENDBRANCH  35  38
ENDBRANCH  34  35
ENDBRANCH  32  34
ENDBRANCH  29  30
BRANCH  29  43
ATOM     43  C   UNL     1      -9.453   4.909 132.633  0.00  0.00    +0.000 C 
ATOM     44  C   UNL     1      -9.203   3.822 133.655  0.00  0.00    +0.000 C 
ATOM     45  C   UNL     1      -8.351   5.898 132.996  0.00  0.00    +0.000 C 
ENDBRANCH  29  43
ENDBRANCH  28  29
ENDBRANCH  25  28
ENDBRANCH   1  25
TORSDOF 21
ENDMDL
MODEL 6
REMARK VINA RESULT:      -6.9      2.187      3.875
REMARK  Name = Aliskiren
REMARK  29 active torsions:
REMARK  status: ('A' for Active; 'I' for Inactive)
REMARK    1  A    between atoms: C_1  and  O_2
REMARK    2  A    between atoms: O_2  and  C_3
REMARK    3  A    between atoms: C_3  and  C_4
REMARK    4  A    between atoms: C_4  and  C_5
REMARK    5  A    between atoms: C_5  and  O_6
REMARK    6  A    between atoms: O_6  and  C_7
REMARK    7  A    between atoms: C_8  and  O_9
REMARK    8  A    between atoms: O_9  and  C_10
REMARK    9  A    between atoms: C_13  and  C_14
REMARK   10  A    between atoms: C_14  and  C_15
REMARK   11  A    between atoms: C_15  and  C_16
REMARK   12  A    between atoms: C_15  and  C_36
REMARK   13  A    between atoms: C_16  and  C_17
REMARK   14  A    between atoms: C_17  and  N_18
REMARK   15  A    between atoms: C_17  and  C_19
REMARK   16  A    between atoms: C_19  and  O_20
REMARK   17  A    between atoms: C_19  and  C_21
REMARK   18  A    between atoms: C_21  and  C_22
REMARK   19  A    between atoms: C_22  and  C_23
REMARK   20  A    between atoms: C_22  and  C_26
REMARK   21  A    between atoms: C_23  and  C_24
REMARK   22  A    between atoms: C_23  and  C_25
REMARK   23  A    between atoms: N_28  and  C_29
REMARK   24  A    between atoms: C_29  and  C_30
REMARK   25  A    between atoms: C_30  and  C_31
REMARK   26  A    between atoms: C_30  and  C_32
REMARK   27  A    between atoms: C_30  and  C_33
REMARK   28  A    between atoms: C_36  and  C_37
REMARK   29  A    between atoms: C_36  and  C_38
REMARK                            x       y       z     vdW  Elec       q    Type
REMARK                         _______ _______ _______ _____ _____    ______ ____
ROOT
ATOM      1  C   UNL     1      -7.639   4.224 128.236  0.00  0.00    +0.000 C 
ENDROOT
BRANCH   1   2
ATOM      2  N   UNL     1      -8.744   5.165 127.904  0.00  0.00    +0.000 NA
ATOM      3  H   UNL     1      -9.027   5.026 126.940  0.00  0.00    +0.000 HD
ATOM      4  H   UNL     1      -8.259   6.080 127.875  0.00  0.00    +0.000 HD
ENDBRANCH   1   2
BRANCH   1   5
ATOM      5  C   UNL     1      -6.577   4.133 127.186  0.00  0.00    +0.000 C 
BRANCH   5   6
ATOM      6  C   UNL     1      -6.234   2.793 126.432  0.00  0.00    +0.000 C 
BRANCH   6   7
ATOM      7  C   UNL     1      -5.785   3.252 125.016  0.00  0.00    +0.000 C 
ATOM      8  C   UNL     1      -6.595   2.592 123.910  0.00  0.00    +0.000 C 
ATOM      9  C   UNL     1      -5.916   4.782 124.887  0.00  0.00    +0.000 C 
ENDBRANCH   6   7
BRANCH   6  10
ATOM     10  C   UNL     1      -5.241   1.747 127.056  0.00  0.00    +0.000 C 
BRANCH  10  15
ATOM     11  C   UNL     1      -6.262  -1.841 126.458  0.00  0.00    +0.000 A 
ATOM     12  C   UNL     1      -7.333  -2.013 127.330  0.00  0.00    +0.000 A 
ATOM     13  C   UNL     1      -7.640  -0.978 128.220  0.00  0.00    +0.000 A 
ATOM     14  C   UNL     1      -6.866   0.194 128.259  0.00  0.00    +0.000 A 
ATOM     15  C   UNL     1      -5.807   0.365 127.358  0.00  0.00    +0.000 A 
ATOM     16  C   UNL     1      -5.425  -0.734 126.589  0.00  0.00    +0.000 A 
BRANCH  12  17
ATOM     17  O   UNL     1      -8.125  -3.132 127.394  0.00  0.00    +0.000 OA
ATOM     18  C   UNL     1      -8.619  -3.460 128.697  0.00  0.00    +0.000 C 
ENDBRANCH  12  17
BRANCH  11  19
ATOM     19  O   UNL     1      -6.231  -2.588 125.296  0.00  0.00    +0.000 OA
BRANCH  19  20
ATOM     20  C   UNL     1      -5.477  -2.011 124.241  0.00  0.00    +0.000 C 
BRANCH  20  21
ATOM     21  C   UNL     1      -6.163  -2.291 122.911  0.00  0.00    +0.000 C 
BRANCH  21  22
ATOM     22  C   UNL     1      -7.649  -2.020 123.067  0.00  0.00    +0.000 C 
BRANCH  22  24
ATOM     23  C   UNL     1      -8.870  -0.382 124.198  0.00  0.00    +0.000 C 
ATOM     24  O   UNL     1      -7.882  -0.623 123.201  0.00  0.00    +0.000 OA
ENDBRANCH  22  24
ENDBRANCH  21  22
ENDBRANCH  20  21
ENDBRANCH  19  20
ENDBRANCH  11  19
ENDBRANCH  10  15
ENDBRANCH   6  10
ENDBRANCH   5   6
ENDBRANCH   1   5
BRANCH   1  25
ATOM     25  C   UNL     1      -7.176   4.472 129.665  0.00  0.00    +0.000 C 
BRANCH  25  26
ATOM     26  O   UNL     1      -7.473   5.870 129.695  0.00  0.00    +0.000 OA
ATOM     27  H   UNL     1      -6.753   6.362 129.259  0.00  0.00    +0.000 HD
ENDBRANCH  25  26
BRANCH  25  28
ATOM     28  C   UNL     1      -7.870   3.663 130.767  0.00  0.00    +0.000 C 
BRANCH  28  29
ATOM     29  C   UNL     1      -9.393   3.552 130.930  0.00  0.00    +0.000 C 
BRANCH  29  30
ATOM     30  C   UNL     1      -9.952   5.003 131.242  0.00  0.00    +0.000 C 
ATOM     31  O   UNL     1      -9.476   5.775 132.045  0.00  0.00    +0.000 OA
ATOM     32  N   UNL     1     -11.052   5.364 130.492  0.00  0.00    +0.000 N 
ATOM     33  H   UNL     1     -11.325   4.768 129.732  0.00  0.00    +0.000 HD
BRANCH  32  34
ATOM     34  C   UNL     1     -11.805   6.586 130.714  0.00  0.00    +0.000 C 
BRANCH  34  35
ATOM     35  C   UNL     1     -11.987   7.443 129.443  0.00  0.00    +0.000 C 
ATOM     36  C   UNL     1     -12.911   6.711 128.451  0.00  0.00    +0.000 C 
ATOM     37  C   UNL     1     -12.612   8.810 129.784  0.00  0.00    +0.000 C 
BRANCH  35  38
ATOM     38  C   UNL     1     -10.652   7.721 128.727  0.00  0.00    +0.000 C 
ATOM     39  N   UNL     1     -10.635   7.762 127.364  0.00  0.00    +0.000 N 
ATOM     40  O   UNL     1      -9.604   7.900 129.336  0.00  0.00    +0.000 OA
ATOM     41  H   UNL     1     -11.429   7.626 126.756  0.00  0.00    +0.000 HD
ATOM     42  H   UNL     1      -9.745   7.948 126.920  0.00  0.00    +0.000 HD
ENDBRANCH  35  38
ENDBRANCH  34  35
ENDBRANCH  32  34
ENDBRANCH  29  30
BRANCH  29  43
ATOM     43  C   UNL     1      -9.760   2.523 132.032  0.00  0.00    +0.000 C 
ATOM     44  C   UNL     1      -9.340   1.112 131.684  0.00  0.00    +0.000 C 
ATOM     45  C   UNL     1      -9.033   2.716 133.357  0.00  0.00    +0.000 C 
ENDBRANCH  29  43
ENDBRANCH  28  29
ENDBRANCH  25  28
ENDBRANCH   1  25
TORSDOF 21
ENDMDL
MODEL 7
REMARK VINA RESULT:      -6.9      1.794      2.415
REMARK  Name = Aliskiren
REMARK  29 active torsions:
REMARK  status: ('A' for Active; 'I' for Inactive)
REMARK    1  A    between atoms: C_1  and  O_2
REMARK    2  A    between atoms: O_2  and  C_3
REMARK    3  A    between atoms: C_3  and  C_4
REMARK    4  A    between atoms: C_4  and  C_5
REMARK    5  A    between atoms: C_5  and  O_6
REMARK    6  A    between atoms: O_6  and  C_7
REMARK    7  A    between atoms: C_8  and  O_9
REMARK    8  A    between atoms: O_9  and  C_10
REMARK    9  A    between atoms: C_13  and  C_14
REMARK   10  A    between atoms: C_14  and  C_15
REMARK   11  A    between atoms: C_15  and  C_16
REMARK   12  A    between atoms: C_15  and  C_36
REMARK   13  A    between atoms: C_16  and  C_17
REMARK   14  A    between atoms: C_17  and  N_18
REMARK   15  A    between atoms: C_17  and  C_19
REMARK   16  A    between atoms: C_19  and  O_20
REMARK   17  A    between atoms: C_19  and  C_21
REMARK   18  A    between atoms: C_21  and  C_22
REMARK   19  A    between atoms: C_22  and  C_23
REMARK   20  A    between atoms: C_22  and  C_26
REMARK   21  A    between atoms: C_23  and  C_24
REMARK   22  A    between atoms: C_23  and  C_25
REMARK   23  A    between atoms: N_28  and  C_29
REMARK   24  A    between atoms: C_29  and  C_30
REMARK   25  A    between atoms: C_30  and  C_31
REMARK   26  A    between atoms: C_30  and  C_32
REMARK   27  A    between atoms: C_30  and  C_33
REMARK   28  A    between atoms: C_36  and  C_37
REMARK   29  A    between atoms: C_36  and  C_38
REMARK                            x       y       z     vdW  Elec       q    Type
REMARK                         _______ _______ _______ _____ _____    ______ ____
ROOT
ATOM      1  C   UNL     1      -8.292   0.220 131.062  0.00  0.00    +0.000 C 
ENDROOT
BRANCH   1   2
ATOM      2  N   UNL     1      -8.210   0.790 129.689  0.00  0.00    +0.000 NA
ATOM      3  H   UNL     1      -9.070   1.286 129.478  0.00  0.00    +0.000 HD
ATOM      4  H   UNL     1      -8.273  -0.053 129.091  0.00  0.00    +0.000 HD
ENDBRANCH   1   2
BRANCH   1   5
ATOM      5  C   UNL     1      -7.520  -1.049 131.245  0.00  0.00    +0.000 C 
BRANCH   5   6
ATOM      6  C   UNL     1      -7.080  -1.961 130.038  0.00  0.00    +0.000 C 
BRANCH   6   7
ATOM      7  C   UNL     1      -5.749  -2.610 130.512  0.00  0.00    +0.000 C 
ATOM      8  C   UNL     1      -5.826  -4.129 130.548  0.00  0.00    +0.000 C 
ATOM      9  C   UNL     1      -4.593  -2.189 129.584  0.00  0.00    +0.000 C 
ENDBRANCH   6   7
BRANCH   6  10
ATOM     10  C   UNL     1      -8.067  -3.019 129.425  0.00  0.00    +0.000 C 
BRANCH  10  15
ATOM     11  C   UNL     1      -7.883  -1.721 125.881  0.00  0.00    +0.000 A 
ATOM     12  C   UNL     1      -8.947  -2.364 125.254  0.00  0.00    +0.000 A 
ATOM     13  C   UNL     1      -9.653  -3.336 125.972  0.00  0.00    +0.000 A 
ATOM     14  C   UNL     1      -9.278  -3.682 127.281  0.00  0.00    +0.000 A 
ATOM     15  C   UNL     1      -8.222  -3.008 127.909  0.00  0.00    +0.000 A 
ATOM     16  C   UNL     1      -7.440  -2.157 127.129  0.00  0.00    +0.000 A 
BRANCH  12  17
ATOM     17  O   UNL     1      -9.366  -2.123 123.971  0.00  0.00    +0.000 OA
ATOM     18  C   UNL     1      -8.475  -2.566 122.941  0.00  0.00    +0.000 C 
ENDBRANCH  12  17
BRANCH  11  19
ATOM     19  O   UNL     1      -7.493  -0.481 125.412  0.00  0.00    +0.000 OA
BRANCH  19  20
ATOM     20  C   UNL     1      -7.907   0.612 126.217  0.00  0.00    +0.000 C 
BRANCH  20  21
ATOM     21  C   UNL     1      -9.397   0.856 126.020  0.00  0.00    +0.000 C 
BRANCH  21  22
ATOM     22  C   UNL     1      -9.594   1.619 124.722  0.00  0.00    +0.000 C 
BRANCH  22  24
ATOM     23  C   UNL     1     -10.178   0.847 122.597  0.00  0.00    +0.000 C 
ATOM     24  O   UNL     1     -10.615   1.008 123.943  0.00  0.00    +0.000 OA
ENDBRANCH  22  24
ENDBRANCH  21  22
ENDBRANCH  20  21
ENDBRANCH  19  20
ENDBRANCH  11  19
ENDBRANCH  10  15
ENDBRANCH   6  10
ENDBRANCH   5   6
ENDBRANCH   1   5
BRANCH   1  25
ATOM     25  C   UNL     1      -8.053   1.324 132.083  0.00  0.00    +0.000 C 
BRANCH  25  26
ATOM     26  O   UNL     1      -7.197   2.125 131.263  0.00  0.00    +0.000 OA
ATOM     27  H   UNL     1      -6.330   1.689 131.181  0.00  0.00    +0.000 HD
ENDBRANCH  25  26
BRANCH  25  28
ATOM     28  C   UNL     1      -9.291   2.065 132.603  0.00  0.00    +0.000 C 
BRANCH  28  29
ATOM     29  C   UNL     1      -9.467   3.590 132.565  0.00  0.00    +0.000 C 
BRANCH  29  30
ATOM     30  C   UNL     1      -9.905   3.989 131.094  0.00  0.00    +0.000 C 
ATOM     31  O   UNL     1      -9.316   3.677 130.083  0.00  0.00    +0.000 OA
ATOM     32  N   UNL     1     -11.068   4.728 131.026  0.00  0.00    +0.000 N 
ATOM     33  H   UNL     1     -11.612   4.836 131.863  0.00  0.00    +0.000 HD
BRANCH  32  34
ATOM     34  C   UNL     1     -11.572   5.316 129.797  0.00  0.00    +0.000 C 
BRANCH  34  35
ATOM     35  C   UNL     1     -11.500   6.857 129.770  0.00  0.00    +0.000 C 
ATOM     36  C   UNL     1     -12.455   7.440 130.828  0.00  0.00    +0.000 C 
ATOM     37  C   UNL     1     -10.071   7.349 130.069  0.00  0.00    +0.000 C 
BRANCH  35  38
ATOM     38  C   UNL     1     -11.901   7.438 128.400  0.00  0.00    +0.000 C 
ATOM     39  N   UNL     1     -11.700   8.766 128.168  0.00  0.00    +0.000 N 
ATOM     40  O   UNL     1     -12.400   6.752 127.516  0.00  0.00    +0.000 OA
ATOM     41  H   UNL     1     -11.304   9.430 128.817  0.00  0.00    +0.000 HD
ATOM     42  H   UNL     1     -11.972   9.121 127.259  0.00  0.00    +0.000 HD
ENDBRANCH  35  38
ENDBRANCH  34  35
ENDBRANCH  32  34
ENDBRANCH  29  30
BRANCH  29  43
ATOM     43  C   UNL     1      -8.168   4.309 133.015  0.00  0.00    +0.000 C 
ATOM     44  C   UNL     1      -8.250   5.814 132.879  0.00  0.00    +0.000 C 
ATOM     45  C   UNL     1      -7.844   4.177 134.498  0.00  0.00    +0.000 C 
ENDBRANCH  29  43
ENDBRANCH  28  29
ENDBRANCH  25  28
ENDBRANCH   1  25
TORSDOF 21
ENDMDL
MODEL 8
REMARK VINA RESULT:      -6.9      1.699      2.142
REMARK  Name = Aliskiren
REMARK  29 active torsions:
REMARK  status: ('A' for Active; 'I' for Inactive)
REMARK    1  A    between atoms: C_1  and  O_2
REMARK    2  A    between atoms: O_2  and  C_3
REMARK    3  A    between atoms: C_3  and  C_4
REMARK    4  A    between atoms: C_4  and  C_5
REMARK    5  A    between atoms: C_5  and  O_6
REMARK    6  A    between atoms: O_6  and  C_7
REMARK    7  A    between atoms: C_8  and  O_9
REMARK    8  A    between atoms: O_9  and  C_10
REMARK    9  A    between atoms: C_13  and  C_14
REMARK   10  A    between atoms: C_14  and  C_15
REMARK   11  A    between atoms: C_15  and  C_16
REMARK   12  A    between atoms: C_15  and  C_36
REMARK   13  A    between atoms: C_16  and  C_17
REMARK   14  A    between atoms: C_17  and  N_18
REMARK   15  A    between atoms: C_17  and  C_19
REMARK   16  A    between atoms: C_19  and  O_20
REMARK   17  A    between atoms: C_19  and  C_21
REMARK   18  A    between atoms: C_21  and  C_22
REMARK   19  A    between atoms: C_22  and  C_23
REMARK   20  A    between atoms: C_22  and  C_26
REMARK   21  A    between atoms: C_23  and  C_24
REMARK   22  A    between atoms: C_23  and  C_25
REMARK   23  A    between atoms: N_28  and  C_29
REMARK   24  A    between atoms: C_29  and  C_30
REMARK   25  A    between atoms: C_30  and  C_31
REMARK   26  A    between atoms: C_30  and  C_32
REMARK   27  A    between atoms: C_30  and  C_33
REMARK   28  A    between atoms: C_36  and  C_37
REMARK   29  A    between atoms: C_36  and  C_38
REMARK                            x       y       z     vdW  Elec       q    Type
REMARK                         _______ _______ _______ _____ _____    ______ ____
ROOT
ATOM      1  C   UNL     1      -7.845   0.504 131.142  0.00  0.00    +0.000 C 
ENDROOT
BRANCH   1   2
ATOM      2  N   UNL     1      -6.705   0.801 132.052  0.00  0.00    +0.000 NA
ATOM      3  H   UNL     1      -6.868   0.360 132.952  0.00  0.00    +0.000 HD
ATOM      4  H   UNL     1      -6.836   1.808 132.258  0.00  0.00    +0.000 HD
ENDBRANCH   1   2
BRANCH   1   5
ATOM      5  C   UNL     1      -8.260  -0.933 131.129  0.00  0.00    +0.000 C 
BRANCH   5   6
ATOM      6  C   UNL     1      -7.455  -2.047 130.360  0.00  0.00    +0.000 C 
BRANCH   6   7
ATOM      7  C   UNL     1      -6.571  -2.709 131.455  0.00  0.00    +0.000 C 
ATOM      8  C   UNL     1      -7.337  -2.952 132.747  0.00  0.00    +0.000 C 
ATOM      9  C   UNL     1      -6.010  -4.050 130.945  0.00  0.00    +0.000 C 
ENDBRANCH   6   7
BRANCH   6  10
ATOM     10  C   UNL     1      -8.197  -3.114 129.475  0.00  0.00    +0.000 C 
BRANCH  10  15
ATOM     11  C   UNL     1      -8.091  -1.129 126.262  0.00  0.00    +0.000 A 
ATOM     12  C   UNL     1      -8.945  -1.840 125.424  0.00  0.00    +0.000 A 
ATOM     13  C   UNL     1      -9.461  -3.059 125.878  0.00  0.00    +0.000 A 
ATOM     14  C   UNL     1      -9.098  -3.574 127.135  0.00  0.00    +0.000 A 
ATOM     15  C   UNL     1      -8.258  -2.834 127.979  0.00  0.00    +0.000 A 
ATOM     16  C   UNL     1      -7.638  -1.703 127.449  0.00  0.00    +0.000 A 
BRANCH  12  17
ATOM     17  O   UNL     1      -9.329  -1.442 124.169  0.00  0.00    +0.000 OA
ATOM     18  C   UNL     1      -8.383  -1.702 123.126  0.00  0.00    +0.000 C 
ENDBRANCH  12  17
BRANCH  11  19
ATOM     19  O   UNL     1      -7.958   0.232 126.067  0.00  0.00    +0.000 OA
BRANCH  19  20
ATOM     20  C   UNL     1      -8.247   1.024 127.208  0.00  0.00    +0.000 C 
BRANCH  20  21
ATOM     21  C   UNL     1      -7.926   2.483 126.911  0.00  0.00    +0.000 C 
BRANCH  21  22
ATOM     22  C   UNL     1      -6.418   2.642 126.848  0.00  0.00    +0.000 C 
BRANCH  22  24
ATOM     23  C   UNL     1      -4.836   3.797 125.575  0.00  0.00    +0.000 C 
ATOM     24  O   UNL     1      -6.016   2.999 125.532  0.00  0.00    +0.000 OA
ENDBRANCH  22  24
ENDBRANCH  21  22
ENDBRANCH  20  21
ENDBRANCH  19  20
ENDBRANCH  11  19
ENDBRANCH  10  15
ENDBRANCH   6  10
ENDBRANCH   5   6
ENDBRANCH   1   5
BRANCH   1  25
ATOM     25  C   UNL     1      -8.944   1.537 131.356  0.00  0.00    +0.000 C 
BRANCH  25  26
ATOM     26  O   UNL     1      -8.669   1.787 132.737  0.00  0.00    +0.000 OA
ATOM     27  H   UNL     1      -9.159   1.146 133.284  0.00  0.00    +0.000 HD
ENDBRANCH  25  26
BRANCH  25  28
ATOM     28  C   UNL     1      -8.897   2.790 130.473  0.00  0.00    +0.000 C 
BRANCH  28  29
ATOM     29  C   UNL     1      -9.357   4.184 130.924  0.00  0.00    +0.000 C 
BRANCH  29  30
ATOM     30  C   UNL     1     -10.842   4.393 130.408  0.00  0.00    +0.000 C 
ATOM     31  O   UNL     1     -11.615   3.503 130.132  0.00  0.00    +0.000 OA
ATOM     32  N   UNL     1     -11.231   5.712 130.309  0.00  0.00    +0.000 N 
ATOM     33  H   UNL     1     -10.625   6.416 130.691  0.00  0.00    +0.000 HD
BRANCH  32  34
ATOM     34  C   UNL     1     -12.494   6.133 129.727  0.00  0.00    +0.000 C 
BRANCH  34  35
ATOM     35  C   UNL     1     -12.389   7.416 128.876  0.00  0.00    +0.000 C 
ATOM     36  C   UNL     1     -13.479   7.406 127.787  0.00  0.00    +0.000 C 
ATOM     37  C   UNL     1     -12.571   8.673 129.747  0.00  0.00    +0.000 C 
BRANCH  35  38
ATOM     38  C   UNL     1     -11.023   7.543 128.175  0.00  0.00    +0.000 C 
ATOM     39  N   UNL     1     -10.434   8.771 128.107  0.00  0.00    +0.000 N 
ATOM     40  O   UNL     1     -10.449   6.585 127.672  0.00  0.00    +0.000 OA
ATOM     41  H   UNL     1     -10.810   9.632 128.478  0.00  0.00    +0.000 HD
ATOM     42  H   UNL     1      -9.536   8.827 127.642  0.00  0.00    +0.000 HD
ENDBRANCH  35  38
ENDBRANCH  34  35
ENDBRANCH  32  34
ENDBRANCH  29  30
BRANCH  29  43
ATOM     43  C   UNL     1      -8.388   5.281 130.411  0.00  0.00    +0.000 C 
ATOM     44  C   UNL     1      -7.974   6.255 131.493  0.00  0.00    +0.000 C 
ATOM     45  C   UNL     1      -7.027   4.771 129.953  0.00  0.00    +0.000 C 
ENDBRANCH  29  43
ENDBRANCH  28  29
ENDBRANCH  25  28
ENDBRANCH   1  25
TORSDOF 21
ENDMDL
MODEL 9
REMARK VINA RESULT:      -6.9      1.847      2.214
REMARK  Name = Aliskiren
REMARK  29 active torsions:
REMARK  status: ('A' for Active; 'I' for Inactive)
REMARK    1  A    between atoms: C_1  and  O_2
REMARK    2  A    between atoms: O_2  and  C_3
REMARK    3  A    between atoms: C_3  and  C_4
REMARK    4  A    between atoms: C_4  and  C_5
REMARK    5  A    between atoms: C_5  and  O_6
REMARK    6  A    between atoms: O_6  and  C_7
REMARK    7  A    between atoms: C_8  and  O_9
REMARK    8  A    between atoms: O_9  and  C_10
REMARK    9  A    between atoms: C_13  and  C_14
REMARK   10  A    between atoms: C_14  and  C_15
REMARK   11  A    between atoms: C_15  and  C_16
REMARK   12  A    between atoms: C_15  and  C_36
REMARK   13  A    between atoms: C_16  and  C_17
REMARK   14  A    between atoms: C_17  and  N_18
REMARK   15  A    between atoms: C_17  and  C_19
REMARK   16  A    between atoms: C_19  and  O_20
REMARK   17  A    between atoms: C_19  and  C_21
REMARK   18  A    between atoms: C_21  and  C_22
REMARK   19  A    between atoms: C_22  and  C_23
REMARK   20  A    between atoms: C_22  and  C_26
REMARK   21  A    between atoms: C_23  and  C_24
REMARK   22  A    between atoms: C_23  and  C_25
REMARK   23  A    between atoms: N_28  and  C_29
REMARK   24  A    between atoms: C_29  and  C_30
REMARK   25  A    between atoms: C_30  and  C_31
REMARK   26  A    between atoms: C_30  and  C_32
REMARK   27  A    between atoms: C_30  and  C_33
REMARK   28  A    between atoms: C_36  and  C_37
REMARK   29  A    between atoms: C_36  and  C_38
REMARK                            x       y       z     vdW  Elec       q    Type
REMARK                         _______ _______ _______ _____ _____    ______ ____
ROOT
ATOM      1  C   UNL     1      -8.201   3.003 129.196  0.00  0.00    +0.000 C 
ENDROOT
BRANCH   1   2
ATOM      2  N   UNL     1      -8.578   2.781 127.773  0.00  0.00    +0.000 NA
ATOM      3  H   UNL     1      -8.183   3.519 127.200  0.00  0.00    +0.000 HD
ATOM      4  H   UNL     1      -9.591   3.000 127.772  0.00  0.00    +0.000 HD
ENDBRANCH   1   2
BRANCH   1   5
ATOM      5  C   UNL     1      -7.183   2.038 129.717  0.00  0.00    +0.000 C 
BRANCH   5   6
ATOM      6  C   UNL     1      -6.489   0.956 128.807  0.00  0.00    +0.000 C 
BRANCH   6   7
ATOM      7  C   UNL     1      -4.989   1.014 129.215  0.00  0.00    +0.000 C 
ATOM      8  C   UNL     1      -4.439   2.432 129.196  0.00  0.00    +0.000 C 
ATOM      9  C   UNL     1      -4.799   0.422 130.624  0.00  0.00    +0.000 C 
ENDBRANCH   6   7
BRANCH   6  10
ATOM     10  C   UNL     1      -7.029  -0.519 128.753  0.00  0.00    +0.000 C 
BRANCH  10  15
ATOM     11  C   UNL     1      -8.152  -0.421 125.146  0.00  0.00    +0.000 A 
ATOM     12  C   UNL     1      -8.879  -1.600 125.010  0.00  0.00    +0.000 A 
ATOM     13  C   UNL     1      -8.890  -2.502 126.080  0.00  0.00    +0.000 A 
ATOM     14  C   UNL     1      -8.158  -2.243 127.251  0.00  0.00    +0.000 A 
ATOM     15  C   UNL     1      -7.452  -1.040 127.384  0.00  0.00    +0.000 A 
ATOM     16  C   UNL     1      -7.329  -0.231 126.256  0.00  0.00    +0.000 A 
BRANCH  12  17
ATOM     17  O   UNL     1      -9.594  -1.960 123.896  0.00  0.00    +0.000 OA
ATOM     18  C   UNL     1      -9.493  -3.338 123.521  0.00  0.00    +0.000 C 
ENDBRANCH  12  17
BRANCH  11  19
ATOM     19  O   UNL     1      -8.493   0.659 124.355  0.00  0.00    +0.000 OA
BRANCH  19  20
ATOM     20  C   UNL     1      -7.580   1.744 124.408  0.00  0.00    +0.000 C 
BRANCH  20  21
ATOM     21  C   UNL     1      -7.953   2.777 123.354  0.00  0.00    +0.000 C 
BRANCH  21  22
ATOM     22  C   UNL     1      -6.678   3.396 122.810  0.00  0.00    +0.000 C 
BRANCH  22  24
ATOM     23  C   UNL     1      -5.463   3.613 120.828  0.00  0.00    +0.000 C 
ATOM     24  O   UNL     1      -6.766   3.544 121.399  0.00  0.00    +0.000 OA
ENDBRANCH  22  24
ENDBRANCH  21  22
ENDBRANCH  20  21
ENDBRANCH  19  20
ENDBRANCH  11  19
ENDBRANCH  10  15
ENDBRANCH   6  10
ENDBRANCH   5   6
ENDBRANCH   1   5
BRANCH   1  25
ATOM     25  C   UNL     1      -7.925   4.484 129.420  0.00  0.00    +0.000 C 
BRANCH  25  26
ATOM     26  O   UNL     1      -8.644   4.960 128.280  0.00  0.00    +0.000 OA
ATOM     27  H   UNL     1      -9.410   5.484 128.578  0.00  0.00    +0.000 HD
ENDBRANCH  25  26
BRANCH  25  28
ATOM     28  C   UNL     1      -8.397   5.082 130.751  0.00  0.00    +0.000 C 
BRANCH  28  29
ATOM     29  C   UNL     1      -9.644   4.614 131.515  0.00  0.00    +0.000 C 
BRANCH  29  30
ATOM     30  C   UNL     1     -10.649   5.839 131.597  0.00  0.00    +0.000 C 
ATOM     31  O   UNL     1     -10.734   6.609 132.527  0.00  0.00    +0.000 OA
ATOM     32  N   UNL     1     -11.442   6.001 130.481  0.00  0.00    +0.000 N 
ATOM     33  H   UNL     1     -11.240   5.445 129.669  0.00  0.00    +0.000 HD
BRANCH  32  34
ATOM     34  C   UNL     1     -12.523   6.968 130.401  0.00  0.00    +0.000 C 
BRANCH  34  35
ATOM     35  C   UNL     1     -12.577   7.732 129.061  0.00  0.00    +0.000 C 
ATOM     36  C   UNL     1     -13.678   7.132 128.166  0.00  0.00    +0.000 C 
ATOM     37  C   UNL     1     -12.883   9.225 129.288  0.00  0.00    +0.000 C 
BRANCH  35  38
ATOM     38  C   UNL     1     -11.246   7.654 128.288  0.00  0.00    +0.000 C 
ATOM     39  N   UNL     1     -10.497   8.785 128.159  0.00  0.00    +0.000 N 
ATOM     40  O   UNL     1     -10.840   6.615 127.782  0.00  0.00    +0.000 OA
ATOM     41  H   UNL     1     -10.729   9.696 128.526  0.00  0.00    +0.000 HD
ATOM     42  H   UNL     1      -9.626   8.705 127.648  0.00  0.00    +0.000 HD
ENDBRANCH  35  38
ENDBRANCH  34  35
ENDBRANCH  32  34
ENDBRANCH  29  30
BRANCH  29  43
ATOM     43  C   UNL     1      -9.264   4.062 132.915  0.00  0.00    +0.000 C 
ATOM     44  C   UNL     1      -9.208   2.551 132.957  0.00  0.00    +0.000 C 
ATOM     45  C   UNL     1      -7.855   4.411 133.379  0.00  0.00    +0.000 C 
ENDBRANCH  29  43
ENDBRANCH  28  29
ENDBRANCH  25  28
ENDBRANCH   1  25
TORSDOF 21
ENDMDL
