MODEL 1
REMARK VINA RESULT:      -7.5      0.000      0.000
REMARK  Name = Alitretinoin
REMARK  11 active torsions:
REMARK  status: ('A' for Active; 'I' for Inactive)
REMARK    1  A    between atoms: C_1  and  C_2
REMARK    2  A    between atoms: C_2  and  C_3
REMARK    3  A    between atoms: C_4  and  C_5
REMARK    4  A    between atoms: C_6  and  C_7
REMARK    5  A    between atoms: C_11  and  C_12
REMARK    6  A    between atoms: C_11  and  C_13
REMARK    7  A    between atoms: C_14  and  C_15
REMARK    8  A    between atoms: C_16  and  C_17
REMARK    9  A    between atoms: C_17  and  C_18
REMARK   10  A    between atoms: C_19  and  C_20
REMARK   11  A    between atoms: C_20  and  O_21
REMARK                            x       y       z     vdW  Elec       q    Type
REMARK                         _______ _______ _______ _____ _____    ______ ____
ROOT
ATOM      1  C   UNL     1      -4.215  -4.408 123.603  0.00  0.00    +0.000 C 
ATOM      2  C   UNL     1      -5.217  -3.314 123.884  0.00  0.00    +0.000 C 
ATOM      3  C   UNL     1      -5.558  -2.475 122.872  0.00  0.00    +0.000 C 
ENDROOT
BRANCH   2   4
ATOM      4  C   UNL     1      -5.779  -3.213 125.233  0.00  0.00    +0.000 C 
ATOM      5  C   UNL     1      -5.591  -2.252 126.150  0.00  0.00    +0.000 C 
BRANCH   5   6
ATOM      6  C   UNL     1      -6.206  -2.290 127.478  0.00  0.00    +0.000 C 
ATOM      7  C   UNL     1      -5.541  -2.749 128.568  0.00  0.00    +0.000 C 
ATOM      8  C   UNL     1      -4.078  -3.124 128.602  0.00  0.00    +0.000 C 
ATOM      9  C   UNL     1      -6.211  -2.932 129.912  0.00  0.00    +0.000 C 
ATOM     10  C   UNL     1      -7.729  -2.822 129.872  0.00  0.00    +0.000 C 
ATOM     11  C   UNL     1      -8.137  -1.628 129.027  0.00  0.00    +0.000 C 
ATOM     12  C   UNL     1      -7.657  -1.766 127.555  0.00  0.00    +0.000 C 
ATOM     13  C   UNL     1      -7.804  -0.363 126.919  0.00  0.00    +0.000 C 
ATOM     14  C   UNL     1      -8.590  -2.742 126.809  0.00  0.00    +0.000 C 
ENDBRANCH   5   6
ENDBRANCH   2   4
BRANCH   3  15
ATOM     15  C   UNL     1      -6.514  -1.392 122.977  0.00  0.00    +0.000 C 
ATOM     16  C   UNL     1      -7.856  -1.424 122.915  0.00  0.00    +0.000 C 
BRANCH  16  17
ATOM     17  C   UNL     1      -8.698  -0.216 123.038  0.00  0.00    +0.000 C 
ATOM     18  C   UNL     1     -10.122  -0.280 122.562  0.00  0.00    +0.000 C 
ATOM     19  C   UNL     1      -8.208   0.928 123.567  0.00  0.00    +0.000 C 
BRANCH  19  20
ATOM     20  C   UNL     1      -8.835   2.259 123.800  0.00  0.00    +0.000 C 
ATOM     21  O   UNL     1      -8.559   3.199 123.060  0.00  0.00    +0.000 OA
BRANCH  20  22
ATOM     22  O   UNL     1      -9.698   2.437 124.810  0.00  0.00    +0.000 OA
ATOM     23  H   UNL     1      -9.619   3.196 125.402  0.00  0.00    +0.000 HD
ENDBRANCH  20  22
ENDBRANCH  19  20
ENDBRANCH  16  17
ENDBRANCH   3  15
TORSDOF 6
ENDMDL
MODEL 2
REMARK VINA RESULT:      -7.2      1.096      2.252
REMARK  Name = Alitretinoin
REMARK  11 active torsions:
REMARK  status: ('A' for Active; 'I' for Inactive)
REMARK    1  A    between atoms: C_1  and  C_2
REMARK    2  A    between atoms: C_2  and  C_3
REMARK    3  A    between atoms: C_4  and  C_5
REMARK    4  A    between atoms: C_6  and  C_7
REMARK    5  A    between atoms: C_11  and  C_12
REMARK    6  A    between atoms: C_11  and  C_13
REMARK    7  A    between atoms: C_14  and  C_15
REMARK    8  A    between atoms: C_16  and  C_17
REMARK    9  A    between atoms: C_17  and  C_18
REMARK   10  A    between atoms: C_19  and  C_20
REMARK   11  A    between atoms: C_20  and  O_21
REMARK                            x       y       z     vdW  Elec       q    Type
REMARK                         _______ _______ _______ _____ _____    ______ ____
ROOT
ATOM      1  C   UNL     1      -4.855  -4.133 124.354  0.00  0.00    +0.000 C 
ATOM      2  C   UNL     1      -5.641  -2.846 124.415  0.00  0.00    +0.000 C 
ATOM      3  C   UNL     1      -5.980  -2.241 123.248  0.00  0.00    +0.000 C 
ENDROOT
BRANCH   2   4
ATOM      4  C   UNL     1      -6.005  -2.313 125.730  0.00  0.00    +0.000 C 
ATOM      5  C   UNL     1      -7.192  -2.358 126.355  0.00  0.00    +0.000 C 
BRANCH   5   6
ATOM      6  C   UNL     1      -7.419  -1.761 127.672  0.00  0.00    +0.000 C 
ATOM      7  C   UNL     1      -7.526  -0.420 127.847  0.00  0.00    +0.000 C 
ATOM      8  C   UNL     1      -7.582   0.602 126.737  0.00  0.00    +0.000 C 
ATOM      9  C   UNL     1      -7.612   0.217 129.217  0.00  0.00    +0.000 C 
ATOM     10  C   UNL     1      -7.298  -0.731 130.366  0.00  0.00    +0.000 C 
ATOM     11  C   UNL     1      -8.006  -2.058 130.148  0.00  0.00    +0.000 C 
ATOM     12  C   UNL     1      -7.537  -2.760 128.844  0.00  0.00    +0.000 C 
ATOM     13  C   UNL     1      -8.571  -3.875 128.558  0.00  0.00    +0.000 C 
ATOM     14  C   UNL     1      -6.163  -3.418 129.091  0.00  0.00    +0.000 C 
ENDBRANCH   5   6
ENDBRANCH   2   4
BRANCH   3  15
ATOM     15  C   UNL     1      -6.745  -1.017 123.139  0.00  0.00    +0.000 C 
ATOM     16  C   UNL     1      -8.077  -0.832 123.158  0.00  0.00    +0.000 C 
BRANCH  16  17
ATOM     17  C   UNL     1      -8.709   0.498 123.030  0.00  0.00    +0.000 C 
ATOM     18  C   UNL     1     -10.155   0.571 122.625  0.00  0.00    +0.000 C 
ATOM     19  C   UNL     1      -8.011   1.630 123.271  0.00  0.00    +0.000 C 
BRANCH  19  20
ATOM     20  C   UNL     1      -8.405   3.066 123.215  0.00  0.00    +0.000 C 
ATOM     21  O   UNL     1      -8.604   3.683 124.258  0.00  0.00    +0.000 OA
BRANCH  20  22
ATOM     22  O   UNL     1      -8.544   3.688 122.037  0.00  0.00    +0.000 OA
ATOM     23  H   UNL     1      -8.430   4.644 121.963  0.00  0.00    +0.000 HD
ENDBRANCH  20  22
ENDBRANCH  19  20
ENDBRANCH  16  17
ENDBRANCH   3  15
TORSDOF 6
ENDMDL
MODEL 3
REMARK VINA RESULT:      -7.1      0.724      2.153
REMARK  Name = Alitretinoin
REMARK  11 active torsions:
REMARK  status: ('A' for Active; 'I' for Inactive)
REMARK    1  A    between atoms: C_1  and  C_2
REMARK    2  A    between atoms: C_2  and  C_3
REMARK    3  A    between atoms: C_4  and  C_5
REMARK    4  A    between atoms: C_6  and  C_7
REMARK    5  A    between atoms: C_11  and  C_12
REMARK    6  A    between atoms: C_11  and  C_13
REMARK    7  A    between atoms: C_14  and  C_15
REMARK    8  A    between atoms: C_16  and  C_17
REMARK    9  A    between atoms: C_17  and  C_18
REMARK   10  A    between atoms: C_19  and  C_20
REMARK   11  A    between atoms: C_20  and  O_21
REMARK                            x       y       z     vdW  Elec       q    Type
REMARK                         _______ _______ _______ _____ _____    ______ ____
ROOT
ATOM      1  C   UNL     1      -4.118  -4.414 123.550  0.00  0.00    +0.000 C 
ATOM      2  C   UNL     1      -5.148  -3.358 123.867  0.00  0.00    +0.000 C 
ATOM      3  C   UNL     1      -5.458  -2.449 122.907  0.00  0.00    +0.000 C 
ENDROOT
BRANCH   2   4
ATOM      4  C   UNL     1      -5.770  -3.367 125.193  0.00  0.00    +0.000 C 
ATOM      5  C   UNL     1      -5.868  -2.366 126.081  0.00  0.00    +0.000 C 
BRANCH   5   6
ATOM      6  C   UNL     1      -6.506  -2.523 127.390  0.00  0.00    +0.000 C 
ATOM      7  C   UNL     1      -7.808  -2.878 127.518  0.00  0.00    +0.000 C 
ATOM      8  C   UNL     1      -8.712  -3.301 126.384  0.00  0.00    +0.000 C 
ATOM      9  C   UNL     1      -8.518  -2.899 128.854  0.00  0.00    +0.000 C 
ATOM     10  C   UNL     1      -7.740  -2.236 129.983  0.00  0.00    +0.000 C 
ATOM     11  C   UNL     1      -6.288  -2.678 129.937  0.00  0.00    +0.000 C 
ATOM     12  C   UNL     1      -5.595  -2.264 128.610  0.00  0.00    +0.000 C 
ATOM     13  C   UNL     1      -4.279  -3.075 128.537  0.00  0.00    +0.000 C 
ATOM     14  C   UNL     1      -5.242  -0.764 128.671  0.00  0.00    +0.000 C 
ENDBRANCH   5   6
ENDBRANCH   2   4
BRANCH   3  15
ATOM     15  C   UNL     1      -6.435  -1.390 123.050  0.00  0.00    +0.000 C 
ATOM     16  C   UNL     1      -7.775  -1.443 122.970  0.00  0.00    +0.000 C 
BRANCH  16  17
ATOM     17  C   UNL     1      -8.641  -0.257 123.137  0.00  0.00    +0.000 C 
ATOM     18  C   UNL     1     -10.002  -0.264 122.500  0.00  0.00    +0.000 C 
ATOM     19  C   UNL     1      -8.228   0.816 123.849  0.00  0.00    +0.000 C 
BRANCH  19  20
ATOM     20  C   UNL     1      -8.894   2.111 124.164  0.00  0.00    +0.000 C 
ATOM     21  O   UNL     1      -9.475   2.251 125.237  0.00  0.00    +0.000 OA
BRANCH  20  22
ATOM     22  O   UNL     1      -8.866   3.122 123.285  0.00  0.00    +0.000 OA
ATOM     23  H   UNL     1      -8.652   4.020 123.568  0.00  0.00    +0.000 HD
ENDBRANCH  20  22
ENDBRANCH  19  20
ENDBRANCH  16  17
ENDBRANCH   3  15
TORSDOF 6
ENDMDL
MODEL 4
REMARK VINA RESULT:      -7.0      2.174      3.299
REMARK  Name = Alitretinoin
REMARK  11 active torsions:
REMARK  status: ('A' for Active; 'I' for Inactive)
REMARK    1  A    between atoms: C_1  and  C_2
REMARK    2  A    between atoms: C_2  and  C_3
REMARK    3  A    between atoms: C_4  and  C_5
REMARK    4  A    between atoms: C_6  and  C_7
REMARK    5  A    between atoms: C_11  and  C_12
REMARK    6  A    between atoms: C_11  and  C_13
REMARK    7  A    between atoms: C_14  and  C_15
REMARK    8  A    between atoms: C_16  and  C_17
REMARK    9  A    between atoms: C_17  and  C_18
REMARK   10  A    between atoms: C_19  and  C_20
REMARK   11  A    between atoms: C_20  and  O_21
REMARK                            x       y       z     vdW  Elec       q    Type
REMARK                         _______ _______ _______ _____ _____    ______ ____
ROOT
ATOM      1  C   UNL     1      -9.737  -3.510 123.295  0.00  0.00    +0.000 C 
ATOM      2  C   UNL     1      -8.789  -2.440 123.779  0.00  0.00    +0.000 C 
ATOM      3  C   UNL     1      -8.534  -1.385 122.962  0.00  0.00    +0.000 C 
ENDROOT
BRANCH   2   4
ATOM      4  C   UNL     1      -8.193  -2.586 125.109  0.00  0.00    +0.000 C 
ATOM      5  C   UNL     1      -8.635  -2.113 126.285  0.00  0.00    +0.000 C 
BRANCH   5   6
ATOM      6  C   UNL     1      -7.921  -2.322 127.545  0.00  0.00    +0.000 C 
ATOM      7  C   UNL     1      -8.308  -3.259 128.446  0.00  0.00    +0.000 C 
ATOM      8  C   UNL     1      -9.390  -4.289 128.223  0.00  0.00    +0.000 C 
ATOM      9  C   UNL     1      -7.672  -3.384 129.813  0.00  0.00    +0.000 C 
ATOM     10  C   UNL     1      -6.769  -2.218 130.189  0.00  0.00    +0.000 C 
ATOM     11  C   UNL     1      -5.874  -1.859 129.015  0.00  0.00    +0.000 C 
ATOM     12  C   UNL     1      -6.696  -1.410 127.775  0.00  0.00    +0.000 C 
ATOM     13  C   UNL     1      -5.718  -1.436 126.576  0.00  0.00    +0.000 C 
ATOM     14  C   UNL     1      -7.175   0.041 127.984  0.00  0.00    +0.000 C 
ENDBRANCH   5   6
ENDBRANCH   2   4
BRANCH   3  15
ATOM     15  C   UNL     1      -7.666  -0.273 123.288  0.00  0.00    +0.000 C 
ATOM     16  C   UNL     1      -7.980   0.988 123.630  0.00  0.00    +0.000 C 
BRANCH  16  17
ATOM     17  C   UNL     1      -6.964   2.018 123.932  0.00  0.00    +0.000 C 
ATOM     18  C   UNL     1      -6.112   1.850 125.159  0.00  0.00    +0.000 C 
ATOM     19  C   UNL     1      -6.794   3.091 123.127  0.00  0.00    +0.000 C 
BRANCH  19  20
ATOM     20  C   UNL     1      -5.859   4.248 123.205  0.00  0.00    +0.000 C 
ATOM     21  O   UNL     1      -4.978   4.376 122.358  0.00  0.00    +0.000 OA
BRANCH  20  22
ATOM     22  O   UNL     1      -5.971   5.149 124.190  0.00  0.00    +0.000 OA
ATOM     23  H   UNL     1      -5.960   4.877 125.116  0.00  0.00    +0.000 HD
ENDBRANCH  20  22
ENDBRANCH  19  20
ENDBRANCH  16  17
ENDBRANCH   3  15
TORSDOF 6
ENDMDL
MODEL 5
REMARK VINA RESULT:      -6.8      3.586      5.191
REMARK  Name = Alitretinoin
REMARK  11 active torsions:
REMARK  status: ('A' for Active; 'I' for Inactive)
REMARK    1  A    between atoms: C_1  and  C_2
REMARK    2  A    between atoms: C_2  and  C_3
REMARK    3  A    between atoms: C_4  and  C_5
REMARK    4  A    between atoms: C_6  and  C_7
REMARK    5  A    between atoms: C_11  and  C_12
REMARK    6  A    between atoms: C_11  and  C_13
REMARK    7  A    between atoms: C_14  and  C_15
REMARK    8  A    between atoms: C_16  and  C_17
REMARK    9  A    between atoms: C_17  and  C_18
REMARK   10  A    between atoms: C_19  and  C_20
REMARK   11  A    between atoms: C_20  and  O_21
REMARK                            x       y       z     vdW  Elec       q    Type
REMARK                         _______ _______ _______ _____ _____    ______ ____
ROOT
ATOM      1  C   UNL     1      -9.624   1.036 123.052  0.00  0.00    +0.000 C 
ATOM      2  C   UNL     1      -8.479   0.997 124.036  0.00  0.00    +0.000 C 
ATOM      3  C   UNL     1      -7.468   1.891 123.885  0.00  0.00    +0.000 C 
ENDROOT
BRANCH   2   4
ATOM      4  C   UNL     1      -8.516   0.001 125.108  0.00  0.00    +0.000 C 
ATOM      5  C   UNL     1      -7.664  -1.008 125.347  0.00  0.00    +0.000 C 
BRANCH   5   6
ATOM      6  C   UNL     1      -7.835  -1.948 126.456  0.00  0.00    +0.000 C 
ATOM      7  C   UNL     1      -8.681  -3.006 126.379  0.00  0.00    +0.000 C 
ATOM      8  C   UNL     1      -9.421  -3.443 125.137  0.00  0.00    +0.000 C 
ATOM      9  C   UNL     1      -8.978  -3.896 127.566  0.00  0.00    +0.000 C 
ATOM     10  C   UNL     1      -8.472  -3.353 128.895  0.00  0.00    +0.000 C 
ATOM     11  C   UNL     1      -7.056  -2.828 128.732  0.00  0.00    +0.000 C 
ATOM     12  C   UNL     1      -6.983  -1.660 127.711  0.00  0.00    +0.000 C 
ATOM     13  C   UNL     1      -5.485  -1.477 127.369  0.00  0.00    +0.000 C 
ATOM     14  C   UNL     1      -7.493  -0.368 128.384  0.00  0.00    +0.000 C 
ENDBRANCH   5   6
ENDBRANCH   2   4
BRANCH   3  15
ATOM     15  C   UNL     1      -6.313   1.993 124.753  0.00  0.00    +0.000 C 
ATOM     16  C   UNL     1      -6.039   2.891 125.714  0.00  0.00    +0.000 C 
BRANCH  16  17
ATOM     17  C   UNL     1      -4.799   2.859 126.519  0.00  0.00    +0.000 C 
ATOM     18  C   UNL     1      -4.815   2.136 127.837  0.00  0.00    +0.000 C 
ATOM     19  C   UNL     1      -3.669   3.462 126.086  0.00  0.00    +0.000 C 
BRANCH  19  20
ATOM     20  C   UNL     1      -2.313   3.573 126.693  0.00  0.00    +0.000 C 
ATOM     21  O   UNL     1      -1.461   2.726 126.438  0.00  0.00    +0.000 OA
BRANCH  20  22
ATOM     22  O   UNL     1      -2.016   4.589 127.515  0.00  0.00    +0.000 OA
ATOM     23  H   UNL     1      -1.794   5.461 127.166  0.00  0.00    +0.000 HD
ENDBRANCH  20  22
ENDBRANCH  19  20
ENDBRANCH  16  17
ENDBRANCH   3  15
TORSDOF 6
ENDMDL
MODEL 6
REMARK VINA RESULT:      -6.7      2.393      3.137
REMARK  Name = Alitretinoin
REMARK  11 active torsions:
REMARK  status: ('A' for Active; 'I' for Inactive)
REMARK    1  A    between atoms: C_1  and  C_2
REMARK    2  A    between atoms: C_2  and  C_3
REMARK    3  A    between atoms: C_4  and  C_5
REMARK    4  A    between atoms: C_6  and  C_7
REMARK    5  A    between atoms: C_11  and  C_12
REMARK    6  A    between atoms: C_11  and  C_13
REMARK    7  A    between atoms: C_14  and  C_15
REMARK    8  A    between atoms: C_16  and  C_17
REMARK    9  A    between atoms: C_17  and  C_18
REMARK   10  A    between atoms: C_19  and  C_20
REMARK   11  A    between atoms: C_20  and  O_21
REMARK                            x       y       z     vdW  Elec       q    Type
REMARK                         _______ _______ _______ _____ _____    ______ ____
ROOT
ATOM      1  C   UNL     1      -8.942  -3.704 124.247  0.00  0.00    +0.000 C 
ATOM      2  C   UNL     1      -8.863  -2.216 124.482  0.00  0.00    +0.000 C 
ATOM      3  C   UNL     1      -8.938  -1.387 123.409  0.00  0.00    +0.000 C 
ENDROOT
BRANCH   2   4
ATOM      4  C   UNL     1      -8.715  -1.734 125.858  0.00  0.00    +0.000 C 
ATOM      5  C   UNL     1      -7.590  -1.550 126.566  0.00  0.00    +0.000 C 
BRANCH   5   6
ATOM      6  C   UNL     1      -7.591  -1.077 127.951  0.00  0.00    +0.000 C 
ATOM      7  C   UNL     1      -7.799  -1.914 128.998  0.00  0.00    +0.000 C 
ATOM      8  C   UNL     1      -7.898  -3.418 128.905  0.00  0.00    +0.000 C 
ATOM      9  C   UNL     1      -7.950  -1.417 130.419  0.00  0.00    +0.000 C 
ATOM     10  C   UNL     1      -8.121   0.091 130.537  0.00  0.00    +0.000 C 
ATOM     11  C   UNL     1      -7.121   0.795 129.636  0.00  0.00    +0.000 C 
ATOM     12  C   UNL     1      -7.332   0.434 128.139  0.00  0.00    +0.000 C 
ATOM     13  C   UNL     1      -6.058   0.903 127.398  0.00  0.00    +0.000 C 
ATOM     14  C   UNL     1      -8.537   1.228 127.593  0.00  0.00    +0.000 C 
ENDBRANCH   5   6
ENDBRANCH   2   4
BRANCH   3  15
ATOM     15  C   UNL     1      -8.897   0.059 123.472  0.00  0.00    +0.000 C 
ATOM     16  C   UNL     1      -7.842   0.882 123.593  0.00  0.00    +0.000 C 
BRANCH  16  17
ATOM     17  C   UNL     1      -7.969   2.354 123.647  0.00  0.00    +0.000 C 
ATOM     18  C   UNL     1      -8.462   3.078 122.426  0.00  0.00    +0.000 C 
ATOM     19  C   UNL     1      -7.654   3.044 124.766  0.00  0.00    +0.000 C 
BRANCH  19  20
ATOM     20  C   UNL     1      -7.693   4.500 125.075  0.00  0.00    +0.000 C 
ATOM     21  O   UNL     1      -8.658   4.969 125.674  0.00  0.00    +0.000 OA
BRANCH  20  22
ATOM     22  O   UNL     1      -6.686   5.302 124.705  0.00  0.00    +0.000 OA
ATOM     23  H   UNL     1      -6.787   5.919 123.969  0.00  0.00    +0.000 HD
ENDBRANCH  20  22
ENDBRANCH  19  20
ENDBRANCH  16  17
ENDBRANCH   3  15
TORSDOF 6
ENDMDL
MODEL 7
REMARK VINA RESULT:      -6.7      1.652      2.092
REMARK  Name = Alitretinoin
REMARK  11 active torsions:
REMARK  status: ('A' for Active; 'I' for Inactive)
REMARK    1  A    between atoms: C_1  and  C_2
REMARK    2  A    between atoms: C_2  and  C_3
REMARK    3  A    between atoms: C_4  and  C_5
REMARK    4  A    between atoms: C_6  and  C_7
REMARK    5  A    between atoms: C_11  and  C_12
REMARK    6  A    between atoms: C_11  and  C_13
REMARK    7  A    between atoms: C_14  and  C_15
REMARK    8  A    between atoms: C_16  and  C_17
REMARK    9  A    between atoms: C_17  and  C_18
REMARK   10  A    between atoms: C_19  and  C_20
REMARK   11  A    between atoms: C_20  and  O_21
REMARK                            x       y       z     vdW  Elec       q    Type
REMARK                         _______ _______ _______ _____ _____    ______ ____
ROOT
ATOM      1  C   UNL     1      -4.822  -3.637 123.782  0.00  0.00    +0.000 C 
ATOM      2  C   UNL     1      -5.670  -2.588 124.458  0.00  0.00    +0.000 C 
ATOM      3  C   UNL     1      -6.090  -1.525 123.724  0.00  0.00    +0.000 C 
ENDROOT
BRANCH   2   4
ATOM      4  C   UNL     1      -6.005  -2.767 125.873  0.00  0.00    +0.000 C 
ATOM      5  C   UNL     1      -5.525  -2.109 126.939  0.00  0.00    +0.000 C 
BRANCH   5   6
ATOM      6  C   UNL     1      -5.939  -2.408 128.311  0.00  0.00    +0.000 C 
ATOM      7  C   UNL     1      -5.127  -3.054 129.184  0.00  0.00    +0.000 C 
ATOM      8  C   UNL     1      -3.679  -3.404 128.932  0.00  0.00    +0.000 C 
ATOM      9  C   UNL     1      -5.594  -3.501 130.552  0.00  0.00    +0.000 C 
ATOM     10  C   UNL     1      -7.100  -3.411 130.756  0.00  0.00    +0.000 C 
ATOM     11  C   UNL     1      -7.615  -2.085 130.222  0.00  0.00    +0.000 C 
ATOM     12  C   UNL     1      -7.357  -1.934 128.697  0.00  0.00    +0.000 C 
ATOM     13  C   UNL     1      -7.580  -0.438 128.368  0.00  0.00    +0.000 C 
ATOM     14  C   UNL     1      -8.400  -2.766 127.923  0.00  0.00    +0.000 C 
ENDBRANCH   5   6
ENDBRANCH   2   4
BRANCH   3  15
ATOM     15  C   UNL     1      -6.921  -0.448 124.220  0.00  0.00    +0.000 C 
ATOM     16  C   UNL     1      -6.567   0.744 124.730  0.00  0.00    +0.000 C 
BRANCH  16  17
ATOM     17  C   UNL     1      -7.548   1.743 125.202  0.00  0.00    +0.000 C 
ATOM     18  C   UNL     1      -8.982   1.321 125.365  0.00  0.00    +0.000 C 
ATOM     19  C   UNL     1      -7.175   3.011 125.485  0.00  0.00    +0.000 C 
BRANCH  19  20
ATOM     20  C   UNL     1      -7.953   4.187 125.968  0.00  0.00    +0.000 C 
ATOM     21  O   UNL     1      -8.382   4.201 127.119  0.00  0.00    +0.000 OA
BRANCH  20  22
ATOM     22  O   UNL     1      -8.187   5.227 125.157  0.00  0.00    +0.000 OA
ATOM     23  H   UNL     1      -8.296   5.101 124.206  0.00  0.00    +0.000 HD
ENDBRANCH  20  22
ENDBRANCH  19  20
ENDBRANCH  16  17
ENDBRANCH   3  15
TORSDOF 6
ENDMDL
MODEL 8
REMARK VINA RESULT:      -6.6      2.283      3.569
REMARK  Name = Alitretinoin
REMARK  11 active torsions:
REMARK  status: ('A' for Active; 'I' for Inactive)
REMARK    1  A    between atoms: C_1  and  C_2
REMARK    2  A    between atoms: C_2  and  C_3
REMARK    3  A    between atoms: C_4  and  C_5
REMARK    4  A    between atoms: C_6  and  C_7
REMARK    5  A    between atoms: C_11  and  C_12
REMARK    6  A    between atoms: C_11  and  C_13
REMARK    7  A    between atoms: C_14  and  C_15
REMARK    8  A    between atoms: C_16  and  C_17
REMARK    9  A    between atoms: C_17  and  C_18
REMARK   10  A    between atoms: C_19  and  C_20
REMARK   11  A    between atoms: C_20  and  O_21
REMARK                            x       y       z     vdW  Elec       q    Type
REMARK                         _______ _______ _______ _____ _____    ______ ____
ROOT
ATOM      1  C   UNL     1      -8.914  -3.023 123.914  0.00  0.00    +0.000 C 
ATOM      2  C   UNL     1      -8.562  -1.646 124.424  0.00  0.00    +0.000 C 
ATOM      3  C   UNL     1      -8.273  -0.676 123.519  0.00  0.00    +0.000 C 
ENDROOT
BRANCH   2   4
ATOM      4  C   UNL     1      -8.554  -1.420 125.872  0.00  0.00    +0.000 C 
ATOM      5  C   UNL     1      -7.511  -1.418 126.716  0.00  0.00    +0.000 C 
BRANCH   5   6
ATOM      6  C   UNL     1      -7.654  -1.194 128.155  0.00  0.00    +0.000 C 
ATOM      7  C   UNL     1      -7.830   0.045 128.678  0.00  0.00    +0.000 C 
ATOM      8  C   UNL     1      -8.055   1.305 127.876  0.00  0.00    +0.000 C 
ATOM      9  C   UNL     1      -7.830   0.307 130.168  0.00  0.00    +0.000 C 
ATOM     10  C   UNL     1      -7.350  -0.869 131.007  0.00  0.00    +0.000 C 
ATOM     11  C   UNL     1      -7.988  -2.154 130.507  0.00  0.00    +0.000 C 
ATOM     12  C   UNL     1      -7.598  -2.462 129.035  0.00  0.00    +0.000 C 
ATOM     13  C   UNL     1      -8.580  -3.554 128.547  0.00  0.00    +0.000 C 
ATOM     14  C   UNL     1      -6.168  -3.040 129.002  0.00  0.00    +0.000 C 
ENDBRANCH   5   6
ENDBRANCH   2   4
BRANCH   3  15
ATOM     15  C   UNL     1      -7.936   0.693 123.847  0.00  0.00    +0.000 C 
ATOM     16  C   UNL     1      -7.134   1.558 123.203  0.00  0.00    +0.000 C 
BRANCH  16  17
ATOM     17  C   UNL     1      -6.889   2.937 123.676  0.00  0.00    +0.000 C 
ATOM     18  C   UNL     1      -6.052   3.850 122.825  0.00  0.00    +0.000 C 
ATOM     19  C   UNL     1      -7.403   3.377 124.846  0.00  0.00    +0.000 C 
BRANCH  19  20
ATOM     20  C   UNL     1      -7.308   4.694 125.535  0.00  0.00    +0.000 C 
ATOM     21  O   UNL     1      -6.355   4.925 126.275  0.00  0.00    +0.000 OA
BRANCH  20  22
ATOM     22  O   UNL     1      -8.252   5.627 125.354  0.00  0.00    +0.000 OA
ATOM     23  H   UNL     1      -8.040   6.567 125.416  0.00  0.00    +0.000 HD
ENDBRANCH  20  22
ENDBRANCH  19  20
ENDBRANCH  16  17
ENDBRANCH   3  15
TORSDOF 6
ENDMDL
MODEL 9
REMARK VINA RESULT:      -6.6      2.485      4.987
REMARK  Name = Alitretinoin
REMARK  11 active torsions:
REMARK  status: ('A' for Active; 'I' for Inactive)
REMARK    1  A    between atoms: C_1  and  C_2
REMARK    2  A    between atoms: C_2  and  C_3
REMARK    3  A    between atoms: C_4  and  C_5
REMARK    4  A    between atoms: C_6  and  C_7
REMARK    5  A    between atoms: C_11  and  C_12
REMARK    6  A    between atoms: C_11  and  C_13
REMARK    7  A    between atoms: C_14  and  C_15
REMARK    8  A    between atoms: C_16  and  C_17
REMARK    9  A    between atoms: C_17  and  C_18
REMARK   10  A    between atoms: C_19  and  C_20
REMARK   11  A    between atoms: C_20  and  O_21
REMARK                            x       y       z     vdW  Elec       q    Type
REMARK                         _______ _______ _______ _____ _____    ______ ____
ROOT
ATOM      1  C   UNL     1      -5.276  -0.879 128.905  0.00  0.00    +0.000 C 
ATOM      2  C   UNL     1      -5.548  -0.063 127.665  0.00  0.00    +0.000 C 
ATOM      3  C   UNL     1      -5.055   1.201 127.602  0.00  0.00    +0.000 C 
ENDROOT
BRANCH   2   4
ATOM      4  C   UNL     1      -6.325  -0.675 126.585  0.00  0.00    +0.000 C 
ATOM      5  C   UNL     1      -7.653  -0.657 126.392  0.00  0.00    +0.000 C 
BRANCH   5   6
ATOM      6  C   UNL     1      -8.302  -1.334 125.268  0.00  0.00    +0.000 C 
ATOM      7  C   UNL     1      -8.813  -2.586 125.379  0.00  0.00    +0.000 C 
ATOM      8  C   UNL     1      -8.925  -3.371 126.664  0.00  0.00    +0.000 C 
ATOM      9  C   UNL     1      -9.351  -3.353 124.190  0.00  0.00    +0.000 C 
ATOM     10  C   UNL     1      -9.026  -2.723 122.843  0.00  0.00    +0.000 C 
ATOM     11  C   UNL     1      -9.275  -1.225 122.900  0.00  0.00    +0.000 C 
ATOM     12  C   UNL     1      -8.372  -0.526 123.954  0.00  0.00    +0.000 C 
ATOM     13  C   UNL     1      -8.972   0.884 124.169  0.00  0.00    +0.000 C 
ATOM     14  C   UNL     1      -6.950  -0.369 123.377  0.00  0.00    +0.000 C 
ENDBRANCH   5   6
ENDBRANCH   2   4
BRANCH   3  15
ATOM     15  C   UNL     1      -5.214   2.100 126.478  0.00  0.00    +0.000 C 
ATOM     16  C   UNL     1      -6.278   2.834 126.110  0.00  0.00    +0.000 C 
BRANCH  16  17
ATOM     17  C   UNL     1      -6.281   3.709 124.919  0.00  0.00    +0.000 C 
ATOM     18  C   UNL     1      -6.446   5.190 125.115  0.00  0.00    +0.000 C 
ATOM     19  C   UNL     1      -6.138   3.198 123.675  0.00  0.00    +0.000 C 
BRANCH  19  20
ATOM     20  C   UNL     1      -6.107   3.850 122.336  0.00  0.00    +0.000 C 
ATOM     21  O   UNL     1      -6.975   3.583 121.509  0.00  0.00    +0.000 OA
BRANCH  20  22
ATOM     22  O   UNL     1      -5.139   4.724 122.027  0.00  0.00    +0.000 OA
ATOM     23  H   UNL     1      -4.412   4.473 121.443  0.00  0.00    +0.000 HD
ENDBRANCH  20  22
ENDBRANCH  19  20
ENDBRANCH  16  17
ENDBRANCH   3  15
TORSDOF 6
ENDMDL
