MODEL 1
REMARK VINA RESULT:      -5.7      0.000      0.000
REMARK  Name = Allantoin
REMARK  1 active torsions:
REMARK  status: ('A' for Active; 'I' for Inactive)
REMARK    1  A    between atoms: N_4  and  C_5
REMARK                            x       y       z     vdW  Elec       q    Type
REMARK                         _______ _______ _______ _____ _____    ______ ____
ROOT
ATOM      1  C   UNL     1     -12.629   8.167 128.730  0.00  0.00    +0.000 C 
ATOM      2  N   UNL     1     -11.495   8.280 129.607  0.00  0.00    +0.000 N 
ATOM      3  C   UNL     1     -10.350   7.777 129.036  0.00  0.00    +0.000 C 
ATOM      4  O   UNL     1      -9.269   7.703 129.599  0.00  0.00    +0.000 OA
ATOM      5  N   UNL     1     -10.632   7.331 127.795  0.00  0.00    +0.000 N 
ATOM      6  C   UNL     1     -11.976   7.338 127.591  0.00  0.00    +0.000 C 
ATOM      7  O   UNL     1     -12.543   6.784 126.660  0.00  0.00    +0.000 OA
ATOM      8  H   UNL     1     -11.497   8.589 130.568  0.00  0.00    +0.000 HD
ATOM      9  H   UNL     1      -9.977   6.879 127.183  0.00  0.00    +0.000 HD
ENDROOT
BRANCH   1  13
ATOM     10  N   UNL     1     -13.730  11.634 128.933  0.00  0.00    +0.000 N 
ATOM     11  C   UNL     1     -13.359  10.420 129.385  0.00  0.00    +0.000 C 
ATOM     12  O   UNL     1     -13.267  10.259 130.591  0.00  0.00    +0.000 OA
ATOM     13  N   UNL     1     -13.152   9.480 128.428  0.00  0.00    +0.000 N 
ATOM     14  H   UNL     1     -13.924  12.305 129.667  0.00  0.00    +0.000 HD
ATOM     15  H   UNL     1     -13.924  11.886 127.981  0.00  0.00    +0.000 HD
ATOM     16  H   UNL     1     -13.211   9.755 127.462  0.00  0.00    +0.000 HD
ENDBRANCH   1  13
TORSDOF 1
ENDMDL
MODEL 2
REMARK VINA RESULT:      -5.2      2.268      4.212
REMARK  Name = Allantoin
REMARK  1 active torsions:
REMARK  status: ('A' for Active; 'I' for Inactive)
REMARK    1  A    between atoms: N_4  and  C_5
REMARK                            x       y       z     vdW  Elec       q    Type
REMARK                         _______ _______ _______ _____ _____    ______ ____
ROOT
ATOM      1  C   UNL     1     -12.466   7.277 129.629  0.00  0.00    +0.000 C 
ATOM      2  N   UNL     1     -11.867   6.902 128.376  0.00  0.00    +0.000 N 
ATOM      3  C   UNL     1     -11.431   7.995 127.666  0.00  0.00    +0.000 C 
ATOM      4  O   UNL     1     -10.941   7.945 126.548  0.00  0.00    +0.000 OA
ATOM      5  N   UNL     1     -11.686   9.114 128.372  0.00  0.00    +0.000 N 
ATOM      6  C   UNL     1     -12.461   8.820 129.449  0.00  0.00    +0.000 C 
ATOM      7  O   UNL     1     -13.038   9.646 130.141  0.00  0.00    +0.000 OA
ATOM      8  H   UNL     1     -11.832   5.978 127.970  0.00  0.00    +0.000 HD
ATOM      9  H   UNL     1     -11.502  10.049 128.056  0.00  0.00    +0.000 HD
ENDROOT
BRANCH   1  13
ATOM     10  N   UNL     1     -10.510   5.053 131.749  0.00  0.00    +0.000 N 
ATOM     11  C   UNL     1     -11.296   5.409 130.715  0.00  0.00    +0.000 C 
ATOM     12  O   UNL     1     -11.578   4.558 129.887  0.00  0.00    +0.000 OA
ATOM     13  N   UNL     1     -11.723   6.698 130.724  0.00  0.00    +0.000 N 
ATOM     14  H   UNL     1     -10.242   4.075 131.745  0.00  0.00    +0.000 HD
ATOM     15  H   UNL     1     -10.265   5.620 132.540  0.00  0.00    +0.000 HD
ATOM     16  H   UNL     1     -11.376   7.315 131.438  0.00  0.00    +0.000 HD
ENDBRANCH   1  13
TORSDOF 1
ENDMDL
MODEL 3
REMARK VINA RESULT:      -5.2      2.538      3.620
REMARK  Name = Allantoin
REMARK  1 active torsions:
REMARK  status: ('A' for Active; 'I' for Inactive)
REMARK    1  A    between atoms: N_4  and  C_5
REMARK                            x       y       z     vdW  Elec       q    Type
REMARK                         _______ _______ _______ _____ _____    ______ ____
ROOT
ATOM      1  C   UNL     1     -11.790   7.679 129.831  0.00  0.00    +0.000 C 
ATOM      2  N   UNL     1     -10.412   7.303 130.006  0.00  0.00    +0.000 N 
ATOM      3  C   UNL     1     -10.237   6.483 131.095  0.00  0.00    +0.000 C 
ATOM      4  O   UNL     1      -9.155   6.075 131.489  0.00  0.00    +0.000 OA
ATOM      5  N   UNL     1     -11.431   6.260 131.680  0.00  0.00    +0.000 N 
ATOM      6  C   UNL     1     -12.377   7.067 131.132  0.00  0.00    +0.000 C 
ATOM      7  O   UNL     1     -13.490   7.256 131.601  0.00  0.00    +0.000 OA
ATOM      8  H   UNL     1      -9.618   7.645 129.487  0.00  0.00    +0.000 HD
ATOM      9  H   UNL     1     -11.570   5.727 132.520  0.00  0.00    +0.000 HD
ENDROOT
BRANCH   1  13
ATOM     10  N   UNL     1     -12.194   6.964 126.282  0.00  0.00    +0.000 N 
ATOM     11  C   UNL     1     -11.716   7.587 127.377  0.00  0.00    +0.000 C 
ATOM     12  O   UNL     1     -10.861   8.443 127.223  0.00  0.00    +0.000 OA
ATOM     13  N   UNL     1     -12.273   7.205 128.555  0.00  0.00    +0.000 N 
ATOM     14  H   UNL     1     -11.798   7.297 125.412  0.00  0.00    +0.000 HD
ATOM     15  H   UNL     1     -12.950   6.303 126.250  0.00  0.00    +0.000 HD
ATOM     16  H   UNL     1     -12.935   6.448 128.552  0.00  0.00    +0.000 HD
ENDBRANCH   1  13
TORSDOF 1
ENDMDL
MODEL 4
REMARK VINA RESULT:      -5.0      2.822      4.114
REMARK  Name = Allantoin
REMARK  1 active torsions:
REMARK  status: ('A' for Active; 'I' for Inactive)
REMARK    1  A    between atoms: N_4  and  C_5
REMARK                            x       y       z     vdW  Elec       q    Type
REMARK                         _______ _______ _______ _____ _____    ______ ____
ROOT
ATOM      1  C   UNL     1     -10.139   6.829 130.445  0.00  0.00    +0.000 C 
ATOM      2  N   UNL     1     -10.005   5.689 129.578  0.00  0.00    +0.000 N 
ATOM      3  C   UNL     1     -10.249   4.508 130.238  0.00  0.00    +0.000 C 
ATOM      4  O   UNL     1     -10.142   3.399 129.738  0.00  0.00    +0.000 OA
ATOM      5  N   UNL     1     -10.560   4.774 131.523  0.00  0.00    +0.000 N 
ATOM      6  C   UNL     1     -10.338   6.087 131.795  0.00  0.00    +0.000 C 
ATOM      7  O   UNL     1     -10.311   6.573 132.916  0.00  0.00    +0.000 OA
ATOM      8  H   UNL     1      -9.679   5.686 128.623  0.00  0.00    +0.000 HD
ATOM      9  H   UNL     1     -10.741   4.081 132.227  0.00  0.00    +0.000 HD
ENDROOT
BRANCH   1  13
ATOM     10  N   UNL     1     -12.218   9.014 128.402  0.00  0.00    +0.000 N 
ATOM     11  C   UNL     1     -11.109   8.344 128.771  0.00  0.00    +0.000 C 
ATOM     12  O   UNL     1     -10.136   8.394 128.037  0.00  0.00    +0.000 OA
ATOM     13  N   UNL     1     -11.189   7.695 129.961  0.00  0.00    +0.000 N 
ATOM     14  H   UNL     1     -12.120   9.527 127.534  0.00  0.00    +0.000 HD
ATOM     15  H   UNL     1     -13.058   9.128 128.941  0.00  0.00    +0.000 HD
ATOM     16  H   UNL     1     -12.069   7.689 130.448  0.00  0.00    +0.000 HD
ENDBRANCH   1  13
TORSDOF 1
ENDMDL
MODEL 5
REMARK VINA RESULT:      -5.0      2.335      4.511
REMARK  Name = Allantoin
REMARK  1 active torsions:
REMARK  status: ('A' for Active; 'I' for Inactive)
REMARK    1  A    between atoms: N_4  and  C_5
REMARK                            x       y       z     vdW  Elec       q    Type
REMARK                         _______ _______ _______ _____ _____    ______ ____
ROOT
ATOM      1  C   UNL     1     -11.610   7.309 130.176  0.00  0.00    +0.000 C 
ATOM      2  N   UNL     1     -12.847   7.990 129.900  0.00  0.00    +0.000 N 
ATOM      3  C   UNL     1     -12.735   8.849 128.833  0.00  0.00    +0.000 C 
ATOM      4  O   UNL     1     -13.627   9.585 128.439  0.00  0.00    +0.000 OA
ATOM      5  N   UNL     1     -11.480   8.789 128.344  0.00  0.00    +0.000 N 
ATOM      6  C   UNL     1     -10.689   8.061 129.176  0.00  0.00    +0.000 C 
ATOM      7  O   UNL     1      -9.469   8.019 129.120  0.00  0.00    +0.000 OA
ATOM      8  H   UNL     1     -13.694   7.957 130.447  0.00  0.00    +0.000 HD
ATOM      9  H   UNL     1     -11.128   9.350 127.589  0.00  0.00    +0.000 HD
ENDROOT
BRANCH   1  13
ATOM     10  N   UNL     1     -11.326   3.691 130.480  0.00  0.00    +0.000 N 
ATOM     11  C   UNL     1     -10.957   4.980 130.607  0.00  0.00    +0.000 C 
ATOM     12  O   UNL     1      -9.918   5.225 131.196  0.00  0.00    +0.000 OA
ATOM     13  N   UNL     1     -11.788   5.884 130.027  0.00  0.00    +0.000 N 
ATOM     14  H   UNL     1     -10.668   3.032 130.881  0.00  0.00    +0.000 HD
ATOM     15  H   UNL     1     -12.106   3.338 129.956  0.00  0.00    +0.000 HD
ATOM     16  H   UNL     1     -12.644   5.555 129.614  0.00  0.00    +0.000 HD
ENDBRANCH   1  13
TORSDOF 1
ENDMDL
MODEL 6
REMARK VINA RESULT:      -4.9      3.279      5.143
REMARK  Name = Allantoin
REMARK  1 active torsions:
REMARK  status: ('A' for Active; 'I' for Inactive)
REMARK    1  A    between atoms: N_4  and  C_5
REMARK                            x       y       z     vdW  Elec       q    Type
REMARK                         _______ _______ _______ _____ _____    ______ ____
ROOT
ATOM      1  C   UNL     1     -11.246   6.031 131.349  0.00  0.00    +0.000 C 
ATOM      2  N   UNL     1     -10.302   6.327 130.304  0.00  0.00    +0.000 N 
ATOM      3  C   UNL     1     -10.643   7.464 129.610  0.00  0.00    +0.000 C 
ATOM      4  O   UNL     1     -10.036   7.893 128.641  0.00  0.00    +0.000 OA
ATOM      5  N   UNL     1     -11.773   7.982 130.133  0.00  0.00    +0.000 N 
ATOM      6  C   UNL     1     -12.312   7.115 131.030  0.00  0.00    +0.000 C 
ATOM      7  O   UNL     1     -13.439   7.201 131.494  0.00  0.00    +0.000 OA
ATOM      8  H   UNL     1      -9.526   5.757 130.005  0.00  0.00    +0.000 HD
ATOM      9  H   UNL     1     -12.253   8.790 129.779  0.00  0.00    +0.000 HD
ENDROOT
BRANCH   1  13
ATOM     10  N   UNL     1      -8.831   5.692 134.055  0.00  0.00    +0.000 N 
ATOM     11  C   UNL     1      -9.375   5.476 132.841  0.00  0.00    +0.000 C 
ATOM     12  O   UNL     1      -8.764   4.770 132.055  0.00  0.00    +0.000 OA
ATOM     13  N   UNL     1     -10.584   6.057 132.632  0.00  0.00    +0.000 N 
ATOM     14  H   UNL     1      -7.951   5.211 134.204  0.00  0.00    +0.000 HD
ATOM     15  H   UNL     1      -9.254   6.180 134.824  0.00  0.00    +0.000 HD
ATOM     16  H   UNL     1     -10.958   6.660 133.345  0.00  0.00    +0.000 HD
ENDBRANCH   1  13
TORSDOF 1
ENDMDL
MODEL 7
REMARK VINA RESULT:      -4.9      3.451      5.600
REMARK  Name = Allantoin
REMARK  1 active torsions:
REMARK  status: ('A' for Active; 'I' for Inactive)
REMARK    1  A    between atoms: N_4  and  C_5
REMARK                            x       y       z     vdW  Elec       q    Type
REMARK                         _______ _______ _______ _____ _____    ______ ____
ROOT
ATOM      1  C   UNL     1      -9.910   6.039 131.743  0.00  0.00    +0.000 C 
ATOM      2  N   UNL     1     -11.272   6.105 132.201  0.00  0.00    +0.000 N 
ATOM      3  C   UNL     1     -12.067   6.834 131.348  0.00  0.00    +0.000 C 
ATOM      4  O   UNL     1     -13.245   7.086 131.544  0.00  0.00    +0.000 OA
ATOM      5  N   UNL     1     -11.323   7.268 130.310  0.00  0.00    +0.000 N 
ATOM      6  C   UNL     1     -10.008   7.019 130.542  0.00  0.00    +0.000 C 
ATOM      7  O   UNL     1      -9.083   7.492 129.897  0.00  0.00    +0.000 OA
ATOM      8  H   UNL     1     -11.637   5.765 133.078  0.00  0.00    +0.000 HD
ATOM      9  H   UNL     1     -11.658   7.857 129.569  0.00  0.00    +0.000 HD
ENDROOT
BRANCH   1  13
ATOM     10  N   UNL     1      -9.663   2.661 130.400  0.00  0.00    +0.000 N 
ATOM     11  C   UNL     1     -10.204   3.877 130.612  0.00  0.00    +0.000 C 
ATOM     12  O   UNL     1     -11.237   4.157 130.027  0.00  0.00    +0.000 OA
ATOM     13  N   UNL     1      -9.539   4.664 131.496  0.00  0.00    +0.000 N 
ATOM     14  H   UNL     1     -10.201   2.075 129.772  0.00  0.00    +0.000 HD
ATOM     15  H   UNL     1      -8.868   2.267 130.870  0.00  0.00    +0.000 HD
ATOM     16  H   UNL     1      -8.667   4.335 131.873  0.00  0.00    +0.000 HD
ENDBRANCH   1  13
TORSDOF 1
ENDMDL
MODEL 8
REMARK VINA RESULT:      -4.9      1.941      2.430
REMARK  Name = Allantoin
REMARK  1 active torsions:
REMARK  status: ('A' for Active; 'I' for Inactive)
REMARK    1  A    between atoms: N_4  and  C_5
REMARK                            x       y       z     vdW  Elec       q    Type
REMARK                         _______ _______ _______ _____ _____    ______ ____
ROOT
ATOM      1  C   UNL     1     -11.562   7.169 129.640  0.00  0.00    +0.000 C 
ATOM      2  N   UNL     1     -11.283   6.949 131.034  0.00  0.00    +0.000 N 
ATOM      3  C   UNL     1      -9.967   6.615 131.249  0.00  0.00    +0.000 C 
ATOM      4  O   UNL     1      -9.495   6.323 132.337  0.00  0.00    +0.000 OA
ATOM      5  N   UNL     1      -9.313   6.605 130.070  0.00  0.00    +0.000 N 
ATOM      6  C   UNL     1     -10.196   6.729 129.045  0.00  0.00    +0.000 C 
ATOM      7  O   UNL     1      -9.933   6.528 127.869  0.00  0.00    +0.000 OA
ATOM      8  H   UNL     1     -11.949   6.930 131.792  0.00  0.00    +0.000 HD
ATOM      9  H   UNL     1      -8.349   6.352 129.949  0.00  0.00    +0.000 HD
ENDROOT
BRANCH   1  13
ATOM     10  N   UNL     1     -13.444  10.129 128.658  0.00  0.00    +0.000 N 
ATOM     11  C   UNL     1     -13.074   8.834 128.650  0.00  0.00    +0.000 C 
ATOM     12  O   UNL     1     -13.693   8.064 127.935  0.00  0.00    +0.000 OA
ATOM     13  N   UNL     1     -12.009   8.527 129.435  0.00  0.00    +0.000 N 
ATOM     14  H   UNL     1     -14.211  10.343 128.031  0.00  0.00    +0.000 HD
ATOM     15  H   UNL     1     -12.979  10.884 129.131  0.00  0.00    +0.000 HD
ATOM     16  H   UNL     1     -11.618   9.247 130.018  0.00  0.00    +0.000 HD
ENDBRANCH   1  13
TORSDOF 1
ENDMDL
MODEL 9
REMARK VINA RESULT:      -4.7      2.945      3.905
REMARK  Name = Allantoin
REMARK  1 active torsions:
REMARK  status: ('A' for Active; 'I' for Inactive)
REMARK    1  A    between atoms: N_4  and  C_5
REMARK                            x       y       z     vdW  Elec       q    Type
REMARK                         _______ _______ _______ _____ _____    ______ ____
ROOT
ATOM      1  C   UNL     1     -11.419   5.960 130.458  0.00  0.00    +0.000 C 
ATOM      2  N   UNL     1     -11.094   6.517 131.744  0.00  0.00    +0.000 N 
ATOM      3  C   UNL     1      -9.883   6.063 132.211  0.00  0.00    +0.000 C 
ATOM      4  O   UNL     1      -9.413   6.341 133.303  0.00  0.00    +0.000 OA
ATOM      5  N   UNL     1      -9.343   5.225 131.303  0.00  0.00    +0.000 N 
ATOM      6  C   UNL     1     -10.248   4.948 130.328  0.00  0.00    +0.000 C 
ATOM      7  O   UNL     1     -10.132   4.056 129.501  0.00  0.00    +0.000 OA
ATOM      8  H   UNL     1     -11.684   7.095 132.324  0.00  0.00    +0.000 HD
ATOM      9  H   UNL     1      -8.480   4.726 131.422  0.00  0.00    +0.000 HD
ENDROOT
BRANCH   1  13
ATOM     10  N   UNL     1     -10.736   8.644 128.092  0.00  0.00    +0.000 N 
ATOM     11  C   UNL     1     -10.491   7.786 129.100  0.00  0.00    +0.000 C 
ATOM     12  O   UNL     1      -9.377   7.787 129.598  0.00  0.00    +0.000 OA
ATOM     13  N   UNL     1     -11.543   7.017 129.481  0.00  0.00    +0.000 N 
ATOM     14  H   UNL     1      -9.950   9.239 127.856  0.00  0.00    +0.000 HD
ATOM     15  H   UNL     1     -11.621   8.809 127.645  0.00  0.00    +0.000 HD
ATOM     16  H   UNL     1     -12.398   7.075 128.954  0.00  0.00    +0.000 HD
ENDBRANCH   1  13
TORSDOF 1
ENDMDL
