MODEL 1
REMARK VINA RESULT:      -8.0      0.000      0.000
REMARK  Name = Alloin
REMARK  10 active torsions:
REMARK  status: ('A' for Active; 'I' for Inactive)
REMARK    1  A    between atoms: O_1  and  C_2
REMARK    2  A    between atoms: C_2  and  C_3
REMARK    3  A    between atoms: C_5  and  C_12
REMARK    4  A    between atoms: C_6  and  O_7
REMARK    5  A    between atoms: C_8  and  O_9
REMARK    6  A    between atoms: C_10  and  O_11
REMARK    7  A    between atoms: C_17  and  O_18
REMARK    8  A    between atoms: C_25  and  C_26
REMARK    9  A    between atoms: C_26  and  O_27
REMARK   10  A    between atoms: C_29  and  O_30
REMARK                            x       y       z     vdW  Elec       q    Type
REMARK                         _______ _______ _______ _____ _____    ______ ____
ROOT
ATOM      1  C   UNL     1      -6.191  -1.604 126.341  0.00  0.00    +0.000 C 
ATOM      2  C   UNL     1      -6.647  -2.200 125.012  0.00  0.00    +0.000 A 
ATOM      3  C   UNL     1      -5.929  -1.852 123.849  0.00  0.00    +0.000 A 
ATOM      4  C   UNL     1      -6.635  -1.572 122.681  0.00  0.00    +0.000 A 
ATOM      5  C   UNL     1      -7.970  -1.938 122.583  0.00  0.00    +0.000 A 
ATOM      6  C   UNL     1      -8.610  -2.538 123.673  0.00  0.00    +0.000 A 
ATOM      7  C   UNL     1      -7.970  -2.641 124.913  0.00  0.00    +0.000 A 
ATOM      8  C   UNL     1      -8.689  -3.069 126.155  0.00  0.00    +0.000 C 
ATOM      9  O   UNL     1      -9.808  -3.528 126.083  0.00  0.00    +0.000 OA
ATOM     10  C   UNL     1      -7.989  -2.947 127.477  0.00  0.00    +0.000 A 
ATOM     11  C   UNL     1      -6.758  -2.285 127.556  0.00  0.00    +0.000 A 
ATOM     12  C   UNL     1      -6.088  -2.161 128.792  0.00  0.00    +0.000 A 
ATOM     13  C   UNL     1      -6.631  -2.711 129.958  0.00  0.00    +0.000 A 
ATOM     14  C   UNL     1      -7.862  -3.377 129.865  0.00  0.00    +0.000 A 
ATOM     15  C   UNL     1      -8.538  -3.482 128.646  0.00  0.00    +0.000 A 
ENDROOT
BRANCH   1  18
ATOM     16  C   UNL     1      -7.807   1.619 125.127  0.00  0.00    +0.000 C 
ATOM     17  O   UNL     1      -7.499   0.218 125.186  0.00  0.00    +0.000 OA
ATOM     18  C   UNL     1      -6.654  -0.092 126.349  0.00  0.00    +0.000 C 
ATOM     19  C   UNL     1      -5.406   0.807 126.407  0.00  0.00    +0.000 C 
ATOM     20  C   UNL     1      -5.617   2.267 126.125  0.00  0.00    +0.000 C 
ATOM     21  C   UNL     1      -6.490   2.383 124.881  0.00  0.00    +0.000 C 
BRANCH  19  22
ATOM     22  O   UNL     1      -4.604   0.538 127.550  0.00  0.00    +0.000 OA
ATOM     23  H   UNL     1      -3.681   0.748 127.339  0.00  0.00    +0.000 HD
ENDBRANCH  19  22
BRANCH  20  24
ATOM     24  O   UNL     1      -4.332   2.868 125.871  0.00  0.00    +0.000 OA
ATOM     25  H   UNL     1      -4.095   2.679 124.943  0.00  0.00    +0.000 HD
ENDBRANCH  20  24
BRANCH  21  26
ATOM     26  O   UNL     1      -6.638   3.770 124.611  0.00  0.00    +0.000 OA
ATOM     27  H   UNL     1      -6.930   4.170 125.453  0.00  0.00    +0.000 HD
ENDBRANCH  21  26
BRANCH  16  28
ATOM     28  C   UNL     1      -8.875   2.097 124.124  0.00  0.00    +0.000 C 
BRANCH  28  29
ATOM     29  O   UNL     1      -9.440   3.329 124.620  0.00  0.00    +0.000 OA
ATOM     30  H   UNL     1      -9.986   3.707 123.901  0.00  0.00    +0.000 HD
ENDBRANCH  28  29
ENDBRANCH  16  28
ENDBRANCH   1  18
BRANCH   6  31
ATOM     31  O   UNL     1      -9.907  -2.929 123.525  0.00  0.00    +0.000 OA
ATOM     32  H   UNL     1     -10.337  -2.995 124.389  0.00  0.00    +0.000 HD
ENDBRANCH   6  31
BRANCH  15  33
ATOM     33  O   UNL     1      -9.741  -4.123 128.617  0.00  0.00    +0.000 OA
ATOM     34  H   UNL     1     -10.054  -4.335 129.506  0.00  0.00    +0.000 HD
ENDBRANCH  15  33
BRANCH  13  35
ATOM     35  C   UNL     1      -5.871  -2.579 131.255  0.00  0.00    +0.000 C 
BRANCH  35  36
ATOM     36  O   UNL     1      -6.127  -3.658 132.143  0.00  0.00    +0.000 OA
ATOM     37  H   UNL     1      -6.978  -3.468 132.573  0.00  0.00    +0.000 HD
ENDBRANCH  35  36
ENDBRANCH  13  35
TORSDOF 10
ENDMDL
MODEL 2
REMARK VINA RESULT:      -7.6      6.651      9.879
REMARK  Name = Alloin
REMARK  10 active torsions:
REMARK  status: ('A' for Active; 'I' for Inactive)
REMARK    1  A    between atoms: O_1  and  C_2
REMARK    2  A    between atoms: C_2  and  C_3
REMARK    3  A    between atoms: C_5  and  C_12
REMARK    4  A    between atoms: C_6  and  O_7
REMARK    5  A    between atoms: C_8  and  O_9
REMARK    6  A    between atoms: C_10  and  O_11
REMARK    7  A    between atoms: C_17  and  O_18
REMARK    8  A    between atoms: C_25  and  C_26
REMARK    9  A    between atoms: C_26  and  O_27
REMARK   10  A    between atoms: C_29  and  O_30
REMARK                            x       y       z     vdW  Elec       q    Type
REMARK                         _______ _______ _______ _____ _____    ______ ____
ROOT
ATOM      1  C   UNL     1      -8.900   5.815 129.580  0.00  0.00    +0.000 C 
ATOM      2  C   UNL     1      -8.085   6.159 130.824  0.00  0.00    +0.000 A 
ATOM      3  C   UNL     1      -6.690   5.956 130.779  0.00  0.00    +0.000 A 
ATOM      4  C   UNL     1      -6.055   5.403 131.889  0.00  0.00    +0.000 A 
ATOM      5  C   UNL     1      -6.719   5.357 133.106  0.00  0.00    +0.000 A 
ATOM      6  C   UNL     1      -8.036   5.817 133.199  0.00  0.00    +0.000 A 
ATOM      7  C   UNL     1      -8.750   6.188 132.054  0.00  0.00    +0.000 A 
ATOM      8  C   UNL     1     -10.220   6.472 132.080  0.00  0.00    +0.000 C 
ATOM      9  O   UNL     1     -10.800   6.580 133.137  0.00  0.00    +0.000 OA
ATOM     10  C   UNL     1     -10.948   6.651 130.779  0.00  0.00    +0.000 A 
ATOM     11  C   UNL     1     -10.293   6.383 129.571  0.00  0.00    +0.000 A 
ATOM     12  C   UNL     1     -10.963   6.546 128.340  0.00  0.00    +0.000 A 
ATOM     13  C   UNL     1     -12.289   6.992 128.302  0.00  0.00    +0.000 A 
ATOM     14  C   UNL     1     -12.932   7.263 129.518  0.00  0.00    +0.000 A 
ATOM     15  C   UNL     1     -12.276   7.082 130.739  0.00  0.00    +0.000 A 
ENDROOT
BRANCH   1  18
ATOM     16  C   UNL     1      -8.769   2.202 130.765  0.00  0.00    +0.000 C 
ATOM     17  O   UNL     1      -8.809   3.635 130.847  0.00  0.00    +0.000 OA
ATOM     18  C   UNL     1      -9.000   4.238 129.519  0.00  0.00    +0.000 C 
ATOM     19  C   UNL     1      -7.971   3.717 128.500  0.00  0.00    +0.000 C 
ATOM     20  C   UNL     1      -7.703   2.240 128.512  0.00  0.00    +0.000 C 
ATOM     21  C   UNL     1      -7.511   1.809 129.962  0.00  0.00    +0.000 C 
BRANCH  19  22
ATOM     22  O   UNL     1      -8.173   4.268 127.204  0.00  0.00    +0.000 OA
ATOM     23  H   UNL     1      -8.921   4.884 127.241  0.00  0.00    +0.000 HD
ENDBRANCH  19  22
BRANCH  20  24
ATOM     24  O   UNL     1      -6.491   1.994 127.772  0.00  0.00    +0.000 OA
ATOM     25  H   UNL     1      -6.269   2.812 127.286  0.00  0.00    +0.000 HD
ENDBRANCH  20  24
BRANCH  21  26
ATOM     26  O   UNL     1      -7.216   0.419 129.943  0.00  0.00    +0.000 OA
ATOM     27  H   UNL     1      -8.027  -0.014 129.612  0.00  0.00    +0.000 HD
ENDBRANCH  21  26
BRANCH  16  28
ATOM     28  C   UNL     1      -8.820   1.387 132.072  0.00  0.00    +0.000 C 
BRANCH  28  29
ATOM     29  O   UNL     1      -9.583   0.187 131.827  0.00  0.00    +0.000 OA
ATOM     30  H   UNL     1      -9.771   0.155 130.868  0.00  0.00    +0.000 HD
ENDBRANCH  28  29
ENDBRANCH  16  28
ENDBRANCH   1  18
BRANCH   6  31
ATOM     31  O   UNL     1      -8.641   5.803 134.421  0.00  0.00    +0.000 OA
ATOM     32  H   UNL     1      -9.388   5.190 134.416  0.00  0.00    +0.000 HD
ENDBRANCH   6  31
BRANCH  15  33
ATOM     33  O   UNL     1     -12.956   7.341 131.893  0.00  0.00    +0.000 OA
ATOM     34  H   UNL     1     -12.750   8.220 132.239  0.00  0.00    +0.000 HD
ENDBRANCH  15  33
BRANCH  13  35
ATOM     35  C   UNL     1     -12.963   7.177 126.964  0.00  0.00    +0.000 C 
BRANCH  35  36
ATOM     36  O   UNL     1     -12.154   6.730 125.885  0.00  0.00    +0.000 OA
ATOM     37  H   UNL     1     -12.335   5.781 125.777  0.00  0.00    +0.000 HD
ENDBRANCH  35  36
ENDBRANCH  13  35
TORSDOF 10
ENDMDL
MODEL 3
REMARK VINA RESULT:      -7.6      6.677      9.852
REMARK  Name = Alloin
REMARK  10 active torsions:
REMARK  status: ('A' for Active; 'I' for Inactive)
REMARK    1  A    between atoms: O_1  and  C_2
REMARK    2  A    between atoms: C_2  and  C_3
REMARK    3  A    between atoms: C_5  and  C_12
REMARK    4  A    between atoms: C_6  and  O_7
REMARK    5  A    between atoms: C_8  and  O_9
REMARK    6  A    between atoms: C_10  and  O_11
REMARK    7  A    between atoms: C_17  and  O_18
REMARK    8  A    between atoms: C_25  and  C_26
REMARK    9  A    between atoms: C_26  and  O_27
REMARK   10  A    between atoms: C_29  and  O_30
REMARK                            x       y       z     vdW  Elec       q    Type
REMARK                         _______ _______ _______ _____ _____    ______ ____
ROOT
ATOM      1  C   UNL     1      -5.282   6.859 131.227  0.00  0.00    +0.000 C 
ATOM      2  C   UNL     1      -4.147   6.635 132.222  0.00  0.00    +0.000 A 
ATOM      3  C   UNL     1      -2.949   7.355 132.033  0.00  0.00    +0.000 A 
ATOM      4  C   UNL     1      -1.733   6.698 132.213  0.00  0.00    +0.000 A 
ATOM      5  C   UNL     1      -1.706   5.476 132.870  0.00  0.00    +0.000 A 
ATOM      6  C   UNL     1      -2.901   4.888 133.298  0.00  0.00    +0.000 A 
ATOM      7  C   UNL     1      -4.139   5.439 132.946  0.00  0.00    +0.000 A 
ATOM      8  C   UNL     1      -5.433   4.728 133.191  0.00  0.00    +0.000 C 
ATOM      9  O   UNL     1      -5.461   3.734 133.882  0.00  0.00    +0.000 OA
ATOM     10  C   UNL     1      -6.692   5.287 132.593  0.00  0.00    +0.000 A 
ATOM     11  C   UNL     1      -6.621   6.349 131.685  0.00  0.00    +0.000 A 
ATOM     12  C   UNL     1      -7.795   6.885 131.113  0.00  0.00    +0.000 A 
ATOM     13  C   UNL     1      -9.053   6.375 131.454  0.00  0.00    +0.000 A 
ATOM     14  C   UNL     1      -9.111   5.315 132.370  0.00  0.00    +0.000 A 
ATOM     15  C   UNL     1      -7.948   4.769 132.921  0.00  0.00    +0.000 A 
ENDROOT
BRANCH   1  18
ATOM     16  C   UNL     1      -3.970   4.082 128.982  0.00  0.00    +0.000 C 
ATOM     17  O   UNL     1      -4.455   4.722 130.172  0.00  0.00    +0.000 OA
ATOM     18  C   UNL     1      -4.883   6.102 129.897  0.00  0.00    +0.000 C 
ATOM     19  C   UNL     1      -3.787   6.909 129.178  0.00  0.00    +0.000 C 
ATOM     20  C   UNL     1      -3.068   6.214 128.058  0.00  0.00    +0.000 C 
ATOM     21  C   UNL     1      -2.689   4.818 128.538  0.00  0.00    +0.000 C 
BRANCH  19  22
ATOM     22  O   UNL     1      -4.208   8.233 128.876  0.00  0.00    +0.000 OA
ATOM     23  H   UNL     1      -3.441   8.824 128.926  0.00  0.00    +0.000 HD
ENDBRANCH  19  22
BRANCH  20  24
ATOM     24  O   UNL     1      -1.874   6.962 127.756  0.00  0.00    +0.000 OA
ATOM     25  H   UNL     1      -2.040   7.895 127.992  0.00  0.00    +0.000 HD
ENDBRANCH  20  24
BRANCH  21  26
ATOM     26  O   UNL     1      -1.972   4.199 127.478  0.00  0.00    +0.000 OA
ATOM     27  H   UNL     1      -2.412   3.338 127.336  0.00  0.00    +0.000 HD
ENDBRANCH  21  26
BRANCH  16  28
ATOM     28  C   UNL     1      -3.706   2.564 129.016  0.00  0.00    +0.000 C 
BRANCH  28  29
ATOM     29  O   UNL     1      -3.806   2.058 127.668  0.00  0.00    +0.000 OA
ATOM     30  H   UNL     1      -4.753   2.070 127.424  0.00  0.00    +0.000 HD
ENDBRANCH  28  29
ENDBRANCH  16  28
ENDBRANCH   1  18
BRANCH   6  31
ATOM     31  O   UNL     1      -2.833   3.711 133.983  0.00  0.00    +0.000 OA
ATOM     32  H   UNL     1      -3.600   3.619 134.565  0.00  0.00    +0.000 HD
ENDBRANCH   6  31
BRANCH  15  33
ATOM     33  O   UNL     1      -8.063   3.725 133.791  0.00  0.00    +0.000 OA
ATOM     34  H   UNL     1      -7.466   3.822 134.545  0.00  0.00    +0.000 HD
ENDBRANCH  15  33
BRANCH  13  35
ATOM     35  C   UNL     1     -10.286   6.992 130.840  0.00  0.00    +0.000 C 
BRANCH  35  36
ATOM     36  O   UNL     1      -9.993   7.721 129.657  0.00  0.00    +0.000 OA
ATOM     37  H   UNL     1      -9.109   8.106 129.780  0.00  0.00    +0.000 HD
ENDBRANCH  35  36
ENDBRANCH  13  35
TORSDOF 10
ENDMDL
MODEL 4
REMARK VINA RESULT:      -7.1      2.686      6.027
REMARK  Name = Alloin
REMARK  10 active torsions:
REMARK  status: ('A' for Active; 'I' for Inactive)
REMARK    1  A    between atoms: O_1  and  C_2
REMARK    2  A    between atoms: C_2  and  C_3
REMARK    3  A    between atoms: C_5  and  C_12
REMARK    4  A    between atoms: C_6  and  O_7
REMARK    5  A    between atoms: C_8  and  O_9
REMARK    6  A    between atoms: C_10  and  O_11
REMARK    7  A    between atoms: C_17  and  O_18
REMARK    8  A    between atoms: C_25  and  C_26
REMARK    9  A    between atoms: C_26  and  O_27
REMARK   10  A    between atoms: C_29  and  O_30
REMARK                            x       y       z     vdW  Elec       q    Type
REMARK                         _______ _______ _______ _____ _____    ______ ____
ROOT
ATOM      1  C   UNL     1      -6.007   0.902 125.806  0.00  0.00    +0.000 C 
ATOM      2  C   UNL     1      -5.455   2.296 125.525  0.00  0.00    +0.000 A 
ATOM      3  C   UNL     1      -4.250   2.670 126.156  0.00  0.00    +0.000 A 
ATOM      4  C   UNL     1      -4.137   3.956 126.682  0.00  0.00    +0.000 A 
ATOM      5  C   UNL     1      -5.052   4.931 126.309  0.00  0.00    +0.000 A 
ATOM      6  C   UNL     1      -6.109   4.604 125.453  0.00  0.00    +0.000 A 
ATOM      7  C   UNL     1      -6.347   3.276 125.080  0.00  0.00    +0.000 A 
ATOM      8  C   UNL     1      -7.586   2.856 124.353  0.00  0.00    +0.000 C 
ATOM      9  O   UNL     1      -8.334   3.689 123.891  0.00  0.00    +0.000 OA
ATOM     10  C   UNL     1      -7.866   1.391 124.182  0.00  0.00    +0.000 A 
ATOM     11  C   UNL     1      -7.070   0.447 124.843  0.00  0.00    +0.000 A 
ATOM     12  C   UNL     1      -7.320  -0.934 124.693  0.00  0.00    +0.000 A 
ATOM     13  C   UNL     1      -8.357  -1.387 123.870  0.00  0.00    +0.000 A 
ATOM     14  C   UNL     1      -9.143  -0.433 123.209  0.00  0.00    +0.000 A 
ATOM     15  C   UNL     1      -8.910   0.936 123.373  0.00  0.00    +0.000 A 
ENDROOT
BRANCH   1  18
ATOM     16  C   UNL     1      -7.619   2.333 128.941  0.00  0.00    +0.000 C 
ATOM     17  O   UNL     1      -7.177   2.267 127.577  0.00  0.00    +0.000 OA
ATOM     18  C   UNL     1      -6.629   0.939 127.259  0.00  0.00    +0.000 C 
ATOM     19  C   UNL     1      -5.550   0.508 128.270  0.00  0.00    +0.000 C 
ATOM     20  C   UNL     1      -5.849   0.761 129.719  0.00  0.00    +0.000 C 
ATOM     21  C   UNL     1      -6.380   2.184 129.848  0.00  0.00    +0.000 C 
BRANCH  19  22
ATOM     22  O   UNL     1      -5.042  -0.791 127.991  0.00  0.00    +0.000 OA
ATOM     23  H   UNL     1      -5.776  -1.357 127.706  0.00  0.00    +0.000 HD
ENDBRANCH  19  22
BRANCH  20  24
ATOM     24  O   UNL     1      -4.620   0.636 130.462  0.00  0.00    +0.000 OA
ATOM     25  H   UNL     1      -3.899   0.487 129.820  0.00  0.00    +0.000 HD
ENDBRANCH  20  24
BRANCH  21  26
ATOM     26  O   UNL     1      -6.613   2.413 131.231  0.00  0.00    +0.000 OA
ATOM     27  H   UNL     1      -7.379   1.853 131.461  0.00  0.00    +0.000 HD
ENDBRANCH  21  26
BRANCH  16  28
ATOM     28  C   UNL     1      -8.442   3.557 129.390  0.00  0.00    +0.000 C 
BRANCH  28  29
ATOM     29  O   UNL     1      -9.815   3.143 129.550  0.00  0.00    +0.000 OA
ATOM     30  H   UNL     1     -10.376   3.916 129.339  0.00  0.00    +0.000 HD
ENDBRANCH  28  29
ENDBRANCH  16  28
ENDBRANCH   1  18
BRANCH   6  31
ATOM     31  O   UNL     1      -6.960   5.597 125.069  0.00  0.00    +0.000 OA
ATOM     32  H   UNL     1      -6.728   6.425 125.511  0.00  0.00    +0.000 HD
ENDBRANCH   6  31
BRANCH  15  33
ATOM     33  O   UNL     1      -9.719   1.821 122.721  0.00  0.00    +0.000 OA
ATOM     34  H   UNL     1      -9.784   1.617 121.779  0.00  0.00    +0.000 HD
ENDBRANCH  15  33
BRANCH  13  35
ATOM     35  C   UNL     1      -8.576  -2.872 123.717  0.00  0.00    +0.000 C 
BRANCH  35  36
ATOM     36  O   UNL     1      -9.951  -3.204 123.585  0.00  0.00    +0.000 OA
ATOM     37  H   UNL     1     -10.241  -2.850 122.727  0.00  0.00    +0.000 HD
ENDBRANCH  35  36
ENDBRANCH  13  35
TORSDOF 10
ENDMDL
MODEL 5
REMARK VINA RESULT:      -7.1      7.136      9.783
REMARK  Name = Alloin
REMARK  10 active torsions:
REMARK  status: ('A' for Active; 'I' for Inactive)
REMARK    1  A    between atoms: O_1  and  C_2
REMARK    2  A    between atoms: C_2  and  C_3
REMARK    3  A    between atoms: C_5  and  C_12
REMARK    4  A    between atoms: C_6  and  O_7
REMARK    5  A    between atoms: C_8  and  O_9
REMARK    6  A    between atoms: C_10  and  O_11
REMARK    7  A    between atoms: C_17  and  O_18
REMARK    8  A    between atoms: C_25  and  C_26
REMARK    9  A    between atoms: C_26  and  O_27
REMARK   10  A    between atoms: C_29  and  O_30
REMARK                            x       y       z     vdW  Elec       q    Type
REMARK                         _______ _______ _______ _____ _____    ______ ____
ROOT
ATOM      1  C   UNL     1      -7.553   6.420 131.622  0.00  0.00    +0.000 C 
ATOM      2  C   UNL     1      -7.526   5.551 132.876  0.00  0.00    +0.000 A 
ATOM      3  C   UNL     1      -6.483   5.760 133.803  0.00  0.00    +0.000 A 
ATOM      4  C   UNL     1      -5.867   4.653 134.384  0.00  0.00    +0.000 A 
ATOM      5  C   UNL     1      -6.476   3.408 134.300  0.00  0.00    +0.000 A 
ATOM      6  C   UNL     1      -7.673   3.264 133.589  0.00  0.00    +0.000 A 
ATOM      7  C   UNL     1      -8.193   4.324 132.837  0.00  0.00    +0.000 A 
ATOM      8  C   UNL     1      -9.340   4.149 131.892  0.00  0.00    +0.000 C 
ATOM      9  O   UNL     1      -9.982   3.122 131.895  0.00  0.00    +0.000 OA
ATOM     10  C   UNL     1      -9.697   5.278 130.967  0.00  0.00    +0.000 A 
ATOM     11  C   UNL     1      -8.860   6.396 130.877  0.00  0.00    +0.000 A 
ATOM     12  C   UNL     1      -9.180   7.464 130.012  0.00  0.00    +0.000 A 
ATOM     13  C   UNL     1     -10.347   7.434 129.241  0.00  0.00    +0.000 A 
ATOM     14  C   UNL     1     -11.180   6.311 129.344  0.00  0.00    +0.000 A 
ATOM     15  C   UNL     1     -10.854   5.242 130.184  0.00  0.00    +0.000 A 
ENDROOT
BRANCH   1  18
ATOM     16  C   UNL     1      -4.824   4.125 130.297  0.00  0.00    +0.000 C 
ATOM     17  O   UNL     1      -5.942   4.553 131.089  0.00  0.00    +0.000 OA
ATOM     18  C   UNL     1      -6.418   5.878 130.664  0.00  0.00    +0.000 C 
ATOM     19  C   UNL     1      -5.275   6.909 130.618  0.00  0.00    +0.000 C 
ATOM     20  C   UNL     1      -3.984   6.453 130.005  0.00  0.00    +0.000 C 
ATOM     21  C   UNL     1      -3.648   5.083 130.581  0.00  0.00    +0.000 C 
BRANCH  19  22
ATOM     22  O   UNL     1      -5.722   8.184 130.172  0.00  0.00    +0.000 OA
ATOM     23  H   UNL     1      -5.376   8.341 129.280  0.00  0.00    +0.000 HD
ENDBRANCH  19  22
BRANCH  20  24
ATOM     24  O   UNL     1      -2.954   7.394 130.368  0.00  0.00    +0.000 OA
ATOM     25  H   UNL     1      -2.891   8.056 129.652  0.00  0.00    +0.000 HD
ENDBRANCH  20  24
BRANCH  21  26
ATOM     26  O   UNL     1      -2.402   4.693 130.020  0.00  0.00    +0.000 OA
ATOM     27  H   UNL     1      -1.804   5.453 130.162  0.00  0.00    +0.000 HD
ENDBRANCH  21  26
BRANCH  16  28
ATOM     28  C   UNL     1      -4.343   2.666 130.429  0.00  0.00    +0.000 C 
BRANCH  28  29
ATOM     29  O   UNL     1      -3.730   2.508 131.726  0.00  0.00    +0.000 OA
ATOM     30  H   UNL     1      -3.697   1.549 131.915  0.00  0.00    +0.000 HD
ENDBRANCH  28  29
ENDBRANCH  16  28
ENDBRANCH   1  18
BRANCH   6  31
ATOM     31  O   UNL     1      -8.268   2.038 133.569  0.00  0.00    +0.000 OA
ATOM     32  H   UNL     1      -8.945   1.984 134.256  0.00  0.00    +0.000 HD
ENDBRANCH   6  31
BRANCH  15  33
ATOM     33  O   UNL     1     -11.690   4.166 130.231  0.00  0.00    +0.000 OA
ATOM     34  H   UNL     1     -11.384   3.451 129.658  0.00  0.00    +0.000 HD
ENDBRANCH  15  33
BRANCH  13  35
ATOM     35  C   UNL     1     -10.667   8.607 128.347  0.00  0.00    +0.000 C 
BRANCH  35  36
ATOM     36  O   UNL     1     -11.992   9.083 128.533  0.00  0.00    +0.000 OA
ATOM     37  H   UNL     1     -12.509   8.336 128.880  0.00  0.00    +0.000 HD
ENDBRANCH  35  36
ENDBRANCH  13  35
TORSDOF 10
ENDMDL
MODEL 6
REMARK VINA RESULT:      -6.9      6.661      9.870
REMARK  Name = Alloin
REMARK  10 active torsions:
REMARK  status: ('A' for Active; 'I' for Inactive)
REMARK    1  A    between atoms: O_1  and  C_2
REMARK    2  A    between atoms: C_2  and  C_3
REMARK    3  A    between atoms: C_5  and  C_12
REMARK    4  A    between atoms: C_6  and  O_7
REMARK    5  A    between atoms: C_8  and  O_9
REMARK    6  A    between atoms: C_10  and  O_11
REMARK    7  A    between atoms: C_17  and  O_18
REMARK    8  A    between atoms: C_25  and  C_26
REMARK    9  A    between atoms: C_26  and  O_27
REMARK   10  A    between atoms: C_29  and  O_30
REMARK                            x       y       z     vdW  Elec       q    Type
REMARK                         _______ _______ _______ _____ _____    ______ ____
ROOT
ATOM      1  C   UNL     1      -5.711   4.681 132.900  0.00  0.00    +0.000 C 
ATOM      2  C   UNL     1      -7.091   5.290 133.131  0.00  0.00    +0.000 A 
ATOM      3  C   UNL     1      -7.957   4.643 134.037  0.00  0.00    +0.000 A 
ATOM      4  C   UNL     1      -9.305   4.517 133.705  0.00  0.00    +0.000 A 
ATOM      5  C   UNL     1      -9.832   5.286 132.678  0.00  0.00    +0.000 A 
ATOM      6  C   UNL     1      -8.998   6.140 131.948  0.00  0.00    +0.000 A 
ATOM      7  C   UNL     1      -7.612   6.126 132.139  0.00  0.00    +0.000 A 
ATOM      8  C   UNL     1      -6.669   6.855 131.233  0.00  0.00    +0.000 C 
ATOM      9  O   UNL     1      -7.095   7.643 130.417  0.00  0.00    +0.000 OA
ATOM     10  C   UNL     1      -5.194   6.615 131.375  0.00  0.00    +0.000 A 
ATOM     11  C   UNL     1      -4.731   5.599 132.221  0.00  0.00    +0.000 A 
ATOM     12  C   UNL     1      -3.348   5.360 132.365  0.00  0.00    +0.000 A 
ATOM     13  C   UNL     1      -2.412   6.142 131.679  0.00  0.00    +0.000 A 
ATOM     14  C   UNL     1      -2.888   7.160 130.840  0.00  0.00    +0.000 A 
ATOM     15  C   UNL     1      -4.258   7.384 130.679  0.00  0.00    +0.000 A 
ENDROOT
BRANCH   1  18
ATOM     16  C   UNL     1      -7.217   2.442 130.219  0.00  0.00    +0.000 C 
ATOM     17  O   UNL     1      -6.937   3.641 130.956  0.00  0.00    +0.000 OA
ATOM     18  C   UNL     1      -5.919   3.405 131.991  0.00  0.00    +0.000 C 
ATOM     19  C   UNL     1      -6.283   2.210 132.891  0.00  0.00    +0.000 C 
ATOM     20  C   UNL     1      -6.807   0.985 132.200  0.00  0.00    +0.000 C 
ATOM     21  C   UNL     1      -7.859   1.429 131.190  0.00  0.00    +0.000 C 
BRANCH  19  22
ATOM     22  O   UNL     1      -5.284   1.953 133.870  0.00  0.00    +0.000 OA
ATOM     23  H   UNL     1      -5.490   2.465 134.667  0.00  0.00    +0.000 HD
ENDBRANCH  19  22
BRANCH  20  24
ATOM     24  O   UNL     1      -7.418   0.135 133.190  0.00  0.00    +0.000 OA
ATOM     25  H   UNL     1      -7.691   0.700 133.939  0.00  0.00    +0.000 HD
ENDBRANCH  20  24
BRANCH  21  26
ATOM     26  O   UNL     1      -8.370   0.250 130.583  0.00  0.00    +0.000 OA
ATOM     27  H   UNL     1      -9.206   0.520 130.154  0.00  0.00    +0.000 HD
ENDBRANCH  21  26
BRANCH  16  28
ATOM     28  C   UNL     1      -8.073   2.544 128.942  0.00  0.00    +0.000 C 
BRANCH  28  29
ATOM     29  O   UNL     1      -9.440   2.792 129.333  0.00  0.00    +0.000 OA
ATOM     30  H   UNL     1      -9.490   2.673 130.302  0.00  0.00    +0.000 HD
ENDBRANCH  28  29
ENDBRANCH  16  28
ENDBRANCH   1  18
BRANCH   6  31
ATOM     31  O   UNL     1      -9.559   6.916 130.977  0.00  0.00    +0.000 OA
ATOM     32  H   UNL     1     -10.132   6.381 130.412  0.00  0.00    +0.000 HD
ENDBRANCH   6  31
BRANCH  15  33
ATOM     33  O   UNL     1      -4.665   8.375 129.835  0.00  0.00    +0.000 OA
ATOM     34  H   UNL     1      -5.607   8.567 129.938  0.00  0.00    +0.000 HD
ENDBRANCH  15  33
BRANCH  13  35
ATOM     35  C   UNL     1      -0.941   5.871 131.880  0.00  0.00    +0.000 C 
BRANCH  35  36
ATOM     36  O   UNL     1      -0.228   7.031 132.282  0.00  0.00    +0.000 OA
ATOM     37  H   UNL     1      -0.833   7.784 132.164  0.00  0.00    +0.000 HD
ENDBRANCH  35  36
ENDBRANCH  13  35
TORSDOF 10
ENDMDL
MODEL 7
REMARK VINA RESULT:      -6.8      3.904      6.672
REMARK  Name = Alloin
REMARK  10 active torsions:
REMARK  status: ('A' for Active; 'I' for Inactive)
REMARK    1  A    between atoms: O_1  and  C_2
REMARK    2  A    between atoms: C_2  and  C_3
REMARK    3  A    between atoms: C_5  and  C_12
REMARK    4  A    between atoms: C_6  and  O_7
REMARK    5  A    between atoms: C_8  and  O_9
REMARK    6  A    between atoms: C_10  and  O_11
REMARK    7  A    between atoms: C_17  and  O_18
REMARK    8  A    between atoms: C_25  and  C_26
REMARK    9  A    between atoms: C_26  and  O_27
REMARK   10  A    between atoms: C_29  and  O_30
REMARK                            x       y       z     vdW  Elec       q    Type
REMARK                         _______ _______ _______ _____ _____    ______ ____
ROOT
ATOM      1  C   UNL     1      -7.249   4.362 127.777  0.00  0.00    +0.000 C 
ATOM      2  C   UNL     1      -5.740   4.130 127.784  0.00  0.00    +0.000 A 
ATOM      3  C   UNL     1      -5.000   4.552 126.660  0.00  0.00    +0.000 A 
ATOM      4  C   UNL     1      -3.994   3.724 126.168  0.00  0.00    +0.000 A 
ATOM      5  C   UNL     1      -3.522   2.679 126.951  0.00  0.00    +0.000 A 
ATOM      6  C   UNL     1      -4.096   2.433 128.203  0.00  0.00    +0.000 A 
ATOM      7  C   UNL     1      -5.236   3.129 128.620  0.00  0.00    +0.000 A 
ATOM      8  C   UNL     1      -6.009   2.746 129.844  0.00  0.00    +0.000 C 
ATOM      9  O   UNL     1      -5.554   1.937 130.623  0.00  0.00    +0.000 OA
ATOM     10  C   UNL     1      -7.334   3.403 130.101  0.00  0.00    +0.000 A 
ATOM     11  C   UNL     1      -7.907   4.224 129.123  0.00  0.00    +0.000 A 
ATOM     12  C   UNL     1      -9.153   4.848 129.349  0.00  0.00    +0.000 A 
ATOM     13  C   UNL     1      -9.831   4.671 130.559  0.00  0.00    +0.000 A 
ATOM     14  C   UNL     1      -9.244   3.851 131.534  0.00  0.00    +0.000 A 
ATOM     15  C   UNL     1      -8.021   3.215 131.303  0.00  0.00    +0.000 A 
ENDROOT
BRANCH   1  18
ATOM     16  C   UNL     1      -7.522   1.181 125.707  0.00  0.00    +0.000 C 
ATOM     17  O   UNL     1      -7.018   2.095 126.693  0.00  0.00    +0.000 OA
ATOM     18  C   UNL     1      -7.873   3.287 126.799  0.00  0.00    +0.000 C 
ATOM     19  C   UNL     1      -8.111   3.945 125.428  0.00  0.00    +0.000 C 
ATOM     20  C   UNL     1      -8.420   3.021 124.285  0.00  0.00    +0.000 C 
ATOM     21  C   UNL     1      -7.421   1.870 124.330  0.00  0.00    +0.000 C 
BRANCH  19  22
ATOM     22  O   UNL     1      -8.968   5.077 125.518  0.00  0.00    +0.000 OA
ATOM     23  H   UNL     1      -8.423   5.873 125.613  0.00  0.00    +0.000 HD
ENDBRANCH  19  22
BRANCH  20  24
ATOM     24  O   UNL     1      -8.255   3.754 123.055  0.00  0.00    +0.000 OA
ATOM     25  H   UNL     1      -7.571   3.299 122.527  0.00  0.00    +0.000 HD
ENDBRANCH  20  24
BRANCH  21  26
ATOM     26  O   UNL     1      -7.705   1.036 123.215  0.00  0.00    +0.000 OA
ATOM     27  H   UNL     1      -7.254   1.454 122.456  0.00  0.00    +0.000 HD
ENDBRANCH  21  26
BRANCH  16  28
ATOM     28  C   UNL     1      -6.903  -0.228 125.624  0.00  0.00    +0.000 C 
BRANCH  28  29
ATOM     29  O   UNL     1      -7.918  -1.139 125.152  0.00  0.00    +0.000 OA
ATOM     30  H   UNL     1      -8.527  -0.625 124.585  0.00  0.00    +0.000 HD
ENDBRANCH  28  29
ENDBRANCH  16  28
ENDBRANCH   1  18
BRANCH   6  31
ATOM     31  O   UNL     1      -3.576   1.429 128.965  0.00  0.00    +0.000 OA
ATOM     32  H   UNL     1      -2.653   1.273 128.727  0.00  0.00    +0.000 HD
ENDBRANCH   6  31
BRANCH  15  33
ATOM     33  O   UNL     1      -7.506   2.412 132.279  0.00  0.00    +0.000 OA
ATOM     34  H   UNL     1      -6.555   2.547 132.386  0.00  0.00    +0.000 HD
ENDBRANCH  15  33
BRANCH  13  35
ATOM     35  C   UNL     1     -11.149   5.375 130.772  0.00  0.00    +0.000 C 
BRANCH  35  36
ATOM     36  O   UNL     1     -11.332   5.783 132.120  0.00  0.00    +0.000 OA
ATOM     37  H   UNL     1     -12.270   6.023 132.212  0.00  0.00    +0.000 HD
ENDBRANCH  35  36
ENDBRANCH  13  35
TORSDOF 10
ENDMDL
MODEL 8
REMARK VINA RESULT:      -6.7      7.223     10.771
REMARK  Name = Alloin
REMARK  10 active torsions:
REMARK  status: ('A' for Active; 'I' for Inactive)
REMARK    1  A    between atoms: O_1  and  C_2
REMARK    2  A    between atoms: C_2  and  C_3
REMARK    3  A    between atoms: C_5  and  C_12
REMARK    4  A    between atoms: C_6  and  O_7
REMARK    5  A    between atoms: C_8  and  O_9
REMARK    6  A    between atoms: C_10  and  O_11
REMARK    7  A    between atoms: C_17  and  O_18
REMARK    8  A    between atoms: C_25  and  C_26
REMARK    9  A    between atoms: C_26  and  O_27
REMARK   10  A    between atoms: C_29  and  O_30
REMARK                            x       y       z     vdW  Elec       q    Type
REMARK                         _______ _______ _______ _____ _____    ______ ____
ROOT
ATOM      1  C   UNL     1      -5.289   5.411 133.884  0.00  0.00    +0.000 C 
ATOM      2  C   UNL     1      -6.810   5.469 133.770  0.00  0.00    +0.000 A 
ATOM      3  C   UNL     1      -7.574   4.882 134.800  0.00  0.00    +0.000 A 
ATOM      4  C   UNL     1      -8.699   4.135 134.460  0.00  0.00    +0.000 A 
ATOM      5  C   UNL     1      -9.230   4.239 133.182  0.00  0.00    +0.000 A 
ATOM      6  C   UNL     1      -8.602   5.050 132.230  0.00  0.00    +0.000 A 
ATOM      7  C   UNL     1      -7.364   5.645 132.499  0.00  0.00    +0.000 A 
ATOM      8  C   UNL     1      -6.557   6.332 131.441  0.00  0.00    +0.000 C 
ATOM      9  O   UNL     1      -7.045   6.564 130.357  0.00  0.00    +0.000 OA
ATOM     10  C   UNL     1      -5.151   6.752 131.760  0.00  0.00    +0.000 A 
ATOM     11  C   UNL     1      -4.559   6.350 132.962  0.00  0.00    +0.000 A 
ATOM     12  C   UNL     1      -3.238   6.736 133.276  0.00  0.00    +0.000 A 
ATOM     13  C   UNL     1      -2.501   7.540 132.400  0.00  0.00    +0.000 A 
ATOM     14  C   UNL     1      -3.108   7.941 131.201  0.00  0.00    +0.000 A 
ATOM     15  C   UNL     1      -4.408   7.542 130.879  0.00  0.00    +0.000 A 
ENDROOT
BRANCH   1  18
ATOM     16  C   UNL     1      -5.635   1.763 132.860  0.00  0.00    +0.000 C 
ATOM     17  O   UNL     1      -6.000   3.139 133.049  0.00  0.00    +0.000 OA
ATOM     18  C   UNL     1      -4.859   3.929 133.535  0.00  0.00    +0.000 C 
ATOM     19  C   UNL     1      -4.213   3.296 134.781  0.00  0.00    +0.000 C 
ATOM     20  C   UNL     1      -4.009   1.809 134.748  0.00  0.00    +0.000 C 
ATOM     21  C   UNL     1      -5.297   1.169 134.243  0.00  0.00    +0.000 C 
BRANCH  19  22
ATOM     22  O   UNL     1      -3.086   4.036 135.235  0.00  0.00    +0.000 OA
ATOM     23  H   UNL     1      -2.824   4.661 134.541  0.00  0.00    +0.000 HD
ENDBRANCH  19  22
BRANCH  20  24
ATOM     24  O   UNL     1      -3.742   1.360 136.091  0.00  0.00    +0.000 OA
ATOM     25  H   UNL     1      -2.899   1.763 136.377  0.00  0.00    +0.000 HD
ENDBRANCH  20  24
BRANCH  21  26
ATOM     26  O   UNL     1      -5.093  -0.237 134.263  0.00  0.00    +0.000 OA
ATOM     27  H   UNL     1      -5.286  -0.514 135.180  0.00  0.00    +0.000 HD
ENDBRANCH  21  26
BRANCH  16  28
ATOM     28  C   UNL     1      -6.622   0.833 132.127  0.00  0.00    +0.000 C 
BRANCH  28  29
ATOM     29  O   UNL     1      -7.719   0.545 133.020  0.00  0.00    +0.000 OA
ATOM     30  H   UNL     1      -7.586  -0.364 133.357  0.00  0.00    +0.000 HD
ENDBRANCH  28  29
ENDBRANCH  16  28
ENDBRANCH   1  18
BRANCH   6  31
ATOM     31  O   UNL     1      -9.178   5.166 131.000  0.00  0.00    +0.000 OA
ATOM     32  H   UNL     1      -8.567   5.595 130.385  0.00  0.00    +0.000 HD
ENDBRANCH   6  31
BRANCH  15  33
ATOM     33  O   UNL     1      -4.942   7.945 129.690  0.00  0.00    +0.000 OA
ATOM     34  H   UNL     1      -4.377   7.701 128.944  0.00  0.00    +0.000 HD
ENDBRANCH  15  33
BRANCH  13  35
ATOM     35  C   UNL     1      -1.101   7.951 132.783  0.00  0.00    +0.000 C 
BRANCH  35  36
ATOM     36  O   UNL     1      -0.125   7.016 132.347  0.00  0.00    +0.000 OA
ATOM     37  H   UNL     1       0.211   7.342 131.494  0.00  0.00    +0.000 HD
ENDBRANCH  35  36
ENDBRANCH  13  35
TORSDOF 10
ENDMDL
MODEL 9
REMARK VINA RESULT:      -6.7      2.790      5.680
REMARK  Name = Alloin
REMARK  10 active torsions:
REMARK  status: ('A' for Active; 'I' for Inactive)
REMARK    1  A    between atoms: O_1  and  C_2
REMARK    2  A    between atoms: C_2  and  C_3
REMARK    3  A    between atoms: C_5  and  C_12
REMARK    4  A    between atoms: C_6  and  O_7
REMARK    5  A    between atoms: C_8  and  O_9
REMARK    6  A    between atoms: C_10  and  O_11
REMARK    7  A    between atoms: C_17  and  O_18
REMARK    8  A    between atoms: C_25  and  C_26
REMARK    9  A    between atoms: C_26  and  O_27
REMARK   10  A    between atoms: C_29  and  O_30
REMARK                            x       y       z     vdW  Elec       q    Type
REMARK                         _______ _______ _______ _____ _____    ______ ____
ROOT
ATOM      1  C   UNL     1      -8.507   1.270 127.335  0.00  0.00    +0.000 C 
ATOM      2  C   UNL     1      -8.540   1.564 128.832  0.00  0.00    +0.000 A 
ATOM      3  C   UNL     1      -9.019   2.824 129.248  0.00  0.00    +0.000 A 
ATOM      4  C   UNL     1      -8.351   3.493 130.272  0.00  0.00    +0.000 A 
ATOM      5  C   UNL     1      -7.450   2.801 131.068  0.00  0.00    +0.000 A 
ATOM      6  C   UNL     1      -7.179   1.454 130.805  0.00  0.00    +0.000 A 
ATOM      7  C   UNL     1      -7.690   0.829 129.662  0.00  0.00    +0.000 A 
ATOM      8  C   UNL     1      -7.249  -0.534 129.228  0.00  0.00    +0.000 C 
ATOM      9  O   UNL     1      -6.576  -1.221 129.965  0.00  0.00    +0.000 OA
ATOM     10  C   UNL     1      -7.680  -1.042 127.882  0.00  0.00    +0.000 A 
ATOM     11  C   UNL     1      -8.334  -0.184 126.990  0.00  0.00    +0.000 A 
ATOM     12  C   UNL     1      -8.745  -0.646 125.721  0.00  0.00    +0.000 A 
ATOM     13  C   UNL     1      -8.522  -1.972 125.337  0.00  0.00    +0.000 A 
ATOM     14  C   UNL     1      -7.872  -2.823 126.241  0.00  0.00    +0.000 A 
ATOM     15  C   UNL     1      -7.445  -2.363 127.490  0.00  0.00    +0.000 A 
ENDROOT
BRANCH   1  18
ATOM     16  C   UNL     1      -5.233   3.205 127.245  0.00  0.00    +0.000 C 
ATOM     17  O   UNL     1      -6.272   2.360 127.761  0.00  0.00    +0.000 OA
ATOM     18  C   UNL     1      -7.287   2.078 126.735  0.00  0.00    +0.000 C 
ATOM     19  C   UNL     1      -7.820   3.369 126.086  0.00  0.00    +0.000 C 
ATOM     20  C   UNL     1      -6.799   4.408 125.725  0.00  0.00    +0.000 C 
ATOM     21  C   UNL     1      -5.859   4.575 126.913  0.00  0.00    +0.000 C 
BRANCH  19  22
ATOM     22  O   UNL     1      -8.775   3.101 125.067  0.00  0.00    +0.000 OA
ATOM     23  H   UNL     1      -8.854   2.141 124.958  0.00  0.00    +0.000 HD
ENDBRANCH  19  22
BRANCH  20  24
ATOM     24  O   UNL     1      -7.488   5.650 125.477  0.00  0.00    +0.000 OA
ATOM     25  H   UNL     1      -7.949   5.903 126.300  0.00  0.00    +0.000 HD
ENDBRANCH  20  24
BRANCH  21  26
ATOM     26  O   UNL     1      -4.931   5.594 126.563  0.00  0.00    +0.000 OA
ATOM     27  H   UNL     1      -5.167   5.859 125.653  0.00  0.00    +0.000 HD
ENDBRANCH  21  26
BRANCH  16  28
ATOM     28  C   UNL     1      -3.961   3.411 128.092  0.00  0.00    +0.000 C 
BRANCH  28  29
ATOM     29  O   UNL     1      -2.850   3.617 127.194  0.00  0.00    +0.000 OA
ATOM     30  H   UNL     1      -2.077   3.860 127.742  0.00  0.00    +0.000 HD
ENDBRANCH  28  29
ENDBRANCH  16  28
ENDBRANCH   1  18
BRANCH   6  31
ATOM     31  O   UNL     1      -6.325   0.792 131.637  0.00  0.00    +0.000 OA
ATOM     32  H   UNL     1      -6.033   1.377 132.349  0.00  0.00    +0.000 HD
ENDBRANCH   6  31
BRANCH  15  33
ATOM     33  O   UNL     1      -6.799  -3.229 128.323  0.00  0.00    +0.000 OA
ATOM     34  H   UNL     1      -7.218  -4.100 128.325  0.00  0.00    +0.000 HD
ENDBRANCH  15  33
BRANCH  13  35
ATOM     35  C   UNL     1      -8.999  -2.433 123.981  0.00  0.00    +0.000 C 
BRANCH  35  36
ATOM     36  O   UNL     1     -10.031  -3.405 124.073  0.00  0.00    +0.000 OA
ATOM     37  H   UNL     1      -9.601  -4.245 124.306  0.00  0.00    +0.000 HD
ENDBRANCH  35  36
ENDBRANCH  13  35
TORSDOF 10
ENDMDL
