MODEL 1
REMARK VINA RESULT:      -5.3      0.000      0.000
REMARK  Name = Allopurinol
REMARK  1 active torsions:
REMARK  status: ('A' for Active; 'I' for Inactive)
REMARK    1  A    between atoms: O_1  and  C_2
REMARK                            x       y       z     vdW  Elec       q    Type
REMARK                         _______ _______ _______ _____ _____    ______ ____
ROOT
ATOM      1  C   UNL     1     -11.384   6.757 131.039  0.00  0.00    +0.000 A 
ATOM      2  N   UNL     1     -10.102   6.475 131.310  0.00  0.00    +0.000 NA
ATOM      3  C   UNL     1      -9.177   7.008 130.475  0.00  0.00    +0.000 A 
ATOM      4  N   UNL     1      -9.373   7.796 129.393  0.00  0.00    +0.000 NA
ATOM      5  C   UNL     1     -10.684   8.022 129.193  0.00  0.00    +0.000 A 
ATOM      6  C   UNL     1     -11.726   7.546 129.958  0.00  0.00    +0.000 A 
ATOM      7  C   UNL     1     -12.885   8.060 129.360  0.00  0.00    +0.000 A 
ATOM      8  N   UNL     1     -12.617   8.796 128.275  0.00  0.00    +0.000 NA
ATOM      9  N   UNL     1     -11.265   8.776 128.211  0.00  0.00    +0.000 N 
ATOM     10  H   UNL     1     -10.800   9.308 127.488  0.00  0.00    +0.000 HD
ENDROOT
BRANCH   1  11
ATOM     11  O   UNL     1     -12.326   6.229 131.875  0.00  0.00    +0.000 OA
ATOM     12  H   UNL     1     -12.700   7.022 132.295  0.00  0.00    +0.000 HD
ENDBRANCH   1  11
TORSDOF 1
ENDMDL
MODEL 2
REMARK VINA RESULT:      -5.2      2.088      3.204
REMARK  Name = Allopurinol
REMARK  1 active torsions:
REMARK  status: ('A' for Active; 'I' for Inactive)
REMARK    1  A    between atoms: O_1  and  C_2
REMARK                            x       y       z     vdW  Elec       q    Type
REMARK                         _______ _______ _______ _____ _____    ______ ____
ROOT
ATOM      1  C   UNL     1     -12.100   8.699 128.756  0.00  0.00    +0.000 A 
ATOM      2  N   UNL     1     -11.332   8.458 127.684  0.00  0.00    +0.000 NA
ATOM      3  C   UNL     1     -10.618   7.306 127.700  0.00  0.00    +0.000 A 
ATOM      4  N   UNL     1     -10.575   6.354 128.660  0.00  0.00    +0.000 NA
ATOM      5  C   UNL     1     -11.368   6.680 129.697  0.00  0.00    +0.000 A 
ATOM      6  C   UNL     1     -12.144   7.812 129.813  0.00  0.00    +0.000 A 
ATOM      7  C   UNL     1     -12.787   7.689 131.054  0.00  0.00    +0.000 A 
ATOM      8  N   UNL     1     -12.438   6.572 131.703  0.00  0.00    +0.000 NA
ATOM      9  N   UNL     1     -11.590   5.964 130.841  0.00  0.00    +0.000 N 
ATOM     10  H   UNL     1     -11.211   5.058 131.082  0.00  0.00    +0.000 HD
ENDROOT
BRANCH   1  11
ATOM     11  O   UNL     1     -12.827   9.855 128.752  0.00  0.00    +0.000 OA
ATOM     12  H   UNL     1     -13.657   9.577 128.329  0.00  0.00    +0.000 HD
ENDBRANCH   1  11
TORSDOF 1
ENDMDL
MODEL 3
REMARK VINA RESULT:      -5.1      2.005      4.048
REMARK  Name = Allopurinol
REMARK  1 active torsions:
REMARK  status: ('A' for Active; 'I' for Inactive)
REMARK    1  A    between atoms: O_1  and  C_2
REMARK                            x       y       z     vdW  Elec       q    Type
REMARK                         _______ _______ _______ _____ _____    ______ ____
ROOT
ATOM      1  C   UNL     1     -10.671   7.539 129.750  0.00  0.00    +0.000 A 
ATOM      2  N   UNL     1     -11.972   7.791 129.545  0.00  0.00    +0.000 NA
ATOM      3  C   UNL     1     -12.831   7.338 130.491  0.00  0.00    +0.000 A 
ATOM      4  N   UNL     1     -12.551   6.659 131.628  0.00  0.00    +0.000 NA
ATOM      5  C   UNL     1     -11.228   6.448 131.749  0.00  0.00    +0.000 A 
ATOM      6  C   UNL     1     -10.248   6.850 130.869  0.00  0.00    +0.000 A 
ATOM      7  C   UNL     1      -9.043   6.409 131.436  0.00  0.00    +0.000 A 
ATOM      8  N   UNL     1      -9.230   5.750 132.586  0.00  0.00    +0.000 NA
ATOM      9  N   UNL     1     -10.570   5.811 132.765  0.00  0.00    +0.000 N 
ATOM     10  H   UNL     1     -10.971   5.417 133.605  0.00  0.00    +0.000 HD
ENDROOT
BRANCH   1  11
ATOM     11  O   UNL     1      -9.795   7.994 128.807  0.00  0.00    +0.000 OA
ATOM     12  H   UNL     1      -9.510   8.846 129.179  0.00  0.00    +0.000 HD
ENDBRANCH   1  11
TORSDOF 1
ENDMDL
MODEL 4
REMARK VINA RESULT:      -5.0      1.983      2.902
REMARK  Name = Allopurinol
REMARK  1 active torsions:
REMARK  status: ('A' for Active; 'I' for Inactive)
REMARK    1  A    between atoms: O_1  and  C_2
REMARK                            x       y       z     vdW  Elec       q    Type
REMARK                         _______ _______ _______ _____ _____    ______ ____
ROOT
ATOM      1  C   UNL     1     -10.338   6.464 129.034  0.00  0.00    +0.000 A 
ATOM      2  N   UNL     1     -10.067   7.235 127.971  0.00  0.00    +0.000 NA
ATOM      3  C   UNL     1     -10.798   8.370 127.846  0.00  0.00    +0.000 A 
ATOM      4  N   UNL     1     -11.775   8.836 128.658  0.00  0.00    +0.000 NA
ATOM      5  C   UNL     1     -11.983   8.000 129.691  0.00  0.00    +0.000 A 
ATOM      6  C   UNL     1     -11.317   6.820 129.940  0.00  0.00    +0.000 A 
ATOM      7  C   UNL     1     -11.878   6.325 131.126  0.00  0.00    +0.000 A 
ATOM      8  N   UNL     1     -12.851   7.114 131.600  0.00  0.00    +0.000 NA
ATOM      9  N   UNL     1     -12.876   8.141 130.718  0.00  0.00    +0.000 N 
ATOM     10  H   UNL     1     -13.510   8.911 130.880  0.00  0.00    +0.000 HD
ENDROOT
BRANCH   1  11
ATOM     11  O   UNL     1      -9.606   5.320 129.173  0.00  0.00    +0.000 OA
ATOM     12  H   UNL     1      -8.785   5.538 128.699  0.00  0.00    +0.000 HD
ENDBRANCH   1  11
TORSDOF 1
ENDMDL
MODEL 5
REMARK VINA RESULT:      -4.9     10.622     11.449
REMARK  Name = Allopurinol
REMARK  1 active torsions:
REMARK  status: ('A' for Active; 'I' for Inactive)
REMARK    1  A    between atoms: O_1  and  C_2
REMARK                            x       y       z     vdW  Elec       q    Type
REMARK                         _______ _______ _______ _____ _____    ______ ____
ROOT
ATOM      1  C   UNL     1      -4.960   5.495 120.540  0.00  0.00    +0.000 A 
ATOM      2  N   UNL     1      -5.326   5.770 119.280  0.00  0.00    +0.000 NA
ATOM      3  C   UNL     1      -6.387   5.080 118.795  0.00  0.00    +0.000 A 
ATOM      4  N   UNL     1      -7.137   4.141 119.416  0.00  0.00    +0.000 NA
ATOM      5  C   UNL     1      -6.697   3.925 120.669  0.00  0.00    +0.000 A 
ATOM      6  C   UNL     1      -5.637   4.551 121.287  0.00  0.00    +0.000 A 
ATOM      7  C   UNL     1      -5.585   3.999 122.575  0.00  0.00    +0.000 A 
ATOM      8  N   UNL     1      -6.527   3.068 122.771  0.00  0.00    +0.000 NA
ATOM      9  N   UNL     1      -7.206   3.062 121.600  0.00  0.00    +0.000 N 
ATOM     10  H   UNL     1      -8.014   2.462 121.505  0.00  0.00    +0.000 HD
ENDROOT
BRANCH   1  11
ATOM     11  O   UNL     1      -3.895   6.186 121.042  0.00  0.00    +0.000 OA
ATOM     12  H   UNL     1      -3.240   5.483 121.189  0.00  0.00    +0.000 HD
ENDBRANCH   1  11
TORSDOF 1
ENDMDL
MODEL 6
REMARK VINA RESULT:      -4.9      1.802      2.397
REMARK  Name = Allopurinol
REMARK  1 active torsions:
REMARK  status: ('A' for Active; 'I' for Inactive)
REMARK    1  A    between atoms: O_1  and  C_2
REMARK                            x       y       z     vdW  Elec       q    Type
REMARK                         _______ _______ _______ _____ _____    ______ ____
ROOT
ATOM      1  C   UNL     1      -9.540   7.130 130.517  0.00  0.00    +0.000 A 
ATOM      2  N   UNL     1      -9.891   6.522 131.658  0.00  0.00    +0.000 NA
ATOM      3  C   UNL     1     -11.221   6.410 131.899  0.00  0.00    +0.000 A 
ATOM      4  N   UNL     1     -12.254   6.833 131.134  0.00  0.00    +0.000 NA
ATOM      5  C   UNL     1     -11.810   7.433 130.015  0.00  0.00    +0.000 A 
ATOM      6  C   UNL     1     -10.496   7.615 129.646  0.00  0.00    +0.000 A 
ATOM      7  C   UNL     1     -10.550   8.274 128.409  0.00  0.00    +0.000 A 
ATOM      8  N   UNL     1     -11.806   8.520 128.015  0.00  0.00    +0.000 NA
ATOM      9  N   UNL     1     -12.554   7.975 129.003  0.00  0.00    +0.000 N 
ATOM     10  H   UNL     1     -13.561   7.989 128.919  0.00  0.00    +0.000 HD
ENDROOT
BRANCH   1  11
ATOM     11  O   UNL     1      -8.204   7.246 130.261  0.00  0.00    +0.000 OA
ATOM     12  H   UNL     1      -7.848   7.514 131.125  0.00  0.00    +0.000 HD
ENDBRANCH   1  11
TORSDOF 1
ENDMDL
MODEL 7
REMARK VINA RESULT:      -4.8     10.331     10.962
REMARK  Name = Allopurinol
REMARK  1 active torsions:
REMARK  status: ('A' for Active; 'I' for Inactive)
REMARK    1  A    between atoms: O_1  and  C_2
REMARK                            x       y       z     vdW  Elec       q    Type
REMARK                         _______ _______ _______ _____ _____    ______ ____
ROOT
ATOM      1  C   UNL     1      -8.637   3.823 120.401  0.00  0.00    +0.000 A 
ATOM      2  N   UNL     1      -8.914   3.233 121.571  0.00  0.00    +0.000 NA
ATOM      3  C   UNL     1      -7.878   3.083 122.433  0.00  0.00    +0.000 A 
ATOM      4  N   UNL     1      -6.587   3.455 122.271  0.00  0.00    +0.000 NA
ATOM      5  C   UNL     1      -6.400   4.032 121.071  0.00  0.00    +0.000 A 
ATOM      6  C   UNL     1      -7.356   4.246 120.104  0.00  0.00    +0.000 A 
ATOM      7  C   UNL     1      -6.679   4.882 119.052  0.00  0.00    +0.000 A 
ATOM      8  N   UNL     1      -5.376   5.048 119.309  0.00  0.00    +0.000 NA
ATOM      9  N   UNL     1      -5.239   4.542 120.558  0.00  0.00    +0.000 N 
ATOM     10  H   UNL     1      -4.335   4.590 121.010  0.00  0.00    +0.000 HD
ENDROOT
BRANCH   1  11
ATOM     11  O   UNL     1      -9.672   3.983 119.525  0.00  0.00    +0.000 OA
ATOM     12  H   UNL     1     -10.435   4.085 120.120  0.00  0.00    +0.000 HD
ENDBRANCH   1  11
TORSDOF 1
ENDMDL
MODEL 8
REMARK VINA RESULT:      -4.7      2.338      2.705
REMARK  Name = Allopurinol
REMARK  1 active torsions:
REMARK  status: ('A' for Active; 'I' for Inactive)
REMARK    1  A    between atoms: O_1  and  C_2
REMARK                            x       y       z     vdW  Elec       q    Type
REMARK                         _______ _______ _______ _____ _____    ______ ____
ROOT
ATOM      1  C   UNL     1     -10.601   6.856 127.559  0.00  0.00    +0.000 A 
ATOM      2  N   UNL     1      -9.670   6.179 128.245  0.00  0.00    +0.000 NA
ATOM      3  C   UNL     1      -9.664   6.355 129.590  0.00  0.00    +0.000 A 
ATOM      4  N   UNL     1     -10.479   7.129 130.342  0.00  0.00    +0.000 NA
ATOM      5  C   UNL     1     -11.376   7.773 129.572  0.00  0.00    +0.000 A 
ATOM      6  C   UNL     1     -11.495   7.688 128.203  0.00  0.00    +0.000 A 
ATOM      7  C   UNL     1     -12.571   8.525 127.876  0.00  0.00    +0.000 A 
ATOM      8  N   UNL     1     -13.097   9.126 128.950  0.00  0.00    +0.000 NA
ATOM      9  N   UNL     1     -12.364   8.630 129.974  0.00  0.00    +0.000 N 
ATOM     10  H   UNL     1     -12.597   8.899 130.920  0.00  0.00    +0.000 HD
ENDROOT
BRANCH   1  11
ATOM     11  O   UNL     1     -10.621   6.684 126.204  0.00  0.00    +0.000 OA
ATOM     12  H   UNL     1     -10.100   5.871 126.089  0.00  0.00    +0.000 HD
ENDBRANCH   1  11
TORSDOF 1
ENDMDL
MODEL 9
REMARK VINA RESULT:      -4.6      2.590      3.155
REMARK  Name = Allopurinol
REMARK  1 active torsions:
REMARK  status: ('A' for Active; 'I' for Inactive)
REMARK    1  A    between atoms: O_1  and  C_2
REMARK                            x       y       z     vdW  Elec       q    Type
REMARK                         _______ _______ _______ _____ _____    ______ ____
ROOT
ATOM      1  C   UNL     1     -10.185   6.683 128.861  0.00  0.00    +0.000 A 
ATOM      2  N   UNL     1      -9.244   5.733 128.770  0.00  0.00    +0.000 NA
ATOM      3  C   UNL     1      -9.200   4.828 129.779  0.00  0.00    +0.000 A 
ATOM      4  N   UNL     1      -9.988   4.751 130.876  0.00  0.00    +0.000 NA
ATOM      5  C   UNL     1     -10.897   5.742 130.887  0.00  0.00    +0.000 A 
ATOM      6  C   UNL     1     -11.053   6.724 129.934  0.00  0.00    +0.000 A 
ATOM      7  C   UNL     1     -12.128   7.504 130.384  0.00  0.00    +0.000 A 
ATOM      8  N   UNL     1     -12.619   7.073 131.553  0.00  0.00    +0.000 NA
ATOM      9  N   UNL     1     -11.865   5.982 131.824  0.00  0.00    +0.000 N 
ATOM     10  H   UNL     1     -12.070   5.437 132.650  0.00  0.00    +0.000 HD
ENDROOT
BRANCH   1  11
ATOM     11  O   UNL     1     -10.242   7.598 127.850  0.00  0.00    +0.000 OA
ATOM     12  H   UNL     1     -10.889   7.199 127.243  0.00  0.00    +0.000 HD
ENDBRANCH   1  11
TORSDOF 1
ENDMDL
