MODEL 1
REMARK VINA RESULT:      -9.3      0.000      0.000
REMARK  Name = Almitrine
REMARK  7 active torsions:
REMARK  status: ('A' for Active; 'I' for Inactive)
REMARK    1  A    between atoms: C_5  and  C_8
REMARK    2  A    between atoms: C_8  and  N_9
REMARK    3  A    between atoms: C_8  and  C_29
REMARK    4  A    between atoms: N_18  and  C_19
REMARK    5  A    between atoms: C_19  and  C_20
REMARK    6  A    between atoms: N_24  and  C_25
REMARK    7  A    between atoms: C_25  and  C_26
REMARK                            x       y       z     vdW  Elec       q    Type
REMARK                         _______ _______ _______ _____ _____    ______ ____
ROOT
ATOM      1  N   UNL     1      -6.580   2.984 124.733  0.00  0.00    +0.000 NA
ATOM      2  C   UNL     1      -6.744   4.452 124.912  0.00  0.00    +0.000 C 
ATOM      3  C   UNL     1      -7.719   4.847 126.046  0.00  0.00    +0.000 C 
ATOM      4  N   UNL     1      -7.460   4.095 127.233  0.00  0.00    +0.000 N 
ATOM      5  C   UNL     1      -7.345   2.662 127.133  0.00  0.00    +0.000 C 
ATOM      6  C   UNL     1      -6.286   2.395 126.071  0.00  0.00    +0.000 C 
ATOM      7  C   UNL     1      -7.758   4.622 128.451  0.00  0.00    +0.000 A 
ATOM      8  N   UNL     1      -6.709   4.614 129.225  0.00  0.00    +0.000 NA
ATOM      9  C   UNL     1      -6.823   5.251 130.365  0.00  0.00    +0.000 A 
ATOM     10  N   UNL     1      -5.677   5.322 131.117  0.00  0.00    +0.000 N 
ATOM     11  N   UNL     1      -7.965   5.796 130.777  0.00  0.00    +0.000 NA
ATOM     12  C   UNL     1      -9.010   5.710 129.943  0.00  0.00    +0.000 A 
ATOM     13  N   UNL     1     -10.207   6.249 130.371  0.00  0.00    +0.000 N 
ATOM     14  N   UNL     1      -8.932   5.159 128.732  0.00  0.00    +0.000 NA
ATOM     15  H   UNL     1      -5.757   5.755 132.019  0.00  0.00    +0.000 HD
ATOM     16  H   UNL     1     -10.212   6.563 131.328  0.00  0.00    +0.000 HD
ENDROOT
BRANCH   1  17
ATOM     17  C   UNL     1      -7.635   2.305 123.892  0.00  0.00    +0.000 C 
BRANCH  17  22
ATOM     18  F   UNL     1      -8.710  -3.196 123.118  0.00  0.00    +0.000 F 
ATOM     19  C   UNL     1      -8.327  -1.969 123.493  0.00  0.00    +0.000 A 
ATOM     20  C   UNL     1      -7.201  -1.392 122.932  0.00  0.00    +0.000 A 
ATOM     21  C   UNL     1      -6.796  -0.098 123.331  0.00  0.00    +0.000 A 
ATOM     22  C   UNL     1      -7.717   0.739 123.988  0.00  0.00    +0.000 A 
ATOM     23  C   UNL     1      -8.811   0.093 124.605  0.00  0.00    +0.000 A 
ATOM     24  C   UNL     1      -9.075  -1.265 124.413  0.00  0.00    +0.000 A 
ENDBRANCH  17  22
BRANCH  17  25
ATOM     25  C   UNL     1      -7.584   2.805 122.418  0.00  0.00    +0.000 A 
ATOM     26  C   UNL     1      -6.338   3.033 121.806  0.00  0.00    +0.000 A 
ATOM     27  C   UNL     1      -6.253   3.725 120.598  0.00  0.00    +0.000 A 
ATOM     28  C   UNL     1      -7.413   4.143 119.959  0.00  0.00    +0.000 A 
ATOM     29  F   UNL     1      -7.329   4.815 118.805  0.00  0.00    +0.000 F 
ATOM     30  C   UNL     1      -8.657   3.855 120.488  0.00  0.00    +0.000 A 
ATOM     31  C   UNL     1      -8.737   3.137 121.678  0.00  0.00    +0.000 A 
ENDBRANCH  17  25
ENDBRANCH   1  17
BRANCH  10  32
ATOM     32  C   UNL     1      -4.470   4.681 130.631  0.00  0.00    +0.000 C 
BRANCH  32  33
ATOM     33  C   UNL     1      -3.345   5.672 130.563  0.00  0.00    +0.000 C 
ATOM     34  C   UNL     1      -2.715   5.997 129.423  0.00  0.00    +0.000 C 
ENDBRANCH  32  33
ENDBRANCH  10  32
BRANCH  13  35
ATOM     35  C   UNL     1     -11.428   6.075 129.617  0.00  0.00    +0.000 C 
BRANCH  35  36
ATOM     36  C   UNL     1     -12.438   7.145 129.962  0.00  0.00    +0.000 C 
ATOM     37  C   UNL     1     -12.831   7.400 131.222  0.00  0.00    +0.000 C 
ENDBRANCH  35  36
ENDBRANCH  13  35
TORSDOF 7
ENDMDL
MODEL 2
REMARK VINA RESULT:      -9.1      1.222      5.519
REMARK  Name = Almitrine
REMARK  7 active torsions:
REMARK  status: ('A' for Active; 'I' for Inactive)
REMARK    1  A    between atoms: C_5  and  C_8
REMARK    2  A    between atoms: C_8  and  N_9
REMARK    3  A    between atoms: C_8  and  C_29
REMARK    4  A    between atoms: N_18  and  C_19
REMARK    5  A    between atoms: C_19  and  C_20
REMARK    6  A    between atoms: N_24  and  C_25
REMARK    7  A    between atoms: C_25  and  C_26
REMARK                            x       y       z     vdW  Elec       q    Type
REMARK                         _______ _______ _______ _____ _____    ______ ____
ROOT
ATOM      1  N   UNL     1      -8.518   2.471 125.022  0.00  0.00    +0.000 NA
ATOM      2  C   UNL     1      -8.572   1.730 126.311  0.00  0.00    +0.000 C 
ATOM      3  C   UNL     1      -7.596   2.261 127.388  0.00  0.00    +0.000 C 
ATOM      4  N   UNL     1      -7.657   3.685 127.481  0.00  0.00    +0.000 N 
ATOM      5  C   UNL     1      -7.556   4.462 126.271  0.00  0.00    +0.000 C 
ATOM      6  C   UNL     1      -8.628   3.926 125.332  0.00  0.00    +0.000 C 
ATOM      7  C   UNL     1      -7.365   4.305 128.655  0.00  0.00    +0.000 A 
ATOM      8  N   UNL     1      -8.346   5.079 129.025  0.00  0.00    +0.000 NA
ATOM      9  C   UNL     1      -8.257   5.598 130.225  0.00  0.00    +0.000 A 
ATOM     10  N   UNL     1      -9.348   6.323 130.636  0.00  0.00    +0.000 N 
ATOM     11  N   UNL     1      -7.189   5.441 131.003  0.00  0.00    +0.000 NA
ATOM     12  C   UNL     1      -6.201   4.675 130.523  0.00  0.00    +0.000 A 
ATOM     13  N   UNL     1      -5.075   4.525 131.310  0.00  0.00    +0.000 N 
ATOM     14  N   UNL     1      -6.272   4.043 129.352  0.00  0.00    +0.000 NA
ATOM     15  H   UNL     1      -9.277   6.776 131.529  0.00  0.00    +0.000 HD
ATOM     16  H   UNL     1      -5.056   5.104 132.135  0.00  0.00    +0.000 HD
ENDROOT
BRANCH   1  17
ATOM     17  C   UNL     1      -7.429   2.045 124.067  0.00  0.00    +0.000 C 
BRANCH  17  22
ATOM     18  F   UNL     1      -5.192   4.738 119.622  0.00  0.00    +0.000 F 
ATOM     19  C   UNL     1      -5.818   4.317 120.728  0.00  0.00    +0.000 A 
ATOM     20  C   UNL     1      -7.077   3.751 120.640  0.00  0.00    +0.000 A 
ATOM     21  C   UNL     1      -7.737   3.310 121.809  0.00  0.00    +0.000 A 
ATOM     22  C   UNL     1      -6.989   3.092 122.981  0.00  0.00    +0.000 A 
ATOM     23  C   UNL     1      -5.742   3.750 123.051  0.00  0.00    +0.000 A 
ATOM     24  C   UNL     1      -5.191   4.415 121.953  0.00  0.00    +0.000 A 
ENDBRANCH  17  22
BRANCH  17  25
ATOM     25  C   UNL     1      -7.738   0.649 123.451  0.00  0.00    +0.000 A 
ATOM     26  C   UNL     1      -9.066   0.312 123.130  0.00  0.00    +0.000 A 
ATOM     27  C   UNL     1      -9.414  -1.005 122.830  0.00  0.00    +0.000 A 
ATOM     28  C   UNL     1      -8.433  -1.986 122.790  0.00  0.00    +0.000 A 
ATOM     29  F   UNL     1      -8.771  -3.251 122.513  0.00  0.00    +0.000 F 
ATOM     30  C   UNL     1      -7.106  -1.672 123.011  0.00  0.00    +0.000 A 
ATOM     31  C   UNL     1      -6.759  -0.350 123.278  0.00  0.00    +0.000 A 
ENDBRANCH  17  25
ENDBRANCH   1  17
BRANCH  10  32
ATOM     32  C   UNL     1     -10.470   6.486 129.732  0.00  0.00    +0.000 C 
BRANCH  32  33
ATOM     33  C   UNL     1     -10.641   7.932 129.369  0.00  0.00    +0.000 C 
ATOM     34  C   UNL     1     -10.536   8.395 128.113  0.00  0.00    +0.000 C 
ENDBRANCH  32  33
ENDBRANCH  10  32
BRANCH  13  35
ATOM     35  C   UNL     1      -3.895   3.849 130.823  0.00  0.00    +0.000 C 
BRANCH  35  36
ATOM     36  C   UNL     1      -2.902   4.833 130.248  0.00  0.00    +0.000 C 
ATOM     37  C   UNL     1      -2.746   5.027 128.927  0.00  0.00    +0.000 C 
ENDBRANCH  35  36
ENDBRANCH  13  35
TORSDOF 7
ENDMDL
MODEL 3
REMARK VINA RESULT:      -9.0      3.331      6.247
REMARK  Name = Almitrine
REMARK  7 active torsions:
REMARK  status: ('A' for Active; 'I' for Inactive)
REMARK    1  A    between atoms: C_5  and  C_8
REMARK    2  A    between atoms: C_8  and  N_9
REMARK    3  A    between atoms: C_8  and  C_29
REMARK    4  A    between atoms: N_18  and  C_19
REMARK    5  A    between atoms: C_19  and  C_20
REMARK    6  A    between atoms: N_24  and  C_25
REMARK    7  A    between atoms: C_25  and  C_26
REMARK                            x       y       z     vdW  Elec       q    Type
REMARK                         _______ _______ _______ _____ _____    ______ ____
ROOT
ATOM      1  N   UNL     1      -7.332   2.051 126.850  0.00  0.00    +0.000 NA
ATOM      2  C   UNL     1      -8.586   1.627 127.529  0.00  0.00    +0.000 C 
ATOM      3  C   UNL     1      -8.752   2.188 128.961  0.00  0.00    +0.000 C 
ATOM      4  N   UNL     1      -8.458   3.585 129.004  0.00  0.00    +0.000 N 
ATOM      5  C   UNL     1      -7.229   4.052 128.411  0.00  0.00    +0.000 C 
ATOM      6  C   UNL     1      -7.226   3.533 126.979  0.00  0.00    +0.000 C 
ATOM      7  C   UNL     1      -9.050   4.377 129.937  0.00  0.00    +0.000 A 
ATOM      8  N   UNL     1      -9.660   5.380 129.370  0.00  0.00    +0.000 NA
ATOM      9  C   UNL     1     -10.411   6.120 130.149  0.00  0.00    +0.000 A 
ATOM     10  N   UNL     1     -11.128   7.103 129.516  0.00  0.00    +0.000 N 
ATOM     11  N   UNL     1     -10.485   5.939 131.466  0.00  0.00    +0.000 NA
ATOM     12  C   UNL     1      -9.781   4.919 131.975  0.00  0.00    +0.000 A 
ATOM     13  N   UNL     1      -9.828   4.738 133.344  0.00  0.00    +0.000 N 
ATOM     14  N   UNL     1      -9.074   4.075 131.224  0.00  0.00    +0.000 NA
ATOM     15  H   UNL     1     -11.665   7.717 130.101  0.00  0.00    +0.000 HD
ATOM     16  H   UNL     1     -10.305   5.467 133.851  0.00  0.00    +0.000 HD
ENDROOT
BRANCH   1  17
ATOM     17  C   UNL     1      -6.103   1.237 127.178  0.00  0.00    +0.000 C 
BRANCH  17  22
ATOM     18  F   UNL     1      -2.067   5.153 127.804  0.00  0.00    +0.000 F 
ATOM     19  C   UNL     1      -2.837   4.069 127.646  0.00  0.00    +0.000 A 
ATOM     20  C   UNL     1      -3.359   3.421 128.752  0.00  0.00    +0.000 A 
ATOM     21  C   UNL     1      -4.170   2.276 128.583  0.00  0.00    +0.000 A 
ATOM     22  C   UNL     1      -4.751   2.024 127.327  0.00  0.00    +0.000 A 
ATOM     23  C   UNL     1      -4.136   2.652 126.222  0.00  0.00    +0.000 A 
ATOM     24  C   UNL     1      -3.140   3.618 126.378  0.00  0.00    +0.000 A 
ENDBRANCH  17  22
BRANCH  17  25
ATOM     25  C   UNL     1      -5.972   0.012 126.225  0.00  0.00    +0.000 A 
ATOM     26  C   UNL     1      -6.418   0.117 124.895  0.00  0.00    +0.000 A 
ATOM     27  C   UNL     1      -6.563  -1.019 124.099  0.00  0.00    +0.000 A 
ATOM     28  C   UNL     1      -6.207  -2.263 124.603  0.00  0.00    +0.000 A 
ATOM     29  F   UNL     1      -6.356  -3.353 123.841  0.00  0.00    +0.000 F 
ATOM     30  C   UNL     1      -5.680  -2.390 125.873  0.00  0.00    +0.000 A 
ATOM     31  C   UNL     1      -5.508  -1.249 126.652  0.00  0.00    +0.000 A 
ENDBRANCH  17  25
ENDBRANCH   1  17
BRANCH  10  32
ATOM     32  C   UNL     1     -10.983   7.273 128.082  0.00  0.00    +0.000 C 
BRANCH  32  33
ATOM     33  C   UNL     1     -12.326   7.225 127.413  0.00  0.00    +0.000 C 
ATOM     34  C   UNL     1     -13.486   7.204 128.088  0.00  0.00    +0.000 C 
ENDBRANCH  32  33
ENDBRANCH  10  32
BRANCH  13  35
ATOM     35  C   UNL     1      -8.988   3.767 134.008  0.00  0.00    +0.000 C 
BRANCH  35  36
ATOM     36  C   UNL     1      -7.793   4.431 134.650  0.00  0.00    +0.000 C 
ATOM     37  C   UNL     1      -7.858   5.634 135.246  0.00  0.00    +0.000 C 
ENDBRANCH  35  36
ENDBRANCH  13  35
TORSDOF 7
ENDMDL
MODEL 4
REMARK VINA RESULT:      -8.9      1.466      2.116
REMARK  Name = Almitrine
REMARK  7 active torsions:
REMARK  status: ('A' for Active; 'I' for Inactive)
REMARK    1  A    between atoms: C_5  and  C_8
REMARK    2  A    between atoms: C_8  and  N_9
REMARK    3  A    between atoms: C_8  and  C_29
REMARK    4  A    between atoms: N_18  and  C_19
REMARK    5  A    between atoms: C_19  and  C_20
REMARK    6  A    between atoms: N_24  and  C_25
REMARK    7  A    between atoms: C_25  and  C_26
REMARK                            x       y       z     vdW  Elec       q    Type
REMARK                         _______ _______ _______ _____ _____    ______ ____
ROOT
ATOM      1  N   UNL     1      -6.725   1.925 125.248  0.00  0.00    +0.000 NA
ATOM      2  C   UNL     1      -6.382   3.367 125.376  0.00  0.00    +0.000 C 
ATOM      3  C   UNL     1      -7.416   4.195 126.175  0.00  0.00    +0.000 C 
ATOM      4  N   UNL     1      -7.786   3.529 127.384  0.00  0.00    +0.000 N 
ATOM      5  C   UNL     1      -8.181   2.144 127.317  0.00  0.00    +0.000 C 
ATOM      6  C   UNL     1      -7.046   1.413 126.612  0.00  0.00    +0.000 C 
ATOM      7  C   UNL     1      -8.192   4.250 128.463  0.00  0.00    +0.000 A 
ATOM      8  N   UNL     1      -7.474   3.955 129.510  0.00  0.00    +0.000 NA
ATOM      9  C   UNL     1      -7.655   4.706 130.569  0.00  0.00    +0.000 A 
ATOM     10  N   UNL     1      -6.816   4.449 131.624  0.00  0.00    +0.000 N 
ATOM     11  N   UNL     1      -8.583   5.658 130.630  0.00  0.00    +0.000 NA
ATOM     12  C   UNL     1      -9.316   5.858 129.526  0.00  0.00    +0.000 A 
ATOM     13  N   UNL     1     -10.300   6.825 129.586  0.00  0.00    +0.000 N 
ATOM     14  N   UNL     1      -9.117   5.192 128.389  0.00  0.00    +0.000 NA
ATOM     15  H   UNL     1      -6.976   4.974 132.464  0.00  0.00    +0.000 HD
ATOM     16  H   UNL     1     -10.452   7.218 130.501  0.00  0.00    +0.000 HD
ENDROOT
BRANCH   1  17
ATOM     17  C   UNL     1      -7.681   1.576 124.132  0.00  0.00    +0.000 C 
BRANCH  17  22
ATOM     18  F   UNL     1      -7.944  -4.073 123.958  0.00  0.00    +0.000 F 
ATOM     19  C   UNL     1      -7.884  -2.751 123.757  0.00  0.00    +0.000 A 
ATOM     20  C   UNL     1      -9.044  -1.998 123.747  0.00  0.00    +0.000 A 
ATOM     21  C   UNL     1      -8.980  -0.603 123.532  0.00  0.00    +0.000 A 
ATOM     22  C   UNL     1      -7.754   0.064 123.708  0.00  0.00    +0.000 A 
ATOM     23  C   UNL     1      -6.595  -0.740 123.637  0.00  0.00    +0.000 A 
ATOM     24  C   UNL     1      -6.661  -2.134 123.594  0.00  0.00    +0.000 A 
ENDBRANCH  17  22
BRANCH  17  25
ATOM     25  C   UNL     1      -7.488   2.523 122.912  0.00  0.00    +0.000 A 
ATOM     26  C   UNL     1      -8.616   3.066 122.270  0.00  0.00    +0.000 A 
ATOM     27  C   UNL     1      -8.498   3.694 121.030  0.00  0.00    +0.000 A 
ATOM     28  C   UNL     1      -7.246   3.838 120.446  0.00  0.00    +0.000 A 
ATOM     29  F   UNL     1      -7.136   4.432 119.252  0.00  0.00    +0.000 F 
ATOM     30  C   UNL     1      -6.107   3.397 121.092  0.00  0.00    +0.000 A 
ATOM     31  C   UNL     1      -6.227   2.800 122.344  0.00  0.00    +0.000 A 
ENDBRANCH  17  25
ENDBRANCH   1  17
BRANCH  10  32
ATOM     32  C   UNL     1      -5.844   3.378 131.511  0.00  0.00    +0.000 C 
BRANCH  32  33
ATOM     33  C   UNL     1      -6.034   2.382 132.618  0.00  0.00    +0.000 C 
ATOM     34  C   UNL     1      -7.106   2.373 133.426  0.00  0.00    +0.000 C 
ENDBRANCH  32  33
ENDBRANCH  10  32
BRANCH  13  35
ATOM     35  C   UNL     1     -11.243   7.012 128.507  0.00  0.00    +0.000 C 
BRANCH  35  36
ATOM     36  C   UNL     1     -11.594   8.472 128.338  0.00  0.00    +0.000 C 
ATOM     37  C   UNL     1     -12.666   9.038 128.919  0.00  0.00    +0.000 C 
ENDBRANCH  35  36
ENDBRANCH  13  35
TORSDOF 7
ENDMDL
MODEL 5
REMARK VINA RESULT:      -8.5      2.542      3.538
REMARK  Name = Almitrine
REMARK  7 active torsions:
REMARK  status: ('A' for Active; 'I' for Inactive)
REMARK    1  A    between atoms: C_5  and  C_8
REMARK    2  A    between atoms: C_8  and  N_9
REMARK    3  A    between atoms: C_8  and  C_29
REMARK    4  A    between atoms: N_18  and  C_19
REMARK    5  A    between atoms: C_19  and  C_20
REMARK    6  A    between atoms: N_24  and  C_25
REMARK    7  A    between atoms: C_25  and  C_26
REMARK                            x       y       z     vdW  Elec       q    Type
REMARK                         _______ _______ _______ _____ _____    ______ ____
ROOT
ATOM      1  N   UNL     1      -6.905   2.357 128.041  0.00  0.00    +0.000 NA
ATOM      2  C   UNL     1      -6.836   3.841 128.100  0.00  0.00    +0.000 C 
ATOM      3  C   UNL     1      -8.182   4.526 128.436  0.00  0.00    +0.000 C 
ATOM      4  N   UNL     1      -8.825   3.884 129.538  0.00  0.00    +0.000 N 
ATOM      5  C   UNL     1      -8.972   2.450 129.514  0.00  0.00    +0.000 C 
ATOM      6  C   UNL     1      -7.576   1.885 129.287  0.00  0.00    +0.000 C 
ATOM      7  C   UNL     1      -9.661   4.590 130.345  0.00  0.00    +0.000 A 
ATOM      8  N   UNL     1      -9.289   4.493 131.591  0.00  0.00    +0.000 NA
ATOM      9  C   UNL     1      -9.912   5.268 132.446  0.00  0.00    +0.000 A 
ATOM     10  N   UNL     1      -9.436   5.229 133.731  0.00  0.00    +0.000 N 
ATOM     11  N   UNL     1     -10.937   6.044 132.103  0.00  0.00    +0.000 NA
ATOM     12  C   UNL     1     -11.291   6.042 130.811  0.00  0.00    +0.000 A 
ATOM     13  N   UNL     1     -12.370   6.824 130.447  0.00  0.00    +0.000 N 
ATOM     14  N   UNL     1     -10.637   5.350 129.877  0.00  0.00    +0.000 NA
ATOM     15  H   UNL     1      -9.935   5.771 134.413  0.00  0.00    +0.000 HD
ATOM     16  H   UNL     1     -12.867   7.242 131.217  0.00  0.00    +0.000 HD
ENDROOT
BRANCH   1  17
ATOM     17  C   UNL     1      -7.384   1.775 126.732  0.00  0.00    +0.000 C 
BRANCH  17  22
ATOM     18  F   UNL     1      -7.343  -3.602 124.973  0.00  0.00    +0.000 F 
ATOM     19  C   UNL     1      -7.368  -2.426 125.611  0.00  0.00    +0.000 A 
ATOM     20  C   UNL     1      -6.184  -1.791 125.943  0.00  0.00    +0.000 A 
ATOM     21  C   UNL     1      -6.213  -0.550 126.620  0.00  0.00    +0.000 A 
ATOM     22  C   UNL     1      -7.398   0.208 126.615  0.00  0.00    +0.000 A 
ATOM     23  C   UNL     1      -8.587  -0.502 126.341  0.00  0.00    +0.000 A 
ATOM     24  C   UNL     1      -8.576  -1.829 125.907  0.00  0.00    +0.000 A 
ENDBRANCH  17  22
BRANCH  17  25
ATOM     25  C   UNL     1      -6.670   2.451 125.524  0.00  0.00    +0.000 A 
ATOM     26  C   UNL     1      -5.400   3.029 125.704  0.00  0.00    +0.000 A 
ATOM     27  C   UNL     1      -4.852   3.865 124.731  0.00  0.00    +0.000 A 
ATOM     28  C   UNL     1      -5.539   4.084 123.545  0.00  0.00    +0.000 A 
ATOM     29  F   UNL     1      -5.016   4.895 122.617  0.00  0.00    +0.000 F 
ATOM     30  C   UNL     1      -6.746   3.460 123.298  0.00  0.00    +0.000 A 
ATOM     31  C   UNL     1      -7.274   2.602 124.259  0.00  0.00    +0.000 A 
ENDBRANCH  17  25
ENDBRANCH   1  17
BRANCH  10  32
ATOM     32  C   UNL     1      -8.336   4.339 134.052  0.00  0.00    +0.000 C 
BRANCH  32  33
ATOM     33  C   UNL     1      -7.301   5.062 134.865  0.00  0.00    +0.000 C 
ATOM     34  C   UNL     1      -7.596   5.801 135.946  0.00  0.00    +0.000 C 
ENDBRANCH  32  33
ENDBRANCH  10  32
BRANCH  13  35
ATOM     35  C   UNL     1     -12.926   6.774 129.114  0.00  0.00    +0.000 C 
BRANCH  35  36
ATOM     36  C   UNL     1     -12.625   8.044 128.352  0.00  0.00    +0.000 C 
ATOM     37  C   UNL     1     -13.235   9.213 128.611  0.00  0.00    +0.000 C 
ENDBRANCH  35  36
ENDBRANCH  13  35
TORSDOF 7
ENDMDL
MODEL 6
REMARK VINA RESULT:      -8.3      4.654      8.132
REMARK  Name = Almitrine
REMARK  7 active torsions:
REMARK  status: ('A' for Active; 'I' for Inactive)
REMARK    1  A    between atoms: C_5  and  C_8
REMARK    2  A    between atoms: C_8  and  N_9
REMARK    3  A    between atoms: C_8  and  C_29
REMARK    4  A    between atoms: N_18  and  C_19
REMARK    5  A    between atoms: C_19  and  C_20
REMARK    6  A    between atoms: N_24  and  C_25
REMARK    7  A    between atoms: C_25  and  C_26
REMARK                            x       y       z     vdW  Elec       q    Type
REMARK                         _______ _______ _______ _____ _____    ______ ____
ROOT
ATOM      1  N   UNL     1      -6.599  -0.523 130.399  0.00  0.00    +0.000 NA
ATOM      2  C   UNL     1      -5.628   0.567 130.117  0.00  0.00    +0.000 C 
ATOM      3  C   UNL     1      -5.919   1.355 128.817  0.00  0.00    +0.000 C 
ATOM      4  N   UNL     1      -7.300   1.708 128.728  0.00  0.00    +0.000 N 
ATOM      5  C   UNL     1      -8.292   0.682 128.938  0.00  0.00    +0.000 C 
ATOM      6  C   UNL     1      -7.971   0.053 130.287  0.00  0.00    +0.000 C 
ATOM      7  C   UNL     1      -7.677   2.818 128.040  0.00  0.00    +0.000 A 
ATOM      8  N   UNL     1      -8.390   3.608 128.793  0.00  0.00    +0.000 NA
ATOM      9  C   UNL     1      -8.669   4.789 128.297  0.00  0.00    +0.000 A 
ATOM     10  N   UNL     1      -9.328   5.643 129.145  0.00  0.00    +0.000 N 
ATOM     11  N   UNL     1      -8.340   5.149 127.059  0.00  0.00    +0.000 NA
ATOM     12  C   UNL     1      -7.655   4.256 126.333  0.00  0.00    +0.000 A 
ATOM     13  N   UNL     1      -7.331   4.608 125.037  0.00  0.00    +0.000 N 
ATOM     14  N   UNL     1      -7.260   3.076 126.811  0.00  0.00    +0.000 NA
ATOM     15  H   UNL     1      -9.601   6.532 128.767  0.00  0.00    +0.000 HD
ATOM     16  H   UNL     1      -7.741   5.471 124.718  0.00  0.00    +0.000 HD
ENDROOT
BRANCH   1  17
ATOM     17  C   UNL     1      -6.337  -1.832 129.694  0.00  0.00    +0.000 C 
BRANCH  17  22
ATOM     18  F   UNL     1      -8.776  -4.105 125.123  0.00  0.00    +0.000 F 
ATOM     19  C   UNL     1      -8.374  -3.400 126.187  0.00  0.00    +0.000 A 
ATOM     20  C   UNL     1      -8.803  -3.752 127.455  0.00  0.00    +0.000 A 
ATOM     21  C   UNL     1      -8.379  -3.005 128.577  0.00  0.00    +0.000 A 
ATOM     22  C   UNL     1      -7.253  -2.170 128.462  0.00  0.00    +0.000 A 
ATOM     23  C   UNL     1      -6.900  -1.782 127.151  0.00  0.00    +0.000 A 
ATOM     24  C   UNL     1      -7.503  -2.343 126.023  0.00  0.00    +0.000 A 
ENDBRANCH  17  22
BRANCH  17  25
ATOM     25  C   UNL     1      -6.256  -3.010 130.710  0.00  0.00    +0.000 A 
ATOM     26  C   UNL     1      -6.763  -2.839 132.011  0.00  0.00    +0.000 A 
ATOM     27  C   UNL     1      -6.473  -3.762 133.016  0.00  0.00    +0.000 A 
ATOM     28  C   UNL     1      -5.726  -4.893 132.719  0.00  0.00    +0.000 A 
ATOM     29  F   UNL     1      -5.442  -5.772 133.687  0.00  0.00    +0.000 F 
ATOM     30  C   UNL     1      -5.291  -5.138 131.430  0.00  0.00    +0.000 A 
ATOM     31  C   UNL     1      -5.609  -4.230 130.424  0.00  0.00    +0.000 A 
ENDBRANCH  17  25
ENDBRANCH   1  17
BRANCH  10  32
ATOM     32  C   UNL     1      -9.688   5.184 130.473  0.00  0.00    +0.000 C 
BRANCH  32  33
ATOM     33  C   UNL     1     -11.076   5.635 130.822  0.00  0.00    +0.000 C 
ATOM     34  C   UNL     1     -11.356   6.409 131.882  0.00  0.00    +0.000 C 
ENDBRANCH  32  33
ENDBRANCH  10  32
BRANCH  13  35
ATOM     35  C   UNL     1      -6.731   3.662 124.123  0.00  0.00    +0.000 C 
BRANCH  35  36
ATOM     36  C   UNL     1      -5.618   4.304 123.328  0.00  0.00    +0.000 C 
ATOM     37  C   UNL     1      -5.470   4.128 122.004  0.00  0.00    +0.000 C 
ENDBRANCH  35  36
ENDBRANCH  13  35
TORSDOF 7
ENDMDL
MODEL 7
REMARK VINA RESULT:      -8.3      3.143      6.812
REMARK  Name = Almitrine
REMARK  7 active torsions:
REMARK  status: ('A' for Active; 'I' for Inactive)
REMARK    1  A    between atoms: C_5  and  C_8
REMARK    2  A    between atoms: C_8  and  N_9
REMARK    3  A    between atoms: C_8  and  C_29
REMARK    4  A    between atoms: N_18  and  C_19
REMARK    5  A    between atoms: C_19  and  C_20
REMARK    6  A    between atoms: N_24  and  C_25
REMARK    7  A    between atoms: C_25  and  C_26
REMARK                            x       y       z     vdW  Elec       q    Type
REMARK                         _______ _______ _______ _____ _____    ______ ____
ROOT
ATOM      1  N   UNL     1      -8.121   0.443 128.405  0.00  0.00    +0.000 NA
ATOM      2  C   UNL     1      -7.681   0.657 129.809  0.00  0.00    +0.000 C 
ATOM      3  C   UNL     1      -6.715   1.851 129.997  0.00  0.00    +0.000 C 
ATOM      4  N   UNL     1      -7.187   3.008 129.305  0.00  0.00    +0.000 N 
ATOM      5  C   UNL     1      -7.578   2.877 127.923  0.00  0.00    +0.000 C 
ATOM      6  C   UNL     1      -8.604   1.753 127.878  0.00  0.00    +0.000 C 
ATOM      7  C   UNL     1      -6.863   4.250 129.755  0.00  0.00    +0.000 A 
ATOM      8  N   UNL     1      -7.936   4.963 129.951  0.00  0.00    +0.000 NA
ATOM      9  C   UNL     1      -7.766   6.119 130.546  0.00  0.00    +0.000 A 
ATOM     10  N   UNL     1      -8.917   6.806 130.839  0.00  0.00    +0.000 N 
ATOM     11  N   UNL     1      -6.565   6.604 130.851  0.00  0.00    +0.000 NA
ATOM     12  C   UNL     1      -5.511   5.829 130.564  0.00  0.00    +0.000 A 
ATOM     13  N   UNL     1      -4.257   6.333 130.853  0.00  0.00    +0.000 N 
ATOM     14  N   UNL     1      -5.624   4.606 130.047  0.00  0.00    +0.000 NA
ATOM     15  H   UNL     1      -8.806   7.718 131.242  0.00  0.00    +0.000 HD
ATOM     16  H   UNL     1      -4.247   7.295 131.154  0.00  0.00    +0.000 HD
ENDROOT
BRANCH   1  17
ATOM     17  C   UNL     1      -7.174  -0.348 127.535  0.00  0.00    +0.000 C 
BRANCH  17  22
ATOM     18  F   UNL     1      -7.985  -2.243 122.266  0.00  0.00    +0.000 F 
ATOM     19  C   UNL     1      -7.923  -1.603 123.440  0.00  0.00    +0.000 A 
ATOM     20  C   UNL     1      -8.846  -1.883 124.432  0.00  0.00    +0.000 A 
ATOM     21  C   UNL     1      -8.781  -1.205 125.670  0.00  0.00    +0.000 A 
ATOM     22  C   UNL     1      -7.590  -0.548 126.033  0.00  0.00    +0.000 A 
ATOM     23  C   UNL     1      -6.716  -0.220 124.974  0.00  0.00    +0.000 A 
ATOM     24  C   UNL     1      -6.918  -0.688 123.673  0.00  0.00    +0.000 A 
ENDBRANCH  17  22
BRANCH  17  25
ATOM     25  C   UNL     1      -6.771  -1.687 128.219  0.00  0.00    +0.000 A 
ATOM     26  C   UNL     1      -7.773  -2.544 128.711  0.00  0.00    +0.000 A 
ATOM     27  C   UNL     1      -7.452  -3.607 129.555  0.00  0.00    +0.000 A 
ATOM     28  C   UNL     1      -6.124  -3.861 129.868  0.00  0.00    +0.000 A 
ATOM     29  F   UNL     1      -5.818  -4.876 130.686  0.00  0.00    +0.000 F 
ATOM     30  C   UNL     1      -5.108  -3.095 129.329  0.00  0.00    +0.000 A 
ATOM     31  C   UNL     1      -5.431  -2.055 128.462  0.00  0.00    +0.000 A 
ENDBRANCH  17  25
ENDBRANCH   1  17
BRANCH  10  32
ATOM     32  C   UNL     1     -10.196   6.241 130.453  0.00  0.00    +0.000 C 
BRANCH  32  33
ATOM     33  C   UNL     1     -11.202   6.431 131.551  0.00  0.00    +0.000 C 
ATOM     34  C   UNL     1     -12.330   7.143 131.403  0.00  0.00    +0.000 C 
ENDBRANCH  32  33
ENDBRANCH  10  32
BRANCH  13  35
ATOM     35  C   UNL     1      -3.053   5.647 130.444  0.00  0.00    +0.000 C 
BRANCH  35  36
ATOM     36  C   UNL     1      -2.224   6.507 129.518  0.00  0.00    +0.000 C 
ATOM     37  C   UNL     1      -2.486   6.630 128.205  0.00  0.00    +0.000 C 
ENDBRANCH  35  36
ENDBRANCH  13  35
TORSDOF 7
ENDMDL
MODEL 8
REMARK VINA RESULT:      -8.3      5.279      8.642
REMARK  Name = Almitrine
REMARK  7 active torsions:
REMARK  status: ('A' for Active; 'I' for Inactive)
REMARK    1  A    between atoms: C_5  and  C_8
REMARK    2  A    between atoms: C_8  and  N_9
REMARK    3  A    between atoms: C_8  and  C_29
REMARK    4  A    between atoms: N_18  and  C_19
REMARK    5  A    between atoms: C_19  and  C_20
REMARK    6  A    between atoms: N_24  and  C_25
REMARK    7  A    between atoms: C_25  and  C_26
REMARK                            x       y       z     vdW  Elec       q    Type
REMARK                         _______ _______ _______ _____ _____    ______ ____
ROOT
ATOM      1  N   UNL     1      -7.497  -1.104 131.118  0.00  0.00    +0.000 NA
ATOM      2  C   UNL     1      -6.716  -0.217 132.021  0.00  0.00    +0.000 C 
ATOM      3  C   UNL     1      -5.904   0.877 131.288  0.00  0.00    +0.000 C 
ATOM      4  N   UNL     1      -6.701   1.533 130.300  0.00  0.00    +0.000 N 
ATOM      5  C   UNL     1      -7.440   0.728 129.360  0.00  0.00    +0.000 C 
ATOM      6  C   UNL     1      -8.278  -0.233 130.192  0.00  0.00    +0.000 C 
ATOM      7  C   UNL     1      -6.434   2.821 129.954  0.00  0.00    +0.000 A 
ATOM      8  N   UNL     1      -7.495   3.565 130.092  0.00  0.00    +0.000 NA
ATOM      9  C   UNL     1      -7.322   4.857 129.955  0.00  0.00    +0.000 A 
ATOM     10  N   UNL     1      -8.426   5.630 130.209  0.00  0.00    +0.000 N 
ATOM     11  N   UNL     1      -6.159   5.396 129.595  0.00  0.00    +0.000 NA
ATOM     12  C   UNL     1      -5.133   4.553 129.419  0.00  0.00    +0.000 A 
ATOM     13  N   UNL     1      -3.928   5.098 129.019  0.00  0.00    +0.000 N 
ATOM     14  N   UNL     1      -5.221   3.241 129.635  0.00  0.00    +0.000 NA
ATOM     15  H   UNL     1      -8.331   6.617 130.054  0.00  0.00    +0.000 HD
ATOM     16  H   UNL     1      -3.963   6.078 128.788  0.00  0.00    +0.000 HD
ENDROOT
BRANCH   1  17
ATOM     17  C   UNL     1      -6.733  -2.255 130.509  0.00  0.00    +0.000 C 
BRANCH  17  22
ATOM     18  F   UNL     1      -9.499  -3.198 125.664  0.00  0.00    +0.000 F 
ATOM     19  C   UNL     1      -8.721  -3.176 126.753  0.00  0.00    +0.000 A 
ATOM     20  C   UNL     1      -7.554  -2.432 126.758  0.00  0.00    +0.000 A 
ATOM     21  C   UNL     1      -6.733  -2.411 127.907  0.00  0.00    +0.000 A 
ATOM     22  C   UNL     1      -7.269  -2.818 129.143  0.00  0.00    +0.000 A 
ATOM     23  C   UNL     1      -8.419  -3.635 129.081  0.00  0.00    +0.000 A 
ATOM     24  C   UNL     1      -9.100  -3.867 127.885  0.00  0.00    +0.000 A 
ENDBRANCH  17  22
BRANCH  17  25
ATOM     25  C   UNL     1      -6.486  -3.381 131.556  0.00  0.00    +0.000 A 
ATOM     26  C   UNL     1      -7.143  -3.328 132.798  0.00  0.00    +0.000 A 
ATOM     27  C   UNL     1      -6.751  -4.159 133.848  0.00  0.00    +0.000 A 
ATOM     28  C   UNL     1      -5.741  -5.091 133.650  0.00  0.00    +0.000 A 
ATOM     29  F   UNL     1      -5.360  -5.880 134.661  0.00  0.00    +0.000 F 
ATOM     30  C   UNL     1      -5.138  -5.231 132.415  0.00  0.00    +0.000 A 
ATOM     31  C   UNL     1      -5.554  -4.421 131.362  0.00  0.00    +0.000 A 
ENDBRANCH  17  25
ENDBRANCH   1  17
BRANCH  10  32
ATOM     32  C   UNL     1      -9.675   4.984 130.567  0.00  0.00    +0.000 C 
BRANCH  32  33
ATOM     33  C   UNL     1     -10.788   5.991 130.614  0.00  0.00    +0.000 C 
ATOM     34  C   UNL     1     -10.708   7.206 130.051  0.00  0.00    +0.000 C 
ENDBRANCH  32  33
ENDBRANCH  10  32
BRANCH  13  35
ATOM     35  C   UNL     1      -2.804   4.265 128.654  0.00  0.00    +0.000 C 
BRANCH  35  36
ATOM     36  C   UNL     1      -2.647   4.191 127.153  0.00  0.00    +0.000 C 
ATOM     37  C   UNL     1      -1.948   3.221 126.539  0.00  0.00    +0.000 C 
ENDBRANCH  35  36
ENDBRANCH  13  35
TORSDOF 7
ENDMDL
MODEL 9
REMARK VINA RESULT:      -8.3      4.269      9.383
REMARK  Name = Almitrine
REMARK  7 active torsions:
REMARK  status: ('A' for Active; 'I' for Inactive)
REMARK    1  A    between atoms: C_5  and  C_8
REMARK    2  A    between atoms: C_8  and  N_9
REMARK    3  A    between atoms: C_8  and  C_29
REMARK    4  A    between atoms: N_18  and  C_19
REMARK    5  A    between atoms: C_19  and  C_20
REMARK    6  A    between atoms: N_24  and  C_25
REMARK    7  A    between atoms: C_25  and  C_26
REMARK                            x       y       z     vdW  Elec       q    Type
REMARK                         _______ _______ _______ _____ _____    ______ ____
ROOT
ATOM      1  N   UNL     1      -3.814   4.366 128.195  0.00  0.00    +0.000 NA
ATOM      2  C   UNL     1      -3.382   3.070 127.608  0.00  0.00    +0.000 C 
ATOM      3  C   UNL     1      -4.548   2.154 127.165  0.00  0.00    +0.000 C 
ATOM      4  N   UNL     1      -5.522   2.886 126.420  0.00  0.00    +0.000 N 
ATOM      5  C   UNL     1      -6.022   4.124 126.963  0.00  0.00    +0.000 C 
ATOM      6  C   UNL     1      -4.799   4.981 127.258  0.00  0.00    +0.000 C 
ATOM      7  C   UNL     1      -6.283   2.253 125.487  0.00  0.00    +0.000 A 
ATOM      8  N   UNL     1      -6.182   2.845 124.331  0.00  0.00    +0.000 NA
ATOM      9  C   UNL     1      -6.732   2.230 123.312  0.00  0.00    +0.000 A 
ATOM     10  N   UNL     1      -6.524   2.815 122.088  0.00  0.00    +0.000 N 
ATOM     11  N   UNL     1      -7.446   1.114 123.441  0.00  0.00    +0.000 NA
ATOM     12  C   UNL     1      -7.546   0.602 124.675  0.00  0.00    +0.000 A 
ATOM     13  N   UNL     1      -8.307  -0.541 124.826  0.00  0.00    +0.000 N 
ATOM     14  N   UNL     1      -6.932   1.127 125.735  0.00  0.00    +0.000 NA
ATOM     15  H   UNL     1      -6.984   2.392 121.303  0.00  0.00    +0.000 HD
ATOM     16  H   UNL     1      -8.812  -0.825 124.002  0.00  0.00    +0.000 HD
ENDROOT
BRANCH   1  17
ATOM     17  C   UNL     1      -4.179   4.331 129.660  0.00  0.00    +0.000 C 
BRANCH  17  22
ATOM     18  F   UNL     1      -8.631   6.490 132.404  0.00  0.00    +0.000 F 
ATOM     19  C   UNL     1      -7.689   6.061 131.556  0.00  0.00    +0.000 A 
ATOM     20  C   UNL     1      -6.583   6.849 131.291  0.00  0.00    +0.000 A 
ATOM     21  C   UNL     1      -5.591   6.396 130.393  0.00  0.00    +0.000 A 
ATOM     22  C   UNL     1      -5.527   5.028 130.072  0.00  0.00    +0.000 A 
ATOM     23  C   UNL     1      -6.705   4.283 130.294  0.00  0.00    +0.000 A 
ATOM     24  C   UNL     1      -7.804   4.817 130.971  0.00  0.00    +0.000 A 
ENDBRANCH  17  22
BRANCH  17  25
ATOM     25  C   UNL     1      -2.983   4.789 130.546  0.00  0.00    +0.000 A 
ATOM     26  C   UNL     1      -2.764   4.168 131.789  0.00  0.00    +0.000 A 
ATOM     27  C   UNL     1      -1.880   4.721 132.717  0.00  0.00    +0.000 A 
ATOM     28  C   UNL     1      -1.163   5.864 132.389  0.00  0.00    +0.000 A 
ATOM     29  F   UNL     1      -0.324   6.398 133.284  0.00  0.00    +0.000 F 
ATOM     30  C   UNL     1      -1.287   6.447 131.143  0.00  0.00    +0.000 A 
ATOM     31  C   UNL     1      -2.146   5.873 130.210  0.00  0.00    +0.000 A 
ENDBRANCH  17  25
ENDBRANCH   1  17
BRANCH  10  32
ATOM     32  C   UNL     1      -5.763   4.048 122.013  0.00  0.00    +0.000 C 
BRANCH  32  33
ATOM     33  C   UNL     1      -5.189   4.224 120.638  0.00  0.00    +0.000 C 
ATOM     34  C   UNL     1      -5.805   4.913 119.663  0.00  0.00    +0.000 C 
ENDBRANCH  32  33
ENDBRANCH  10  32
BRANCH  13  35
ATOM     35  C   UNL     1      -8.604  -1.085 126.131  0.00  0.00    +0.000 C 
BRANCH  35  36
ATOM     36  C   UNL     1      -8.604  -2.596 126.104  0.00  0.00    +0.000 C 
ATOM     37  C   UNL     1      -8.754  -3.306 124.973  0.00  0.00    +0.000 C 
ENDBRANCH  35  36
ENDBRANCH  13  35
TORSDOF 7
ENDMDL
