MODEL 1
REMARK VINA RESULT:      -7.4      0.000      0.000
REMARK  Name = Almotriptan
REMARK  8 active torsions:
REMARK  status: ('A' for Active; 'I' for Inactive)
REMARK    1  A    between atoms: C_1  and  N_2
REMARK    2  A    between atoms: N_2  and  C_3
REMARK    3  A    between atoms: N_2  and  C_4
REMARK    4  A    between atoms: C_4  and  C_5
REMARK    5  A    between atoms: C_5  and  C_6
REMARK    6  A    between atoms: C_12  and  C_13
REMARK    7  A    between atoms: C_13  and  S_14
REMARK    8  A    between atoms: S_14  and  N_17
REMARK                            x       y       z     vdW  Elec       q    Type
REMARK                         _______ _______ _______ _____ _____    ______ ____
ROOT
ATOM      1  C   UNL     1     -10.452   7.088 130.376  0.00  0.00    +0.000 A 
ATOM      2  C   UNL     1     -11.534   6.647 131.110  0.00  0.00    +0.000 A 
ATOM      3  N   UNL     1     -11.063   6.017 132.220  0.00  0.00    +0.000 N 
ATOM      4  C   UNL     1      -9.693   6.055 132.233  0.00  0.00    +0.000 A 
ATOM      5  C   UNL     1      -9.270   6.693 131.071  0.00  0.00    +0.000 A 
ATOM      6  C   UNL     1      -7.883   6.857 130.850  0.00  0.00    +0.000 A 
ATOM      7  C   UNL     1      -6.969   6.412 131.828  0.00  0.00    +0.000 A 
ATOM      8  C   UNL     1      -7.468   5.796 132.980  0.00  0.00    +0.000 A 
ATOM      9  C   UNL     1      -8.820   5.589 133.200  0.00  0.00    +0.000 A 
ATOM     10  H   UNL     1     -11.627   5.621 132.958  0.00  0.00    +0.000 HD
ENDROOT
BRANCH   1  11
ATOM     11  C   UNL     1     -10.534   7.915 129.144  0.00  0.00    +0.000 C 
BRANCH  11  12
ATOM     12  C   UNL     1     -11.954   8.481 128.974  0.00  0.00    +0.000 C 
BRANCH  12  14
ATOM     13  C   UNL     1     -11.624   7.417 126.854  0.00  0.00    +0.000 C 
ATOM     14  N   UNL     1     -12.619   8.016 127.746  0.00  0.00    +0.000 NA
ATOM     15  C   UNL     1     -13.657   7.032 128.056  0.00  0.00    +0.000 C 
ENDBRANCH  12  14
ENDBRANCH  11  12
ENDBRANCH   1  11
BRANCH   7  16
ATOM     16  C   UNL     1      -5.494   6.648 131.602  0.00  0.00    +0.000 C 
BRANCH  16  17
ATOM     17  S   UNL     1      -4.736   5.344 130.578  0.00  0.00    +0.000 S 
ATOM     18  O   UNL     1      -3.426   5.029 131.122  0.00  0.00    +0.000 OA
ATOM     19  O   UNL     1      -5.712   4.300 130.351  0.00  0.00    +0.000 OA
BRANCH  17  20
ATOM     20  N   UNL     1      -4.504   6.066 129.073  0.00  0.00    +0.000 NA
ATOM     21  C   UNL     1      -4.181   5.239 127.895  0.00  0.00    +0.000 C 
ATOM     22  C   UNL     1      -2.668   5.317 127.839  0.00  0.00    +0.000 C 
ATOM     23  C   UNL     1      -2.387   6.763 128.234  0.00  0.00    +0.000 C 
ATOM     24  C   UNL     1      -3.559   7.202 129.101  0.00  0.00    +0.000 C 
ENDBRANCH  17  20
ENDBRANCH  16  17
ENDBRANCH   7  16
TORSDOF 6
ENDMDL
MODEL 2
REMARK VINA RESULT:      -6.9      1.760      2.171
REMARK  Name = Almotriptan
REMARK  8 active torsions:
REMARK  status: ('A' for Active; 'I' for Inactive)
REMARK    1  A    between atoms: C_1  and  N_2
REMARK    2  A    between atoms: N_2  and  C_3
REMARK    3  A    between atoms: N_2  and  C_4
REMARK    4  A    between atoms: C_4  and  C_5
REMARK    5  A    between atoms: C_5  and  C_6
REMARK    6  A    between atoms: C_12  and  C_13
REMARK    7  A    between atoms: C_13  and  S_14
REMARK    8  A    between atoms: S_14  and  N_17
REMARK                            x       y       z     vdW  Elec       q    Type
REMARK                         _______ _______ _______ _____ _____    ______ ____
ROOT
ATOM      1  C   UNL     1     -10.132   6.752 131.016  0.00  0.00    +0.000 A 
ATOM      2  C   UNL     1     -10.947   6.186 131.974  0.00  0.00    +0.000 A 
ATOM      3  N   UNL     1     -10.154   5.645 132.939  0.00  0.00    +0.000 N 
ATOM      4  C   UNL     1      -8.835   5.863 132.635  0.00  0.00    +0.000 A 
ATOM      5  C   UNL     1      -8.780   6.528 131.414  0.00  0.00    +0.000 A 
ATOM      6  C   UNL     1      -7.516   6.868 130.880  0.00  0.00    +0.000 A 
ATOM      7  C   UNL     1      -6.350   6.567 131.616  0.00  0.00    +0.000 A 
ATOM      8  C   UNL     1      -6.484   5.913 132.844  0.00  0.00    +0.000 A 
ATOM      9  C   UNL     1      -7.709   5.535 133.369  0.00  0.00    +0.000 A 
ATOM     10  H   UNL     1     -10.475   5.193 133.782  0.00  0.00    +0.000 HD
ENDROOT
BRANCH   1  11
ATOM     11  C   UNL     1     -10.604   7.536 129.845  0.00  0.00    +0.000 C 
BRANCH  11  12
ATOM     12  C   UNL     1     -11.937   6.970 129.326  0.00  0.00    +0.000 C 
BRANCH  12  14
ATOM     13  C   UNL     1     -13.211   8.781 128.414  0.00  0.00    +0.000 C 
ATOM     14  N   UNL     1     -12.392   7.613 128.083  0.00  0.00    +0.000 NA
ATOM     15  C   UNL     1     -11.254   8.027 127.262  0.00  0.00    +0.000 C 
ENDBRANCH  12  14
ENDBRANCH  11  12
ENDBRANCH   1  11
BRANCH   7  16
ATOM     16  C   UNL     1      -5.011   6.989 131.057  0.00  0.00    +0.000 C 
BRANCH  16  17
ATOM     17  S   UNL     1      -4.590   6.096 129.525  0.00  0.00    +0.000 S 
ATOM     18  O   UNL     1      -5.709   5.243 129.162  0.00  0.00    +0.000 OA
ATOM     19  O   UNL     1      -4.035   7.034 128.572  0.00  0.00    +0.000 OA
BRANCH  17  20
ATOM     20  N   UNL     1      -3.304   5.095 129.957  0.00  0.00    +0.000 NA
ATOM     21  C   UNL     1      -3.537   3.664 130.232  0.00  0.00    +0.000 C 
ATOM     22  C   UNL     1      -3.684   3.636 131.740  0.00  0.00    +0.000 C 
ATOM     23  C   UNL     1      -2.647   4.654 132.203  0.00  0.00    +0.000 C 
ATOM     24  C   UNL     1      -2.475   5.638 131.054  0.00  0.00    +0.000 C 
ENDBRANCH  17  20
ENDBRANCH  16  17
ENDBRANCH   7  16
TORSDOF 6
ENDMDL
MODEL 3
REMARK VINA RESULT:      -6.9      2.561      6.830
REMARK  Name = Almotriptan
REMARK  8 active torsions:
REMARK  status: ('A' for Active; 'I' for Inactive)
REMARK    1  A    between atoms: C_1  and  N_2
REMARK    2  A    between atoms: N_2  and  C_3
REMARK    3  A    between atoms: N_2  and  C_4
REMARK    4  A    between atoms: C_4  and  C_5
REMARK    5  A    between atoms: C_5  and  C_6
REMARK    6  A    between atoms: C_12  and  C_13
REMARK    7  A    between atoms: C_13  and  S_14
REMARK    8  A    between atoms: S_14  and  N_17
REMARK                            x       y       z     vdW  Elec       q    Type
REMARK                         _______ _______ _______ _____ _____    ______ ____
ROOT
ATOM      1  C   UNL     1      -5.736   5.768 132.444  0.00  0.00    +0.000 A 
ATOM      2  C   UNL     1      -5.735   4.876 133.496  0.00  0.00    +0.000 A 
ATOM      3  N   UNL     1      -7.028   4.586 133.805  0.00  0.00    +0.000 N 
ATOM      4  C   UNL     1      -7.872   5.260 132.962  0.00  0.00    +0.000 A 
ATOM      5  C   UNL     1      -7.096   6.041 132.111  0.00  0.00    +0.000 A 
ATOM      6  C   UNL     1      -7.743   6.839 131.139  0.00  0.00    +0.000 A 
ATOM      7  C   UNL     1      -9.148   6.789 131.027  0.00  0.00    +0.000 A 
ATOM      8  C   UNL     1      -9.862   5.967 131.904  0.00  0.00    +0.000 A 
ATOM      9  C   UNL     1      -9.253   5.207 132.889  0.00  0.00    +0.000 A 
ATOM     10  H   UNL     1      -7.334   3.935 134.513  0.00  0.00    +0.000 HD
ENDROOT
BRANCH   1  11
ATOM     11  C   UNL     1      -4.524   6.258 131.737  0.00  0.00    +0.000 C 
BRANCH  11  12
ATOM     12  C   UNL     1      -4.420   5.613 130.344  0.00  0.00    +0.000 C 
BRANCH  12  14
ATOM     13  C   UNL     1      -4.117   7.900 129.702  0.00  0.00    +0.000 C 
ATOM     14  N   UNL     1      -4.563   6.582 129.246  0.00  0.00    +0.000 NA
ATOM     15  C   UNL     1      -3.776   6.173 128.082  0.00  0.00    +0.000 C 
ENDBRANCH  12  14
ENDBRANCH  11  12
ENDBRANCH   1  11
BRANCH   7  16
ATOM     16  C   UNL     1      -9.817   7.604 129.944  0.00  0.00    +0.000 C 
BRANCH  16  17
ATOM     17  S   UNL     1     -10.512   6.559 128.623  0.00  0.00    +0.000 S 
ATOM     18  O   UNL     1      -9.424   6.092 127.780  0.00  0.00    +0.000 OA
ATOM     19  O   UNL     1     -11.448   5.623 129.208  0.00  0.00    +0.000 OA
BRANCH  17  20
ATOM     20  N   UNL     1     -11.456   7.609 127.703  0.00  0.00    +0.000 NA
ATOM     21  C   UNL     1     -11.862   8.917 128.252  0.00  0.00    +0.000 C 
ATOM     22  C   UNL     1     -13.243   8.629 128.808  0.00  0.00    +0.000 C 
ATOM     23  C   UNL     1     -13.836   7.679 127.773  0.00  0.00    +0.000 C 
ATOM     24  C   UNL     1     -12.656   6.970 127.121  0.00  0.00    +0.000 C 
ENDBRANCH  17  20
ENDBRANCH  16  17
ENDBRANCH   7  16
TORSDOF 6
ENDMDL
MODEL 4
REMARK VINA RESULT:      -6.8      1.736      2.241
REMARK  Name = Almotriptan
REMARK  8 active torsions:
REMARK  status: ('A' for Active; 'I' for Inactive)
REMARK    1  A    between atoms: C_1  and  N_2
REMARK    2  A    between atoms: N_2  and  C_3
REMARK    3  A    between atoms: N_2  and  C_4
REMARK    4  A    between atoms: C_4  and  C_5
REMARK    5  A    between atoms: C_5  and  C_6
REMARK    6  A    between atoms: C_12  and  C_13
REMARK    7  A    between atoms: C_13  and  S_14
REMARK    8  A    between atoms: S_14  and  N_17
REMARK                            x       y       z     vdW  Elec       q    Type
REMARK                         _______ _______ _______ _____ _____    ______ ____
ROOT
ATOM      1  C   UNL     1      -9.973   6.794 130.905  0.00  0.00    +0.000 A 
ATOM      2  C   UNL     1     -10.905   6.284 131.785  0.00  0.00    +0.000 A 
ATOM      3  N   UNL     1     -10.239   5.722 132.830  0.00  0.00    +0.000 N 
ATOM      4  C   UNL     1      -8.887   5.872 132.656  0.00  0.00    +0.000 A 
ATOM      5  C   UNL     1      -8.679   6.513 131.438  0.00  0.00    +0.000 A 
ATOM      6  C   UNL     1      -7.354   6.783 131.028  0.00  0.00    +0.000 A 
ATOM      7  C   UNL     1      -6.282   6.438 131.879  0.00  0.00    +0.000 A 
ATOM      8  C   UNL     1      -6.568   5.813 133.096  0.00  0.00    +0.000 A 
ATOM      9  C   UNL     1      -7.856   5.502 133.501  0.00  0.00    +0.000 A 
ATOM     10  H   UNL     1     -10.663   5.300 133.642  0.00  0.00    +0.000 HD
ENDROOT
BRANCH   1  11
ATOM     11  C   UNL     1     -10.289   7.580 129.684  0.00  0.00    +0.000 C 
BRANCH  11  12
ATOM     12  C   UNL     1     -11.738   7.318 129.240  0.00  0.00    +0.000 C 
BRANCH  12  14
ATOM     13  C   UNL     1     -13.189   7.136 127.344  0.00  0.00    +0.000 C 
ATOM     14  N   UNL     1     -11.841   6.860 127.845  0.00  0.00    +0.000 NA
ATOM     15  C   UNL     1     -10.856   7.536 127.000  0.00  0.00    +0.000 C 
ENDBRANCH  12  14
ENDBRANCH  11  12
ENDBRANCH   1  11
BRANCH   7  16
ATOM     16  C   UNL     1      -4.876   6.787 131.451  0.00  0.00    +0.000 C 
BRANCH  16  17
ATOM     17  S   UNL     1      -4.282   5.720 130.097  0.00  0.00    +0.000 S 
ATOM     18  O   UNL     1      -4.711   6.293 128.832  0.00  0.00    +0.000 OA
ATOM     19  O   UNL     1      -2.890   5.399 130.330  0.00  0.00    +0.000 OA
BRANCH  17  20
ATOM     20  N   UNL     1      -5.110   4.267 130.307  0.00  0.00    +0.000 NA
ATOM     21  C   UNL     1      -4.388   3.057 130.742  0.00  0.00    +0.000 C 
ATOM     22  C   UNL     1      -4.089   2.359 129.430  0.00  0.00    +0.000 C 
ATOM     23  C   UNL     1      -5.354   2.608 128.616  0.00  0.00    +0.000 C 
ATOM     24  C   UNL     1      -5.959   3.898 129.154  0.00  0.00    +0.000 C 
ENDBRANCH  17  20
ENDBRANCH  16  17
ENDBRANCH   7  16
TORSDOF 6
ENDMDL
MODEL 5
REMARK VINA RESULT:      -6.5      8.060      9.700
REMARK  Name = Almotriptan
REMARK  8 active torsions:
REMARK  status: ('A' for Active; 'I' for Inactive)
REMARK    1  A    between atoms: C_1  and  N_2
REMARK    2  A    between atoms: N_2  and  C_3
REMARK    3  A    between atoms: N_2  and  C_4
REMARK    4  A    between atoms: C_4  and  C_5
REMARK    5  A    between atoms: C_5  and  C_6
REMARK    6  A    between atoms: C_12  and  C_13
REMARK    7  A    between atoms: C_13  and  S_14
REMARK    8  A    between atoms: S_14  and  N_17
REMARK                            x       y       z     vdW  Elec       q    Type
REMARK                         _______ _______ _______ _____ _____    ______ ____
ROOT
ATOM      1  C   UNL     1      -7.798  -1.938 128.558  0.00  0.00    +0.000 A 
ATOM      2  C   UNL     1      -8.207  -3.179 129.002  0.00  0.00    +0.000 A 
ATOM      3  N   UNL     1      -8.804  -3.824 127.964  0.00  0.00    +0.000 N 
ATOM      4  C   UNL     1      -8.776  -3.033 126.845  0.00  0.00    +0.000 A 
ATOM      5  C   UNL     1      -8.179  -1.824 127.188  0.00  0.00    +0.000 A 
ATOM      6  C   UNL     1      -8.034  -0.829 126.194  0.00  0.00    +0.000 A 
ATOM      7  C   UNL     1      -8.453  -1.102 124.875  0.00  0.00    +0.000 A 
ATOM      8  C   UNL     1      -9.027  -2.347 124.599  0.00  0.00    +0.000 A 
ATOM      9  C   UNL     1      -9.216  -3.322 125.565  0.00  0.00    +0.000 A 
ATOM     10  H   UNL     1      -9.171  -4.764 127.985  0.00  0.00    +0.000 HD
ENDROOT
BRANCH   1  11
ATOM     11  C   UNL     1      -7.012  -0.961 129.355  0.00  0.00    +0.000 C 
BRANCH  11  12
ATOM     12  C   UNL     1      -7.938   0.119 129.942  0.00  0.00    +0.000 C 
BRANCH  12  14
ATOM     13  C   UNL     1      -7.595  -0.814 132.120  0.00  0.00    +0.000 C 
ATOM     14  N   UNL     1      -8.600  -0.302 131.187  0.00  0.00    +0.000 NA
ATOM     15  C   UNL     1      -9.317   0.816 131.801  0.00  0.00    +0.000 C 
ENDBRANCH  12  14
ENDBRANCH  11  12
ENDBRANCH   1  11
BRANCH   7  16
ATOM     16  C   UNL     1      -8.237  -0.049 123.813  0.00  0.00    +0.000 C 
BRANCH  16  17
ATOM     17  S   UNL     1      -9.745   0.922 123.487  0.00  0.00    +0.000 S 
ATOM     18  O   UNL     1     -10.262   0.551 122.181  0.00  0.00    +0.000 OA
ATOM     19  O   UNL     1     -10.593   0.878 124.658  0.00  0.00    +0.000 OA
BRANCH  17  20
ATOM     20  N   UNL     1      -9.210   2.517 123.390  0.00  0.00    +0.000 NA
ATOM     21  C   UNL     1      -8.561   3.009 122.159  0.00  0.00    +0.000 C 
ATOM     22  C   UNL     1      -7.087   2.841 122.471  0.00  0.00    +0.000 C 
ATOM     23  C   UNL     1      -7.005   3.226 123.945  0.00  0.00    +0.000 C 
ATOM     24  C   UNL     1      -8.376   2.932 124.538  0.00  0.00    +0.000 C 
ENDBRANCH  17  20
ENDBRANCH  16  17
ENDBRANCH   7  16
TORSDOF 6
ENDMDL
MODEL 6
REMARK VINA RESULT:      -6.5      8.416     10.472
REMARK  Name = Almotriptan
REMARK  8 active torsions:
REMARK  status: ('A' for Active; 'I' for Inactive)
REMARK    1  A    between atoms: C_1  and  N_2
REMARK    2  A    between atoms: N_2  and  C_3
REMARK    3  A    between atoms: N_2  and  C_4
REMARK    4  A    between atoms: C_4  and  C_5
REMARK    5  A    between atoms: C_5  and  C_6
REMARK    6  A    between atoms: C_12  and  C_13
REMARK    7  A    between atoms: C_13  and  S_14
REMARK    8  A    between atoms: S_14  and  N_17
REMARK                            x       y       z     vdW  Elec       q    Type
REMARK                         _______ _______ _______ _____ _____    ______ ____
ROOT
ATOM      1  C   UNL     1      -7.759  -2.267 128.297  0.00  0.00    +0.000 A 
ATOM      2  C   UNL     1      -8.240  -3.503 128.677  0.00  0.00    +0.000 A 
ATOM      3  N   UNL     1      -8.928  -4.030 127.627  0.00  0.00    +0.000 N 
ATOM      4  C   UNL     1      -8.889  -3.167 126.563  0.00  0.00    +0.000 A 
ATOM      5  C   UNL     1      -8.190  -2.030 126.958  0.00  0.00    +0.000 A 
ATOM      6  C   UNL     1      -8.014  -0.981 126.027  0.00  0.00    +0.000 A 
ATOM      7  C   UNL     1      -8.509  -1.131 124.714  0.00  0.00    +0.000 A 
ATOM      8  C   UNL     1      -9.186  -2.309 124.383  0.00  0.00    +0.000 A 
ATOM      9  C   UNL     1      -9.405  -3.333 125.290  0.00  0.00    +0.000 A 
ATOM     10  H   UNL     1      -9.363  -4.940 127.604  0.00  0.00    +0.000 HD
ENDROOT
BRANCH   1  11
ATOM     11  C   UNL     1      -6.869  -1.407 129.119  0.00  0.00    +0.000 C 
BRANCH  11  12
ATOM     12  C   UNL     1      -5.417  -1.509 128.620  0.00  0.00    +0.000 C 
BRANCH  12  14
ATOM     13  C   UNL     1      -5.225  -2.263 130.884  0.00  0.00    +0.000 C 
ATOM     14  N   UNL     1      -4.489  -2.018 129.642  0.00  0.00    +0.000 NA
ATOM     15  C   UNL     1      -3.850  -3.257 129.197  0.00  0.00    +0.000 C 
ENDBRANCH  12  14
ENDBRANCH  11  12
ENDBRANCH   1  11
BRANCH   7  16
ATOM     16  C   UNL     1      -8.261  -0.024 123.715  0.00  0.00    +0.000 C 
BRANCH  16  17
ATOM     17  S   UNL     1      -9.743   1.000 123.437  0.00  0.00    +0.000 S 
ATOM     18  O   UNL     1     -10.286   0.684 122.126  0.00  0.00    +0.000 OA
ATOM     19  O   UNL     1     -10.580   0.944 124.616  0.00  0.00    +0.000 OA
BRANCH  17  20
ATOM     20  N   UNL     1      -9.163   2.581 123.382  0.00  0.00    +0.000 NA
ATOM     21  C   UNL     1      -8.587   3.118 122.135  0.00  0.00    +0.000 C 
ATOM     22  C   UNL     1      -7.102   2.890 122.329  0.00  0.00    +0.000 C 
ATOM     23  C   UNL     1      -6.901   3.193 123.810  0.00  0.00    +0.000 C 
ATOM     24  C   UNL     1      -8.236   2.909 124.486  0.00  0.00    +0.000 C 
ENDBRANCH  17  20
ENDBRANCH  16  17
ENDBRANCH   7  16
TORSDOF 6
ENDMDL
MODEL 7
REMARK VINA RESULT:      -6.4      3.196      7.599
REMARK  Name = Almotriptan
REMARK  8 active torsions:
REMARK  status: ('A' for Active; 'I' for Inactive)
REMARK    1  A    between atoms: C_1  and  N_2
REMARK    2  A    between atoms: N_2  and  C_3
REMARK    3  A    between atoms: N_2  and  C_4
REMARK    4  A    between atoms: C_4  and  C_5
REMARK    5  A    between atoms: C_5  and  C_6
REMARK    6  A    between atoms: C_12  and  C_13
REMARK    7  A    between atoms: C_13  and  S_14
REMARK    8  A    between atoms: S_14  and  N_17
REMARK                            x       y       z     vdW  Elec       q    Type
REMARK                         _______ _______ _______ _____ _____    ______ ____
ROOT
ATOM      1  C   UNL     1      -5.186   6.300 132.757  0.00  0.00    +0.000 A 
ATOM      2  C   UNL     1      -5.056   5.861 134.058  0.00  0.00    +0.000 A 
ATOM      3  N   UNL     1      -6.298   5.569 134.533  0.00  0.00    +0.000 N 
ATOM      4  C   UNL     1      -7.235   5.794 133.558  0.00  0.00    +0.000 A 
ATOM      5  C   UNL     1      -6.576   6.286 132.435  0.00  0.00    +0.000 A 
ATOM      6  C   UNL     1      -7.335   6.599 131.284  0.00  0.00    +0.000 A 
ATOM      7  C   UNL     1      -8.726   6.363 131.286  0.00  0.00    +0.000 A 
ATOM      8  C   UNL     1      -9.316   5.849 132.444  0.00  0.00    +0.000 A 
ATOM      9  C   UNL     1      -8.600   5.573 133.597  0.00  0.00    +0.000 A 
ATOM     10  H   UNL     1      -6.508   5.195 135.446  0.00  0.00    +0.000 HD
ENDROOT
BRANCH   1  11
ATOM     11  C   UNL     1      -4.057   6.621 131.846  0.00  0.00    +0.000 C 
BRANCH  11  12
ATOM     12  C   UNL     1      -3.081   7.595 132.527  0.00  0.00    +0.000 C 
BRANCH  12  14
ATOM     13  C   UNL     1      -1.315   6.624 131.235  0.00  0.00    +0.000 C 
ATOM     14  N   UNL     1      -1.698   7.094 132.568  0.00  0.00    +0.000 NA
ATOM     15  C   UNL     1      -0.775   8.143 133.003  0.00  0.00    +0.000 C 
ENDBRANCH  12  14
ENDBRANCH  11  12
ENDBRANCH   1  11
BRANCH   7  16
ATOM     16  C   UNL     1      -9.511   6.649 130.026  0.00  0.00    +0.000 C 
BRANCH  16  17
ATOM     17  S   UNL     1     -11.171   5.896 130.062  0.00  0.00    +0.000 S 
ATOM     18  O   UNL     1     -11.026   4.451 130.024  0.00  0.00    +0.000 OA
ATOM     19  O   UNL     1     -11.952   6.534 131.101  0.00  0.00    +0.000 OA
BRANCH  17  20
ATOM     20  N   UNL     1     -11.886   6.377 128.614  0.00  0.00    +0.000 NA
ATOM     21  C   UNL     1     -11.211   7.357 127.742  0.00  0.00    +0.000 C 
ATOM     22  C   UNL     1     -11.853   8.667 128.156  0.00  0.00    +0.000 C 
ATOM     23  C   UNL     1     -13.308   8.275 128.389  0.00  0.00    +0.000 C 
ATOM     24  C   UNL     1     -13.296   6.799 128.762  0.00  0.00    +0.000 C 
ENDBRANCH  17  20
ENDBRANCH  16  17
ENDBRANCH   7  16
TORSDOF 6
ENDMDL
MODEL 8
REMARK VINA RESULT:      -6.4      1.688      2.085
REMARK  Name = Almotriptan
REMARK  8 active torsions:
REMARK  status: ('A' for Active; 'I' for Inactive)
REMARK    1  A    between atoms: C_1  and  N_2
REMARK    2  A    between atoms: N_2  and  C_3
REMARK    3  A    between atoms: N_2  and  C_4
REMARK    4  A    between atoms: C_4  and  C_5
REMARK    5  A    between atoms: C_5  and  C_6
REMARK    6  A    between atoms: C_12  and  C_13
REMARK    7  A    between atoms: C_13  and  S_14
REMARK    8  A    between atoms: S_14  and  N_17
REMARK                            x       y       z     vdW  Elec       q    Type
REMARK                         _______ _______ _______ _____ _____    ______ ____
ROOT
ATOM      1  C   UNL     1     -10.631   6.142 130.920  0.00  0.00    +0.000 A 
ATOM      2  C   UNL     1     -11.014   6.200 132.244  0.00  0.00    +0.000 A 
ATOM      3  N   UNL     1     -10.055   5.587 132.990  0.00  0.00    +0.000 N 
ATOM      4  C   UNL     1      -9.044   5.145 132.177  0.00  0.00    +0.000 A 
ATOM      5  C   UNL     1      -9.387   5.447 130.862  0.00  0.00    +0.000 A 
ATOM      6  C   UNL     1      -8.495   5.087 129.826  0.00  0.00    +0.000 A 
ATOM      7  C   UNL     1      -7.266   4.475 130.152  0.00  0.00    +0.000 A 
ATOM      8  C   UNL     1      -6.981   4.218 131.496  0.00  0.00    +0.000 A 
ATOM      9  C   UNL     1      -7.856   4.526 132.525  0.00  0.00    +0.000 A 
ATOM     10  H   UNL     1     -10.051   5.507 133.996  0.00  0.00    +0.000 HD
ENDROOT
BRANCH   1  11
ATOM     11  C   UNL     1     -11.352   6.787 129.792  0.00  0.00    +0.000 C 
BRANCH  11  12
ATOM     12  C   UNL     1     -10.472   7.869 129.144  0.00  0.00    +0.000 C 
BRANCH  12  14
ATOM     13  C   UNL     1     -10.969   7.873 126.802  0.00  0.00    +0.000 C 
ATOM     14  N   UNL     1     -11.153   8.597 128.062  0.00  0.00    +0.000 NA
ATOM     15  C   UNL     1     -12.582   8.735 128.344  0.00  0.00    +0.000 C 
ENDBRANCH  12  14
ENDBRANCH  11  12
ENDBRANCH   1  11
BRANCH   7  16
ATOM     16  C   UNL     1      -6.300   4.150 129.036  0.00  0.00    +0.000 C 
BRANCH  16  17
ATOM     17  S   UNL     1      -4.712   5.025 129.220  0.00  0.00    +0.000 S 
ATOM     18  O   UNL     1      -4.983   6.420 129.523  0.00  0.00    +0.000 OA
ATOM     19  O   UNL     1      -3.840   4.240 130.069  0.00  0.00    +0.000 OA
BRANCH  17  20
ATOM     20  N   UNL     1      -4.011   4.961 127.689  0.00  0.00    +0.000 NA
ATOM     21  C   UNL     1      -4.534   4.028 126.672  0.00  0.00    +0.000 C 
ATOM     22  C   UNL     1      -3.619   2.829 126.821  0.00  0.00    +0.000 C 
ATOM     23  C   UNL     1      -2.259   3.467 127.080  0.00  0.00    +0.000 C 
ATOM     24  C   UNL     1      -2.540   4.821 127.717  0.00  0.00    +0.000 C 
ENDBRANCH  17  20
ENDBRANCH  16  17
ENDBRANCH   7  16
TORSDOF 6
ENDMDL
MODEL 9
REMARK VINA RESULT:      -6.2      8.265     10.094
REMARK  Name = Almotriptan
REMARK  8 active torsions:
REMARK  status: ('A' for Active; 'I' for Inactive)
REMARK    1  A    between atoms: C_1  and  N_2
REMARK    2  A    between atoms: N_2  and  C_3
REMARK    3  A    between atoms: N_2  and  C_4
REMARK    4  A    between atoms: C_4  and  C_5
REMARK    5  A    between atoms: C_5  and  C_6
REMARK    6  A    between atoms: C_12  and  C_13
REMARK    7  A    between atoms: C_13  and  S_14
REMARK    8  A    between atoms: S_14  and  N_17
REMARK                            x       y       z     vdW  Elec       q    Type
REMARK                         _______ _______ _______ _____ _____    ______ ____
ROOT
ATOM      1  C   UNL     1      -8.394  -2.516 126.374  0.00  0.00    +0.000 A 
ATOM      2  C   UNL     1      -8.355  -3.779 125.818  0.00  0.00    +0.000 A 
ATOM      3  N   UNL     1      -8.697  -3.674 124.505  0.00  0.00    +0.000 N 
ATOM      4  C   UNL     1      -8.941  -2.363 124.190  0.00  0.00    +0.000 A 
ATOM      5  C   UNL     1      -8.793  -1.607 125.349  0.00  0.00    +0.000 A 
ATOM      6  C   UNL     1      -8.996  -0.210 125.282  0.00  0.00    +0.000 A 
ATOM      7  C   UNL     1      -9.298   0.387 124.040  0.00  0.00    +0.000 A 
ATOM      8  C   UNL     1      -9.414  -0.433 122.913  0.00  0.00    +0.000 A 
ATOM      9  C   UNL     1      -9.258  -1.809 122.962  0.00  0.00    +0.000 A 
ATOM     10  H   UNL     1      -8.722  -4.432 123.840  0.00  0.00    +0.000 HD
ENDROOT
BRANCH   1  11
ATOM     11  C   UNL     1      -7.987  -2.180 127.763  0.00  0.00    +0.000 C 
BRANCH  11  12
ATOM     12  C   UNL     1      -8.410  -3.300 128.729  0.00  0.00    +0.000 C 
BRANCH  12  14
ATOM     13  C   UNL     1      -6.501  -3.834 130.073  0.00  0.00    +0.000 C 
ATOM     14  N   UNL     1      -7.806  -3.169 130.065  0.00  0.00    +0.000 NA
ATOM     15  C   UNL     1      -7.643  -1.762 130.429  0.00  0.00    +0.000 C 
ENDBRANCH  12  14
ENDBRANCH  11  12
ENDBRANCH   1  11
BRANCH   7  16
ATOM     16  C   UNL     1      -9.454   1.889 123.976  0.00  0.00    +0.000 C 
BRANCH  16  17
ATOM     17  S   UNL     1      -8.082   2.689 123.082  0.00  0.00    +0.000 S 
ATOM     18  O   UNL     1      -7.062   1.691 122.808  0.00  0.00    +0.000 OA
ATOM     19  O   UNL     1      -8.628   3.501 122.016  0.00  0.00    +0.000 OA
BRANCH  17  20
ATOM     20  N   UNL     1      -7.438   3.787 124.186  0.00  0.00    +0.000 NA
ATOM     21  C   UNL     1      -5.989   3.799 124.462  0.00  0.00    +0.000 C 
ATOM     22  C   UNL     1      -5.880   2.934 125.702  0.00  0.00    +0.000 C 
ATOM     23  C   UNL     1      -7.118   3.326 126.501  0.00  0.00    +0.000 C 
ATOM     24  C   UNL     1      -8.146   3.804 125.484  0.00  0.00    +0.000 C 
ENDBRANCH  17  20
ENDBRANCH  16  17
ENDBRANCH   7  16
TORSDOF 6
ENDMDL
