MODEL 1
REMARK VINA RESULT:      -7.1      0.000      0.000
REMARK  Name = Alogliptin
REMARK  6 active torsions:
REMARK  status: ('A' for Active; 'I' for Inactive)
REMARK    1  A    between atoms: C_1  and  N_2
REMARK    2  A    between atoms: C_6  and  N_7
REMARK    3  A    between atoms: C_11  and  N_12
REMARK    4  A    between atoms: N_14  and  C_15
REMARK    5  A    between atoms: C_15  and  C_16
REMARK    6  A    between atoms: C_17  and  C_22
REMARK                            x       y       z     vdW  Elec       q    Type
REMARK                         _______ _______ _______ _____ _____    ______ ____
ROOT
ATOM      1  C   UNL     1      -6.499   4.138 120.246  0.00  0.00    +0.000 C 
ATOM      2  N   UNL     1      -6.270   3.858 121.652  0.00  0.00    +0.000 N 
ATOM      3  C   UNL     1      -5.288   4.505 122.341  0.00  0.00    +0.000 A 
ATOM      4  O   UNL     1      -4.558   5.370 121.864  0.00  0.00    +0.000 OA
ATOM      5  C   UNL     1      -5.145   4.150 123.762  0.00  0.00    +0.000 A 
ATOM      6  C   UNL     1      -5.901   3.209 124.350  0.00  0.00    +0.000 A 
ATOM      7  N   UNL     1      -6.877   2.587 123.554  0.00  0.00    +0.000 N 
ATOM      8  C   UNL     1      -7.148   2.989 122.242  0.00  0.00    +0.000 A 
ATOM      9  O   UNL     1      -8.115   2.612 121.576  0.00  0.00    +0.000 OA
ENDROOT
BRANCH   6  10
ATOM     10  N   UNL     1      -5.741   2.944 125.734  0.00  0.00    +0.000 N 
ATOM     11  C   UNL     1      -4.796   1.931 126.246  0.00  0.00    +0.000 C 
ATOM     12  C   UNL     1      -3.920   2.578 127.319  0.00  0.00    +0.000 C 
ATOM     13  C   UNL     1      -4.782   3.140 128.459  0.00  0.00    +0.000 C 
ATOM     14  C   UNL     1      -5.833   4.132 127.938  0.00  0.00    +0.000 C 
ATOM     15  C   UNL     1      -6.656   3.454 126.793  0.00  0.00    +0.000 C 
BRANCH  14  16
ATOM     16  N   UNL     1      -5.109   5.326 127.482  0.00  0.00    +0.000 NA
ATOM     17  H   UNL     1      -4.235   4.966 127.104  0.00  0.00    +0.000 HD
ATOM     18  H   UNL     1      -4.814   5.920 128.250  0.00  0.00    +0.000 HD
ENDBRANCH  14  16
ENDBRANCH   6  10
BRANCH   7  19
ATOM     19  C   UNL     1      -7.737   1.583 124.186  0.00  0.00    +0.000 C 
BRANCH  19  20
ATOM     20  C   UNL     1      -7.580   0.131 123.836  0.00  0.00    +0.000 A 
ATOM     21  C   UNL     1      -8.650  -0.575 123.257  0.00  0.00    +0.000 A 
ATOM     22  C   UNL     1      -8.586  -1.963 123.234  0.00  0.00    +0.000 A 
ATOM     23  C   UNL     1      -7.533  -2.624 123.878  0.00  0.00    +0.000 A 
ATOM     24  C   UNL     1      -6.493  -1.910 124.468  0.00  0.00    +0.000 A 
ATOM     25  C   UNL     1      -6.435  -0.539 124.299  0.00  0.00    +0.000 A 
BRANCH  21  26
ATOM     26  C   UNL     1      -9.879   0.098 122.932  0.00  0.00    +0.000 C 
ATOM     27  N   UNL     1     -10.915   0.539 122.615  0.00  0.00    +0.000 NA
ENDBRANCH  21  26
ENDBRANCH  19  20
ENDBRANCH   7  19
TORSDOF 5
ENDMDL
MODEL 2
REMARK VINA RESULT:      -6.7      2.795      4.804
REMARK  Name = Alogliptin
REMARK  6 active torsions:
REMARK  status: ('A' for Active; 'I' for Inactive)
REMARK    1  A    between atoms: C_1  and  N_2
REMARK    2  A    between atoms: C_6  and  N_7
REMARK    3  A    between atoms: C_11  and  N_12
REMARK    4  A    between atoms: N_14  and  C_15
REMARK    5  A    between atoms: C_15  and  C_16
REMARK    6  A    between atoms: C_17  and  C_22
REMARK                            x       y       z     vdW  Elec       q    Type
REMARK                         _______ _______ _______ _____ _____    ______ ____
ROOT
ATOM      1  C   UNL     1      -8.416   2.344 128.748  0.00  0.00    +0.000 C 
ATOM      2  N   UNL     1      -8.233   2.441 127.311  0.00  0.00    +0.000 N 
ATOM      3  C   UNL     1      -7.919   3.631 126.727  0.00  0.00    +0.000 A 
ATOM      4  O   UNL     1      -7.738   4.680 127.339  0.00  0.00    +0.000 OA
ATOM      5  C   UNL     1      -7.750   3.617 125.265  0.00  0.00    +0.000 A 
ATOM      6  C   UNL     1      -7.937   2.510 124.528  0.00  0.00    +0.000 A 
ATOM      7  N   UNL     1      -8.274   1.335 125.220  0.00  0.00    +0.000 N 
ATOM      8  C   UNL     1      -8.305   1.264 126.616  0.00  0.00    +0.000 A 
ATOM      9  O   UNL     1      -8.401   0.220 127.266  0.00  0.00    +0.000 OA
ENDROOT
BRANCH   6  10
ATOM     10  N   UNL     1      -7.719   2.553 123.128  0.00  0.00    +0.000 N 
ATOM     11  C   UNL     1      -8.822   2.671 122.153  0.00  0.00    +0.000 C 
ATOM     12  C   UNL     1      -8.510   3.825 121.199  0.00  0.00    +0.000 C 
ATOM     13  C   UNL     1      -7.174   3.591 120.480  0.00  0.00    +0.000 C 
ATOM     14  C   UNL     1      -6.024   3.378 121.476  0.00  0.00    +0.000 C 
ATOM     15  C   UNL     1      -6.416   2.240 122.477  0.00  0.00    +0.000 C 
BRANCH  14  16
ATOM     16  N   UNL     1      -5.792   4.664 122.146  0.00  0.00    +0.000 NA
ATOM     17  H   UNL     1      -4.782   4.781 122.134  0.00  0.00    +0.000 HD
ATOM     18  H   UNL     1      -6.021   4.635 123.135  0.00  0.00    +0.000 HD
ENDBRANCH  14  16
ENDBRANCH   6  10
BRANCH   7  19
ATOM     19  C   UNL     1      -8.448   0.107 124.438  0.00  0.00    +0.000 C 
BRANCH  19  20
ATOM     20  C   UNL     1      -7.312  -0.868 124.307  0.00  0.00    +0.000 A 
ATOM     21  C   UNL     1      -7.556  -2.178 123.858  0.00  0.00    +0.000 A 
ATOM     22  C   UNL     1      -6.562  -3.132 124.041  0.00  0.00    +0.000 A 
ATOM     23  C   UNL     1      -5.406  -2.805 124.761  0.00  0.00    +0.000 A 
ATOM     24  C   UNL     1      -5.191  -1.508 125.221  0.00  0.00    +0.000 A 
ATOM     25  C   UNL     1      -6.067  -0.506 124.848  0.00  0.00    +0.000 A 
BRANCH  21  26
ATOM     26  C   UNL     1      -8.877  -2.579 123.454  0.00  0.00    +0.000 C 
ATOM     27  N   UNL     1      -9.956  -2.970 123.230  0.00  0.00    +0.000 NA
ENDBRANCH  21  26
ENDBRANCH  19  20
ENDBRANCH   7  19
TORSDOF 5
ENDMDL
MODEL 3
REMARK VINA RESULT:      -6.6      3.507      5.232
REMARK  Name = Alogliptin
REMARK  6 active torsions:
REMARK  status: ('A' for Active; 'I' for Inactive)
REMARK    1  A    between atoms: C_1  and  N_2
REMARK    2  A    between atoms: C_6  and  N_7
REMARK    3  A    between atoms: C_11  and  N_12
REMARK    4  A    between atoms: N_14  and  C_15
REMARK    5  A    between atoms: C_15  and  C_16
REMARK    6  A    between atoms: C_17  and  C_22
REMARK                            x       y       z     vdW  Elec       q    Type
REMARK                         _______ _______ _______ _____ _____    ______ ____
ROOT
ATOM      1  C   UNL     1      -7.999  -2.573 129.632  0.00  0.00    +0.000 C 
ATOM      2  N   UNL     1      -7.707  -1.314 128.970  0.00  0.00    +0.000 N 
ATOM      3  C   UNL     1      -7.177  -0.268 129.665  0.00  0.00    +0.000 A 
ATOM      4  O   UNL     1      -6.880  -0.303 130.856  0.00  0.00    +0.000 OA
ATOM      5  C   UNL     1      -6.914   0.960 128.897  0.00  0.00    +0.000 A 
ATOM      6  C   UNL     1      -7.218   1.074 127.594  0.00  0.00    +0.000 A 
ATOM      7  N   UNL     1      -7.776  -0.053 126.969  0.00  0.00    +0.000 N 
ATOM      8  C   UNL     1      -7.911  -1.285 127.617  0.00  0.00    +0.000 A 
ATOM      9  O   UNL     1      -8.209  -2.344 127.060  0.00  0.00    +0.000 OA
ENDROOT
BRANCH   6  10
ATOM     10  N   UNL     1      -6.902   2.271 126.902  0.00  0.00    +0.000 N 
ATOM     11  C   UNL     1      -5.660   2.434 126.119  0.00  0.00    +0.000 C 
ATOM     12  C   UNL     1      -6.025   2.938 124.722  0.00  0.00    +0.000 C 
ATOM     13  C   UNL     1      -6.791   4.266 124.806  0.00  0.00    +0.000 C 
ATOM     14  C   UNL     1      -8.042   4.144 125.688  0.00  0.00    +0.000 C 
ATOM     15  C   UNL     1      -7.633   3.557 127.080  0.00  0.00    +0.000 C 
BRANCH  14  16
ATOM     16  N   UNL     1      -8.992   3.285 124.970  0.00  0.00    +0.000 NA
ATOM     17  H   UNL     1      -8.413   2.730 124.345  0.00  0.00    +0.000 HD
ATOM     18  H   UNL     1      -9.594   3.809 124.343  0.00  0.00    +0.000 HD
ENDBRANCH  14  16
ENDBRANCH   6  10
BRANCH   7  19
ATOM     19  C   UNL     1      -8.082   0.040 125.539  0.00  0.00    +0.000 C 
BRANCH  19  20
ATOM     20  C   UNL     1      -7.194  -0.639 124.535  0.00  0.00    +0.000 A 
ATOM     21  C   UNL     1      -7.722  -1.070 123.305  0.00  0.00    +0.000 A 
ATOM     22  C   UNL     1      -6.970  -1.956 122.541  0.00  0.00    +0.000 A 
ATOM     23  C   UNL     1      -5.778  -2.482 123.054  0.00  0.00    +0.000 A 
ATOM     24  C   UNL     1      -5.282  -2.062 124.286  0.00  0.00    +0.000 A 
ATOM     25  C   UNL     1      -5.905  -1.019 124.945  0.00  0.00    +0.000 A 
BRANCH  21  26
ATOM     26  C   UNL     1      -9.095  -0.808 122.965  0.00  0.00    +0.000 C 
ATOM     27  N   UNL     1     -10.168  -0.514 122.606  0.00  0.00    +0.000 NA
ENDBRANCH  21  26
ENDBRANCH  19  20
ENDBRANCH   7  19
TORSDOF 5
ENDMDL
MODEL 4
REMARK VINA RESULT:      -6.6      5.762      8.468
REMARK  Name = Alogliptin
REMARK  6 active torsions:
REMARK  status: ('A' for Active; 'I' for Inactive)
REMARK    1  A    between atoms: C_1  and  N_2
REMARK    2  A    between atoms: C_6  and  N_7
REMARK    3  A    between atoms: C_11  and  N_12
REMARK    4  A    between atoms: N_14  and  C_15
REMARK    5  A    between atoms: C_15  and  C_16
REMARK    6  A    between atoms: C_17  and  C_22
REMARK                            x       y       z     vdW  Elec       q    Type
REMARK                         _______ _______ _______ _____ _____    ______ ____
ROOT
ATOM      1  C   UNL     1     -11.981   7.288 128.826  0.00  0.00    +0.000 C 
ATOM      2  N   UNL     1     -11.249   6.741 129.953  0.00  0.00    +0.000 N 
ATOM      3  C   UNL     1     -11.809   6.697 131.195  0.00  0.00    +0.000 A 
ATOM      4  O   UNL     1     -12.949   7.072 131.456  0.00  0.00    +0.000 OA
ATOM      5  C   UNL     1     -10.982   6.118 132.265  0.00  0.00    +0.000 A 
ATOM      6  C   UNL     1      -9.725   5.693 132.055  0.00  0.00    +0.000 A 
ATOM      7  N   UNL     1      -9.230   5.793 130.745  0.00  0.00    +0.000 N 
ATOM      8  C   UNL     1     -10.023   6.201 129.668  0.00  0.00    +0.000 A 
ATOM      9  O   UNL     1      -9.696   6.118 128.482  0.00  0.00    +0.000 OA
ENDROOT
BRANCH   6  10
ATOM     10  N   UNL     1      -8.996   5.107 133.121  0.00  0.00    +0.000 N 
ATOM     11  C   UNL     1      -9.169   3.696 133.523  0.00  0.00    +0.000 C 
ATOM     12  C   UNL     1      -7.793   3.032 133.580  0.00  0.00    +0.000 C 
ATOM     13  C   UNL     1      -6.874   3.767 134.565  0.00  0.00    +0.000 C 
ATOM     14  C   UNL     1      -6.748   5.258 134.218  0.00  0.00    +0.000 C 
ATOM     15  C   UNL     1      -8.179   5.880 134.098  0.00  0.00    +0.000 C 
BRANCH  14  16
ATOM     16  N   UNL     1      -5.988   5.345 132.965  0.00  0.00    +0.000 NA
ATOM     17  H   UNL     1      -6.667   5.657 132.275  0.00  0.00    +0.000 HD
ATOM     18  H   UNL     1      -5.695   4.435 132.623  0.00  0.00    +0.000 HD
ENDBRANCH  14  16
ENDBRANCH   6  10
BRANCH   7  19
ATOM     19  C   UNL     1      -7.873   5.302 130.488  0.00  0.00    +0.000 C 
BRANCH  19  20
ATOM     20  C   UNL     1      -7.668   3.941 129.886  0.00  0.00    +0.000 A 
ATOM     21  C   UNL     1      -6.534   3.683 129.096  0.00  0.00    +0.000 A 
ATOM     22  C   UNL     1      -6.526   2.537 128.310  0.00  0.00    +0.000 A 
ATOM     23  C   UNL     1      -7.673   1.738 128.231  0.00  0.00    +0.000 A 
ATOM     24  C   UNL     1      -8.798   2.021 129.002  0.00  0.00    +0.000 A 
ATOM     25  C   UNL     1      -8.731   3.024 129.951  0.00  0.00    +0.000 A 
BRANCH  21  26
ATOM     26  C   UNL     1      -5.526   4.693 128.911  0.00  0.00    +0.000 C 
ATOM     27  N   UNL     1      -4.786   5.570 128.685  0.00  0.00    +0.000 NA
ENDBRANCH  21  26
ENDBRANCH  19  20
ENDBRANCH   7  19
TORSDOF 5
ENDMDL
MODEL 5
REMARK VINA RESULT:      -6.6      4.226      5.683
REMARK  Name = Alogliptin
REMARK  6 active torsions:
REMARK  status: ('A' for Active; 'I' for Inactive)
REMARK    1  A    between atoms: C_1  and  N_2
REMARK    2  A    between atoms: C_6  and  N_7
REMARK    3  A    between atoms: C_11  and  N_12
REMARK    4  A    between atoms: N_14  and  C_15
REMARK    5  A    between atoms: C_15  and  C_16
REMARK    6  A    between atoms: C_17  and  C_22
REMARK                            x       y       z     vdW  Elec       q    Type
REMARK                         _______ _______ _______ _____ _____    ______ ____
ROOT
ATOM      1  C   UNL     1      -6.092   2.725 125.571  0.00  0.00    +0.000 C 
ATOM      2  N   UNL     1      -5.982   1.706 126.599  0.00  0.00    +0.000 N 
ATOM      3  C   UNL     1      -5.925   2.049 127.917  0.00  0.00    +0.000 A 
ATOM      4  O   UNL     1      -5.990   3.201 128.340  0.00  0.00    +0.000 OA
ATOM      5  C   UNL     1      -5.820   0.939 128.877  0.00  0.00    +0.000 A 
ATOM      6  C   UNL     1      -5.736  -0.344 128.489  0.00  0.00    +0.000 A 
ATOM      7  N   UNL     1      -5.789  -0.596 127.109  0.00  0.00    +0.000 N 
ATOM      8  C   UNL     1      -6.032   0.408 126.167  0.00  0.00    +0.000 A 
ATOM      9  O   UNL     1      -6.280   0.211 124.975  0.00  0.00    +0.000 OA
ENDROOT
BRANCH   6  10
ATOM     10  N   UNL     1      -5.678  -1.370 129.466  0.00  0.00    +0.000 N 
ATOM     11  C   UNL     1      -6.878  -2.097 129.930  0.00  0.00    +0.000 C 
ATOM     12  C   UNL     1      -6.610  -3.599 129.825  0.00  0.00    +0.000 C 
ATOM     13  C   UNL     1      -5.382  -3.992 130.658  0.00  0.00    +0.000 C 
ATOM     14  C   UNL     1      -4.139  -3.186 130.252  0.00  0.00    +0.000 C 
ATOM     15  C   UNL     1      -4.480  -1.659 130.303  0.00  0.00    +0.000 C 
BRANCH  14  16
ATOM     16  N   UNL     1      -3.756  -3.634 128.907  0.00  0.00    +0.000 NA
ATOM     17  H   UNL     1      -4.022  -4.615 128.879  0.00  0.00    +0.000 HD
ATOM     18  H   UNL     1      -2.750  -3.650 128.774  0.00  0.00    +0.000 HD
ENDBRANCH  14  16
ENDBRANCH   6  10
BRANCH   7  19
ATOM     19  C   UNL     1      -5.736  -1.993 126.666  0.00  0.00    +0.000 C 
BRANCH  19  20
ATOM     20  C   UNL     1      -6.943  -2.628 126.037  0.00  0.00    +0.000 A 
ATOM     21  C   UNL     1      -6.853  -3.195 124.753  0.00  0.00    +0.000 A 
ATOM     22  C   UNL     1      -8.033  -3.488 124.080  0.00  0.00    +0.000 A 
ATOM     23  C   UNL     1      -9.264  -3.114 124.632  0.00  0.00    +0.000 A 
ATOM     24  C   UNL     1      -9.334  -2.530 125.895  0.00  0.00    +0.000 A 
ATOM     25  C   UNL     1      -8.187  -2.442 126.663  0.00  0.00    +0.000 A 
BRANCH  21  26
ATOM     26  C   UNL     1      -5.594  -3.235 124.058  0.00  0.00    +0.000 C 
ATOM     27  N   UNL     1      -4.636  -3.269 123.388  0.00  0.00    +0.000 NA
ENDBRANCH  21  26
ENDBRANCH  19  20
ENDBRANCH   7  19
TORSDOF 5
ENDMDL
MODEL 6
REMARK VINA RESULT:      -6.5      3.748      7.193
REMARK  Name = Alogliptin
REMARK  6 active torsions:
REMARK  status: ('A' for Active; 'I' for Inactive)
REMARK    1  A    between atoms: C_1  and  N_2
REMARK    2  A    between atoms: C_6  and  N_7
REMARK    3  A    between atoms: C_11  and  N_12
REMARK    4  A    between atoms: N_14  and  C_15
REMARK    5  A    between atoms: C_15  and  C_16
REMARK    6  A    between atoms: C_17  and  C_22
REMARK                            x       y       z     vdW  Elec       q    Type
REMARK                         _______ _______ _______ _____ _____    ______ ____
ROOT
ATOM      1  C   UNL     1      -7.972  -0.525 130.975  0.00  0.00    +0.000 C 
ATOM      2  N   UNL     1      -7.877  -0.649 129.532  0.00  0.00    +0.000 N 
ATOM      3  C   UNL     1      -7.860  -1.876 128.937  0.00  0.00    +0.000 A 
ATOM      4  O   UNL     1      -7.951  -2.942 129.540  0.00  0.00    +0.000 OA
ATOM      5  C   UNL     1      -7.768  -1.888 127.469  0.00  0.00    +0.000 A 
ATOM      6  C   UNL     1      -7.659  -0.763 126.743  0.00  0.00    +0.000 A 
ATOM      7  N   UNL     1      -7.670   0.452 127.447  0.00  0.00    +0.000 N 
ATOM      8  C   UNL     1      -7.900   0.523 128.825  0.00  0.00    +0.000 A 
ATOM      9  O   UNL     1      -8.113   1.564 129.450  0.00  0.00    +0.000 OA
ENDROOT
BRANCH   6  10
ATOM     10  N   UNL     1      -7.615  -0.842 125.328  0.00  0.00    +0.000 N 
ATOM     11  C   UNL     1      -6.358  -1.055 124.581  0.00  0.00    +0.000 C 
ATOM     12  C   UNL     1      -6.557  -2.221 123.613  0.00  0.00    +0.000 C 
ATOM     13  C   UNL     1      -7.719  -1.938 122.650  0.00  0.00    +0.000 C 
ATOM     14  C   UNL     1      -9.019  -1.627 123.406  0.00  0.00    +0.000 C 
ATOM     15  C   UNL     1      -8.752  -0.479 124.436  0.00  0.00    +0.000 C 
BRANCH  14  16
ATOM     16  N   UNL     1      -9.450  -2.875 124.051  0.00  0.00    +0.000 NA
ATOM     17  H   UNL     1      -8.918  -3.603 123.579  0.00  0.00    +0.000 HD
ATOM     18  H   UNL     1     -10.416  -3.107 123.844  0.00  0.00    +0.000 HD
ENDBRANCH  14  16
ENDBRANCH   6  10
BRANCH   7  19
ATOM     19  C   UNL     1      -7.589   1.693 126.672  0.00  0.00    +0.000 C 
BRANCH  19  20
ATOM     20  C   UNL     1      -6.333   2.517 126.702  0.00  0.00    +0.000 A 
ATOM     21  C   UNL     1      -6.382   3.888 126.393  0.00  0.00    +0.000 A 
ATOM     22  C   UNL     1      -5.186   4.545 126.128  0.00  0.00    +0.000 A 
ATOM     23  C   UNL     1      -3.991   3.819 126.059  0.00  0.00    +0.000 A 
ATOM     24  C   UNL     1      -3.964   2.456 126.344  0.00  0.00    +0.000 A 
ATOM     25  C   UNL     1      -5.106   1.844 126.827  0.00  0.00    +0.000 A 
BRANCH  21  26
ATOM     26  C   UNL     1      -7.638   4.530 126.113  0.00  0.00    +0.000 C 
ATOM     27  N   UNL     1      -8.603   5.159 125.908  0.00  0.00    +0.000 NA
ENDBRANCH  21  26
ENDBRANCH  19  20
ENDBRANCH   7  19
TORSDOF 5
ENDMDL
MODEL 7
REMARK VINA RESULT:      -6.4      3.690      5.896
REMARK  Name = Alogliptin
REMARK  6 active torsions:
REMARK  status: ('A' for Active; 'I' for Inactive)
REMARK    1  A    between atoms: C_1  and  N_2
REMARK    2  A    between atoms: C_6  and  N_7
REMARK    3  A    between atoms: C_11  and  N_12
REMARK    4  A    between atoms: N_14  and  C_15
REMARK    5  A    between atoms: C_15  and  C_16
REMARK    6  A    between atoms: C_17  and  C_22
REMARK                            x       y       z     vdW  Elec       q    Type
REMARK                         _______ _______ _______ _____ _____    ______ ____
ROOT
ATOM      1  C   UNL     1      -7.465   0.293 131.101  0.00  0.00    +0.000 C 
ATOM      2  N   UNL     1      -7.598   0.614 129.692  0.00  0.00    +0.000 N 
ATOM      3  C   UNL     1      -8.244   1.746 129.292  0.00  0.00    +0.000 A 
ATOM      4  O   UNL     1      -8.725   2.579 130.057  0.00  0.00    +0.000 OA
ATOM      5  C   UNL     1      -8.317   1.979 127.841  0.00  0.00    +0.000 A 
ATOM      6  C   UNL     1      -7.820   1.110 126.946  0.00  0.00    +0.000 A 
ATOM      7  N   UNL     1      -7.186  -0.035 127.454  0.00  0.00    +0.000 N 
ATOM      8  C   UNL     1      -6.964  -0.230 128.820  0.00  0.00    +0.000 A 
ATOM      9  O   UNL     1      -6.247  -1.113 129.298  0.00  0.00    +0.000 OA
ENDROOT
BRANCH   6  10
ATOM     10  N   UNL     1      -7.886   1.414 125.562  0.00  0.00    +0.000 N 
ATOM     11  C   UNL     1      -8.879   0.799 124.658  0.00  0.00    +0.000 C 
ATOM     12  C   UNL     1      -9.591   1.910 123.885  0.00  0.00    +0.000 C 
ATOM     13  C   UNL     1      -8.583   2.752 123.090  0.00  0.00    +0.000 C 
ATOM     14  C   UNL     1      -7.489   3.332 123.998  0.00  0.00    +0.000 C 
ATOM     15  C   UNL     1      -6.838   2.172 124.823  0.00  0.00    +0.000 C 
BRANCH  14  16
ATOM     16  N   UNL     1      -8.128   4.341 124.852  0.00  0.00    +0.000 NA
ATOM     17  H   UNL     1      -8.489   5.035 124.201  0.00  0.00    +0.000 HD
ATOM     18  H   UNL     1      -7.458   4.859 125.412  0.00  0.00    +0.000 HD
ENDBRANCH  14  16
ENDBRANCH   6  10
BRANCH   7  19
ATOM     19  C   UNL     1      -6.605  -0.978 126.494  0.00  0.00    +0.000 C 
BRANCH  19  20
ATOM     20  C   UNL     1      -7.413  -2.145 126.004  0.00  0.00    +0.000 A 
ATOM     21  C   UNL     1      -6.960  -2.910 124.914  0.00  0.00    +0.000 A 
ATOM     22  C   UNL     1      -7.858  -3.771 124.295  0.00  0.00    +0.000 A 
ATOM     23  C   UNL     1      -9.203  -3.774 124.685  0.00  0.00    +0.000 A 
ATOM     24  C   UNL     1      -9.642  -2.991 125.751  0.00  0.00    +0.000 A 
ATOM     25  C   UNL     1      -8.713  -2.307 126.513  0.00  0.00    +0.000 A 
BRANCH  21  26
ATOM     26  C   UNL     1      -5.689  -2.628 124.302  0.00  0.00    +0.000 C 
ATOM     27  N   UNL     1      -4.685  -2.484 123.720  0.00  0.00    +0.000 NA
ENDBRANCH  21  26
ENDBRANCH  19  20
ENDBRANCH   7  19
TORSDOF 5
ENDMDL
MODEL 8
REMARK VINA RESULT:      -6.4      2.938      4.038
REMARK  Name = Alogliptin
REMARK  6 active torsions:
REMARK  status: ('A' for Active; 'I' for Inactive)
REMARK    1  A    between atoms: C_1  and  N_2
REMARK    2  A    between atoms: C_6  and  N_7
REMARK    3  A    between atoms: C_11  and  N_12
REMARK    4  A    between atoms: N_14  and  C_15
REMARK    5  A    between atoms: C_15  and  C_16
REMARK    6  A    between atoms: C_17  and  C_22
REMARK                            x       y       z     vdW  Elec       q    Type
REMARK                         _______ _______ _______ _____ _____    ______ ____
ROOT
ATOM      1  C   UNL     1      -7.886   2.728 122.768  0.00  0.00    +0.000 C 
ATOM      2  N   UNL     1      -7.621   2.331 124.139  0.00  0.00    +0.000 N 
ATOM      3  C   UNL     1      -7.864   3.186 125.172  0.00  0.00    +0.000 A 
ATOM      4  O   UNL     1      -8.339   4.312 125.046  0.00  0.00    +0.000 OA
ATOM      5  C   UNL     1      -7.566   2.681 126.522  0.00  0.00    +0.000 A 
ATOM      6  C   UNL     1      -7.040   1.465 126.736  0.00  0.00    +0.000 A 
ATOM      7  N   UNL     1      -6.811   0.662 125.607  0.00  0.00    +0.000 N 
ATOM      8  C   UNL     1      -7.209   1.038 124.321  0.00  0.00    +0.000 A 
ATOM      9  O   UNL     1      -7.208   0.294 123.338  0.00  0.00    +0.000 OA
ENDROOT
BRANCH   6  10
ATOM     10  N   UNL     1      -6.814   1.022 128.065  0.00  0.00    +0.000 N 
ATOM     11  C   UNL     1      -7.897   0.509 128.928  0.00  0.00    +0.000 C 
ATOM     12  C   UNL     1      -7.468  -0.842 129.500  0.00  0.00    +0.000 C 
ATOM     13  C   UNL     1      -6.161  -0.707 130.293  0.00  0.00    +0.000 C 
ATOM     14  C   UNL     1      -5.041  -0.093 129.440  0.00  0.00    +0.000 C 
ATOM     15  C   UNL     1      -5.548   1.250 128.817  0.00  0.00    +0.000 C 
BRANCH  14  16
ATOM     16  N   UNL     1      -4.681  -1.088 128.422  0.00  0.00    +0.000 NA
ATOM     17  H   UNL     1      -5.395  -0.988 127.704  0.00  0.00    +0.000 HD
ATOM     18  H   UNL     1      -4.798  -2.041 128.750  0.00  0.00    +0.000 HD
ENDBRANCH  14  16
ENDBRANCH   6  10
BRANCH   7  19
ATOM     19  C   UNL     1      -6.270  -0.683 125.823  0.00  0.00    +0.000 C 
BRANCH  19  20
ATOM     20  C   UNL     1      -7.157  -1.885 125.660  0.00  0.00    +0.000 A 
ATOM     21  C   UNL     1      -6.775  -2.932 124.802  0.00  0.00    +0.000 A 
ATOM     22  C   UNL     1      -7.737  -3.865 124.434  0.00  0.00    +0.000 A 
ATOM     23  C   UNL     1      -9.069  -3.683 124.822  0.00  0.00    +0.000 A 
ATOM     24  C   UNL     1      -9.436  -2.626 125.652  0.00  0.00    +0.000 A 
ATOM     25  C   UNL     1      -8.451  -1.828 126.203  0.00  0.00    +0.000 A 
BRANCH  21  26
ATOM     26  C   UNL     1      -5.505  -2.898 124.127  0.00  0.00    +0.000 C 
ATOM     27  N   UNL     1      -4.509  -2.971 123.517  0.00  0.00    +0.000 NA
ENDBRANCH  21  26
ENDBRANCH  19  20
ENDBRANCH   7  19
TORSDOF 5
ENDMDL
MODEL 9
REMARK VINA RESULT:      -6.2      3.575      4.572
REMARK  Name = Alogliptin
REMARK  6 active torsions:
REMARK  status: ('A' for Active; 'I' for Inactive)
REMARK    1  A    between atoms: C_1  and  N_2
REMARK    2  A    between atoms: C_6  and  N_7
REMARK    3  A    between atoms: C_11  and  N_12
REMARK    4  A    between atoms: N_14  and  C_15
REMARK    5  A    between atoms: C_15  and  C_16
REMARK    6  A    between atoms: C_17  and  C_22
REMARK                            x       y       z     vdW  Elec       q    Type
REMARK                         _______ _______ _______ _____ _____    ______ ____
ROOT
ATOM      1  C   UNL     1      -6.865   3.885 125.141  0.00  0.00    +0.000 C 
ATOM      2  N   UNL     1      -6.658   2.633 125.846  0.00  0.00    +0.000 N 
ATOM      3  C   UNL     1      -5.462   2.357 126.440  0.00  0.00    +0.000 A 
ATOM      4  O   UNL     1      -4.503   3.123 126.461  0.00  0.00    +0.000 OA
ATOM      5  C   UNL     1      -5.361   1.063 127.133  0.00  0.00    +0.000 A 
ATOM      6  C   UNL     1      -6.366   0.172 127.147  0.00  0.00    +0.000 A 
ATOM      7  N   UNL     1      -7.553   0.541 126.494  0.00  0.00    +0.000 N 
ATOM      8  C   UNL     1      -7.749   1.813 125.947  0.00  0.00    +0.000 A 
ATOM      9  O   UNL     1      -8.830   2.246 125.542  0.00  0.00    +0.000 OA
ENDROOT
BRANCH   6  10
ATOM     10  N   UNL     1      -6.218  -1.041 127.867  0.00  0.00    +0.000 N 
ATOM     11  C   UNL     1      -5.642  -2.260 127.265  0.00  0.00    +0.000 C 
ATOM     12  C   UNL     1      -4.534  -2.781 128.180  0.00  0.00    +0.000 C 
ATOM     13  C   UNL     1      -5.081  -3.076 129.583  0.00  0.00    +0.000 C 
ATOM     14  C   UNL     1      -5.763  -1.845 130.197  0.00  0.00    +0.000 C 
ATOM     15  C   UNL     1      -6.838  -1.302 129.197  0.00  0.00    +0.000 C 
BRANCH  14  16
ATOM     16  N   UNL     1      -4.707  -0.863 130.478  0.00  0.00    +0.000 NA
ATOM     17  H   UNL     1      -4.988  -0.032 129.964  0.00  0.00    +0.000 HD
ATOM     18  H   UNL     1      -3.817  -1.118 130.061  0.00  0.00    +0.000 HD
ENDBRANCH  14  16
ENDBRANCH   6  10
BRANCH   7  19
ATOM     19  C   UNL     1      -8.674  -0.402 126.528  0.00  0.00    +0.000 C 
BRANCH  19  20
ATOM     20  C   UNL     1      -8.961  -1.273 125.338  0.00  0.00    +0.000 A 
ATOM     21  C   UNL     1      -9.112  -2.662 125.501  0.00  0.00    +0.000 A 
ATOM     22  C   UNL     1      -9.065  -3.465 124.367  0.00  0.00    +0.000 A 
ATOM     23  C   UNL     1      -8.758  -2.900 123.124  0.00  0.00    +0.000 A 
ATOM     24  C   UNL     1      -8.587  -1.525 122.984  0.00  0.00    +0.000 A 
ATOM     25  C   UNL     1      -8.854  -0.699 124.060  0.00  0.00    +0.000 A 
BRANCH  21  26
ATOM     26  C   UNL     1      -9.062  -3.255 126.810  0.00  0.00    +0.000 C 
ATOM     27  N   UNL     1      -8.906  -3.772 127.848  0.00  0.00    +0.000 NA
ENDBRANCH  21  26
ENDBRANCH  19  20
ENDBRANCH   7  19
TORSDOF 5
ENDMDL
