MODEL 1
REMARK VINA RESULT:      -7.8      0.000      0.000
REMARK  Name = Alosetron
REMARK  4 active torsions:
REMARK  status: ('A' for Active; 'I' for Inactive)
REMARK    1  A    between atoms: C_1  and  N_2
REMARK    2  A    between atoms: N_13  and  C_14
REMARK    3  A    between atoms: C_14  and  C_15
REMARK    4  A    between atoms: C_16  and  C_17
REMARK                            x       y       z     vdW  Elec       q    Type
REMARK                         _______ _______ _______ _____ _____    ______ ____
ROOT
ATOM      1  C   UNL     1      -6.542   4.171 134.459  0.00  0.00    +0.000 C 
ATOM      2  N   UNL     1      -6.728   5.096 133.359  0.00  0.00    +0.000 N 
ATOM      3  C   UNL     1      -7.925   5.438 132.786  0.00  0.00    +0.000 A 
ATOM      4  C   UNL     1      -7.697   6.324 131.744  0.00  0.00    +0.000 A 
ATOM      5  C   UNL     1      -6.294   6.552 131.705  0.00  0.00    +0.000 A 
ATOM      6  C   UNL     1      -5.469   7.337 130.878  0.00  0.00    +0.000 A 
ATOM      7  C   UNL     1      -4.086   7.329 131.062  0.00  0.00    +0.000 A 
ATOM      8  C   UNL     1      -3.514   6.545 132.060  0.00  0.00    +0.000 A 
ATOM      9  C   UNL     1      -4.306   5.749 132.898  0.00  0.00    +0.000 A 
ATOM     10  C   UNL     1      -5.701   5.766 132.708  0.00  0.00    +0.000 A 
ATOM     11  C   UNL     1      -8.781   6.792 130.857  0.00  0.00    +0.000 C 
ATOM     12  O   UNL     1      -8.604   7.618 129.961  0.00  0.00    +0.000 OA
ATOM     13  N   UNL     1     -10.000   6.137 131.094  0.00  0.00    +0.000 N 
ATOM     14  C   UNL     1     -10.308   5.885 132.501  0.00  0.00    +0.000 C 
ATOM     15  C   UNL     1      -9.284   4.946 133.151  0.00  0.00    +0.000 C 
ENDROOT
BRANCH  13  16
ATOM     16  C   UNL     1     -10.788   5.565 129.975  0.00  0.00    +0.000 C 
BRANCH  16  17
ATOM     17  C   UNL     1     -11.803   6.517 129.356  0.00  0.00    +0.000 A 
ATOM     18  C   UNL     1     -12.724   7.420 129.898  0.00  0.00    +0.000 A 
ATOM     19  C   UNL     1     -13.131   7.792 131.285  0.00  0.00    +0.000 C 
ATOM     20  N   UNL     1     -13.313   8.022 128.800  0.00  0.00    +0.000 N 
ATOM     21  C   UNL     1     -12.777   7.472 127.675  0.00  0.00    +0.000 A 
ATOM     22  N   UNL     1     -11.911   6.539 127.972  0.00  0.00    +0.000 NA
ATOM     23  H   UNL     1     -14.022   8.744 128.802  0.00  0.00    +0.000 HD
ENDBRANCH  16  17
ENDBRANCH  13  16
TORSDOF 2
ENDMDL
MODEL 2
REMARK VINA RESULT:      -7.7      9.132     11.078
REMARK  Name = Alosetron
REMARK  4 active torsions:
REMARK  status: ('A' for Active; 'I' for Inactive)
REMARK    1  A    between atoms: C_1  and  N_2
REMARK    2  A    between atoms: N_13  and  C_14
REMARK    3  A    between atoms: C_14  and  C_15
REMARK    4  A    between atoms: C_16  and  C_17
REMARK                            x       y       z     vdW  Elec       q    Type
REMARK                         _______ _______ _______ _____ _____    ______ ____
ROOT
ATOM      1  C   UNL     1      -4.529   4.351 122.091  0.00  0.00    +0.000 C 
ATOM      2  N   UNL     1      -5.913   3.928 122.047  0.00  0.00    +0.000 N 
ATOM      3  C   UNL     1      -6.601   3.311 123.059  0.00  0.00    +0.000 A 
ATOM      4  C   UNL     1      -7.891   3.032 122.634  0.00  0.00    +0.000 A 
ATOM      5  C   UNL     1      -7.997   3.534 121.307  0.00  0.00    +0.000 A 
ATOM      6  C   UNL     1      -9.041   3.545 120.363  0.00  0.00    +0.000 A 
ATOM      7  C   UNL     1      -8.831   4.090 119.096  0.00  0.00    +0.000 A 
ATOM      8  C   UNL     1      -7.590   4.621 118.757  0.00  0.00    +0.000 A 
ATOM      9  C   UNL     1      -6.528   4.623 119.671  0.00  0.00    +0.000 A 
ATOM     10  C   UNL     1      -6.751   4.075 120.949  0.00  0.00    +0.000 A 
ATOM     11  C   UNL     1      -8.846   2.268 123.461  0.00  0.00    +0.000 C 
ATOM     12  O   UNL     1     -10.010   2.058 123.121  0.00  0.00    +0.000 OA
ATOM     13  N   UNL     1      -8.261   1.747 124.626  0.00  0.00    +0.000 N 
ATOM     14  C   UNL     1      -7.309   2.632 125.295  0.00  0.00    +0.000 C 
ATOM     15  C   UNL     1      -6.093   2.937 124.411  0.00  0.00    +0.000 C 
ENDROOT
BRANCH  13  16
ATOM     16  C   UNL     1      -8.450   0.325 125.003  0.00  0.00    +0.000 C 
BRANCH  16  17
ATOM     17  C   UNL     1      -7.381  -0.624 124.477  0.00  0.00    +0.000 A 
ATOM     18  C   UNL     1      -6.106  -0.978 124.933  0.00  0.00    +0.000 A 
ATOM     19  C   UNL     1      -5.249  -0.550 126.077  0.00  0.00    +0.000 C 
ATOM     20  N   UNL     1      -5.664  -1.933 124.033  0.00  0.00    +0.000 N 
ATOM     21  C   UNL     1      -6.628  -2.101 123.085  0.00  0.00    +0.000 A 
ATOM     22  N   UNL     1      -7.641  -1.302 123.294  0.00  0.00    +0.000 NA
ATOM     23  H   UNL     1      -4.784  -2.432 124.050  0.00  0.00    +0.000 HD
ENDBRANCH  16  17
ENDBRANCH  13  16
TORSDOF 2
ENDMDL
MODEL 3
REMARK VINA RESULT:      -7.6      8.774     10.137
REMARK  Name = Alosetron
REMARK  4 active torsions:
REMARK  status: ('A' for Active; 'I' for Inactive)
REMARK    1  A    between atoms: C_1  and  N_2
REMARK    2  A    between atoms: N_13  and  C_14
REMARK    3  A    between atoms: C_14  and  C_15
REMARK    4  A    between atoms: C_16  and  C_17
REMARK                            x       y       z     vdW  Elec       q    Type
REMARK                         _______ _______ _______ _____ _____    ______ ____
ROOT
ATOM      1  C   UNL     1      -4.499   4.122 125.122  0.00  0.00    +0.000 C 
ATOM      2  N   UNL     1      -5.630   3.690 124.327  0.00  0.00    +0.000 N 
ATOM      3  C   UNL     1      -6.715   2.987 124.782  0.00  0.00    +0.000 A 
ATOM      4  C   UNL     1      -7.572   2.731 123.722  0.00  0.00    +0.000 A 
ATOM      5  C   UNL     1      -6.990   3.337 122.575  0.00  0.00    +0.000 A 
ATOM      6  C   UNL     1      -7.380   3.413 121.224  0.00  0.00    +0.000 A 
ATOM      7  C   UNL     1      -6.562   4.059 120.297  0.00  0.00    +0.000 A 
ATOM      8  C   UNL     1      -5.357   4.628 120.699  0.00  0.00    +0.000 A 
ATOM      9  C   UNL     1      -4.937   4.567 122.034  0.00  0.00    +0.000 A 
ATOM     10  C   UNL     1      -5.771   3.916 122.964  0.00  0.00    +0.000 A 
ATOM     11  C   UNL     1      -8.780   1.894 123.870  0.00  0.00    +0.000 C 
ATOM     12  O   UNL     1      -9.578   1.701 122.953  0.00  0.00    +0.000 OA
ATOM     13  N   UNL     1      -8.870   1.287 125.133  0.00  0.00    +0.000 N 
ATOM     14  C   UNL     1      -8.458   2.125 126.258  0.00  0.00    +0.000 C 
ATOM     15  C   UNL     1      -6.976   2.512 126.171  0.00  0.00    +0.000 C 
ENDROOT
BRANCH  13  16
ATOM     16  C   UNL     1      -9.157  -0.162 125.262  0.00  0.00    +0.000 C 
BRANCH  16  17
ATOM     17  C   UNL     1      -8.127  -1.079 124.615  0.00  0.00    +0.000 A 
ATOM     18  C   UNL     1      -8.230  -2.240 123.841  0.00  0.00    +0.000 A 
ATOM     19  C   UNL     1      -9.366  -3.084 123.371  0.00  0.00    +0.000 C 
ATOM     20  N   UNL     1      -6.924  -2.562 123.517  0.00  0.00    +0.000 N 
ATOM     21  C   UNL     1      -6.102  -1.646 124.100  0.00  0.00    +0.000 A 
ATOM     22  N   UNL     1      -6.784  -0.778 124.801  0.00  0.00    +0.000 NA
ATOM     23  H   UNL     1      -6.606  -3.338 122.950  0.00  0.00    +0.000 HD
ENDBRANCH  16  17
ENDBRANCH  13  16
TORSDOF 2
ENDMDL
MODEL 4
REMARK VINA RESULT:      -7.4      2.227      2.624
REMARK  Name = Alosetron
REMARK  4 active torsions:
REMARK  status: ('A' for Active; 'I' for Inactive)
REMARK    1  A    between atoms: C_1  and  N_2
REMARK    2  A    between atoms: N_13  and  C_14
REMARK    3  A    between atoms: C_14  and  C_15
REMARK    4  A    between atoms: C_16  and  C_17
REMARK                            x       y       z     vdW  Elec       q    Type
REMARK                         _______ _______ _______ _____ _____    ______ ____
ROOT
ATOM      1  C   UNL     1      -6.497   2.883 128.400  0.00  0.00    +0.000 C 
ATOM      2  N   UNL     1      -6.923   3.928 129.308  0.00  0.00    +0.000 N 
ATOM      3  C   UNL     1      -8.188   4.095 129.809  0.00  0.00    +0.000 A 
ATOM      4  C   UNL     1      -8.215   5.221 130.618  0.00  0.00    +0.000 A 
ATOM      5  C   UNL     1      -6.891   5.742 130.631  0.00  0.00    +0.000 A 
ATOM      6  C   UNL     1      -6.302   6.857 131.258  0.00  0.00    +0.000 A 
ATOM      7  C   UNL     1      -4.953   7.143 131.048  0.00  0.00    +0.000 A 
ATOM      8  C   UNL     1      -4.184   6.334 130.216  0.00  0.00    +0.000 A 
ATOM      9  C   UNL     1      -4.740   5.219 129.575  0.00  0.00    +0.000 A 
ATOM     10  C   UNL     1      -6.101   4.935 129.796  0.00  0.00    +0.000 A 
ATOM     11  C   UNL     1      -9.464   5.731 131.217  0.00  0.00    +0.000 C 
ATOM     12  O   UNL     1      -9.497   6.697 131.980  0.00  0.00    +0.000 OA
ATOM     13  N   UNL     1     -10.604   5.050 130.761  0.00  0.00    +0.000 N 
ATOM     14  C   UNL     1     -10.445   3.606 130.601  0.00  0.00    +0.000 C 
ATOM     15  C   UNL     1      -9.393   3.261 129.539  0.00  0.00    +0.000 C 
ENDROOT
BRANCH  13  16
ATOM     16  C   UNL     1     -11.794   5.794 130.280  0.00  0.00    +0.000 C 
BRANCH  16  17
ATOM     17  C   UNL     1     -11.507   6.837 129.209  0.00  0.00    +0.000 A 
ATOM     18  C   UNL     1     -11.879   8.176 129.052  0.00  0.00    +0.000 A 
ATOM     19  C   UNL     1     -12.738   9.119 129.825  0.00  0.00    +0.000 C 
ATOM     20  N   UNL     1     -11.248   8.582 127.889  0.00  0.00    +0.000 N 
ATOM     21  C   UNL     1     -10.565   7.518 127.383  0.00  0.00    +0.000 A 
ATOM     22  N   UNL     1     -10.739   6.452 128.119  0.00  0.00    +0.000 NA
ATOM     23  H   UNL     1     -11.273   9.501 127.465  0.00  0.00    +0.000 HD
ENDBRANCH  16  17
ENDBRANCH  13  16
TORSDOF 2
ENDMDL
MODEL 5
REMARK VINA RESULT:      -7.2      7.922     10.140
REMARK  Name = Alosetron
REMARK  4 active torsions:
REMARK  status: ('A' for Active; 'I' for Inactive)
REMARK    1  A    between atoms: C_1  and  N_2
REMARK    2  A    between atoms: N_13  and  C_14
REMARK    3  A    between atoms: C_14  and  C_15
REMARK    4  A    between atoms: C_16  and  C_17
REMARK                            x       y       z     vdW  Elec       q    Type
REMARK                         _______ _______ _______ _____ _____    ______ ____
ROOT
ATOM      1  C   UNL     1      -9.659   0.568 122.979  0.00  0.00    +0.000 C 
ATOM      2  N   UNL     1      -8.466   0.391 123.781  0.00  0.00    +0.000 N 
ATOM      3  C   UNL     1      -7.807   1.373 124.475  0.00  0.00    +0.000 A 
ATOM      4  C   UNL     1      -6.694   0.827 125.095  0.00  0.00    +0.000 A 
ATOM      5  C   UNL     1      -6.698  -0.561 124.786  0.00  0.00    +0.000 A 
ATOM      6  C   UNL     1      -5.835  -1.623 125.117  0.00  0.00    +0.000 A 
ATOM      7  C   UNL     1      -6.083  -2.903 124.622  0.00  0.00    +0.000 A 
ATOM      8  C   UNL     1      -7.178  -3.138 123.797  0.00  0.00    +0.000 A 
ATOM      9  C   UNL     1      -8.054  -2.103 123.444  0.00  0.00    +0.000 A 
ATOM     10  C   UNL     1      -7.799  -0.814 123.952  0.00  0.00    +0.000 A 
ATOM     11  C   UNL     1      -5.716   1.655 125.829  0.00  0.00    +0.000 C 
ATOM     12  O   UNL     1      -4.752   1.180 126.429  0.00  0.00    +0.000 OA
ATOM     13  N   UNL     1      -5.961   3.031 125.698  0.00  0.00    +0.000 N 
ATOM     14  C   UNL     1      -7.370   3.420 125.733  0.00  0.00    +0.000 C 
ATOM     15  C   UNL     1      -8.157   2.820 124.560  0.00  0.00    +0.000 C 
ENDROOT
BRANCH  13  16
ATOM     16  C   UNL     1      -4.869   3.969 125.337  0.00  0.00    +0.000 C 
BRANCH  16  17
ATOM     17  C   UNL     1      -4.078   4.514 126.519  0.00  0.00    +0.000 A 
ATOM     18  C   UNL     1      -2.850   4.166 127.091  0.00  0.00    +0.000 A 
ATOM     19  C   UNL     1      -1.837   3.103 126.825  0.00  0.00    +0.000 C 
ATOM     20  N   UNL     1      -2.665   5.083 128.111  0.00  0.00    +0.000 N 
ATOM     21  C   UNL     1      -3.750   5.906 128.144  0.00  0.00    +0.000 A 
ATOM     22  N   UNL     1      -4.631   5.562 127.241  0.00  0.00    +0.000 NA
ATOM     23  H   UNL     1      -1.875   5.152 128.739  0.00  0.00    +0.000 HD
ENDBRANCH  16  17
ENDBRANCH  13  16
TORSDOF 2
ENDMDL
MODEL 6
REMARK VINA RESULT:      -7.2      9.275     11.736
REMARK  Name = Alosetron
REMARK  4 active torsions:
REMARK  status: ('A' for Active; 'I' for Inactive)
REMARK    1  A    between atoms: C_1  and  N_2
REMARK    2  A    between atoms: N_13  and  C_14
REMARK    3  A    between atoms: C_14  and  C_15
REMARK    4  A    between atoms: C_16  and  C_17
REMARK                            x       y       z     vdW  Elec       q    Type
REMARK                         _______ _______ _______ _____ _____    ______ ____
ROOT
ATOM      1  C   UNL     1      -6.006   0.377 125.476  0.00  0.00    +0.000 C 
ATOM      2  N   UNL     1      -6.855  -0.739 125.837  0.00  0.00    +0.000 N 
ATOM      3  C   UNL     1      -7.000  -1.270 127.092  0.00  0.00    +0.000 A 
ATOM      4  C   UNL     1      -7.874  -2.346 127.036  0.00  0.00    +0.000 A 
ATOM      5  C   UNL     1      -8.302  -2.450 125.683  0.00  0.00    +0.000 A 
ATOM      6  C   UNL     1      -9.169  -3.334 125.015  0.00  0.00    +0.000 A 
ATOM      7  C   UNL     1      -9.369  -3.208 123.640  0.00  0.00    +0.000 A 
ATOM      8  C   UNL     1      -8.710  -2.214 122.922  0.00  0.00    +0.000 A 
ATOM      9  C   UNL     1      -7.837  -1.321 123.556  0.00  0.00    +0.000 A 
ATOM     10  C   UNL     1      -7.645  -1.452 124.945  0.00  0.00    +0.000 A 
ATOM     11  C   UNL     1      -8.149  -3.199 128.209  0.00  0.00    +0.000 C 
ATOM     12  O   UNL     1      -8.961  -4.124 128.190  0.00  0.00    +0.000 OA
ATOM     13  N   UNL     1      -7.333  -2.891 129.309  0.00  0.00    +0.000 N 
ATOM     14  C   UNL     1      -7.087  -1.466 129.524  0.00  0.00    +0.000 C 
ATOM     15  C   UNL     1      -6.329  -0.834 128.350  0.00  0.00    +0.000 C 
ENDROOT
BRANCH  13  16
ATOM     16  C   UNL     1      -6.614  -3.959 130.047  0.00  0.00    +0.000 C 
BRANCH  16  17
ATOM     17  C   UNL     1      -5.318  -3.515 130.713  0.00  0.00    +0.000 A 
ATOM     18  C   UNL     1      -3.999  -3.404 130.260  0.00  0.00    +0.000 A 
ATOM     19  C   UNL     1      -3.305  -3.712 128.976  0.00  0.00    +0.000 C 
ATOM     20  N   UNL     1      -3.300  -2.890 131.339  0.00  0.00    +0.000 N 
ATOM     21  C   UNL     1      -4.171  -2.738 132.375  0.00  0.00    +0.000 A 
ATOM     22  N   UNL     1      -5.369  -3.147 132.050  0.00  0.00    +0.000 NA
ATOM     23  H   UNL     1      -2.315  -2.661 131.380  0.00  0.00    +0.000 HD
ENDBRANCH  16  17
ENDBRANCH  13  16
TORSDOF 2
ENDMDL
MODEL 7
REMARK VINA RESULT:      -7.0      2.316      3.315
REMARK  Name = Alosetron
REMARK  4 active torsions:
REMARK  status: ('A' for Active; 'I' for Inactive)
REMARK    1  A    between atoms: C_1  and  N_2
REMARK    2  A    between atoms: N_13  and  C_14
REMARK    3  A    between atoms: C_14  and  C_15
REMARK    4  A    between atoms: C_16  and  C_17
REMARK                            x       y       z     vdW  Elec       q    Type
REMARK                         _______ _______ _______ _____ _____    ______ ____
ROOT
ATOM      1  C   UNL     1      -5.191   4.951 134.544  0.00  0.00    +0.000 C 
ATOM      2  N   UNL     1      -5.680   5.650 133.374  0.00  0.00    +0.000 N 
ATOM      3  C   UNL     1      -6.985   5.716 132.960  0.00  0.00    +0.000 A 
ATOM      4  C   UNL     1      -7.057   6.448 131.784  0.00  0.00    +0.000 A 
ATOM      5  C   UNL     1      -5.731   6.871 131.489  0.00  0.00    +0.000 A 
ATOM      6  C   UNL     1      -5.173   7.626 130.441  0.00  0.00    +0.000 A 
ATOM      7  C   UNL     1      -3.797   7.852 130.399  0.00  0.00    +0.000 A 
ATOM      8  C   UNL     1      -2.969   7.330 131.388  0.00  0.00    +0.000 A 
ATOM      9  C   UNL     1      -3.491   6.571 132.444  0.00  0.00    +0.000 A 
ATOM     10  C   UNL     1      -4.882   6.352 132.481  0.00  0.00    +0.000 A 
ATOM     11  C   UNL     1      -8.315   6.603 131.028  0.00  0.00    +0.000 C 
ATOM     12  O   UNL     1      -8.407   7.292 130.012  0.00  0.00    +0.000 OA
ATOM     13  N   UNL     1      -9.361   5.822 131.546  0.00  0.00    +0.000 N 
ATOM     14  C   UNL     1      -9.426   5.757 133.005  0.00  0.00    +0.000 C 
ATOM     15  C   UNL     1      -8.178   5.095 133.603  0.00  0.00    +0.000 C 
ENDROOT
BRANCH  13  16
ATOM     16  C   UNL     1     -10.187   4.969 130.657  0.00  0.00    +0.000 C 
BRANCH  16  17
ATOM     17  C   UNL     1      -9.537   3.654 130.249  0.00  0.00    +0.000 A 
ATOM     18  C   UNL     1      -9.363   2.428 130.902  0.00  0.00    +0.000 A 
ATOM     19  C   UNL     1      -9.689   1.915 132.265  0.00  0.00    +0.000 C 
ATOM     20  N   UNL     1      -8.740   1.618 129.968  0.00  0.00    +0.000 N 
ATOM     21  C   UNL     1      -8.539   2.351 128.838  0.00  0.00    +0.000 A 
ATOM     22  N   UNL     1      -8.958   3.580 128.990  0.00  0.00    +0.000 NA
ATOM     23  H   UNL     1      -8.468   0.650 130.080  0.00  0.00    +0.000 HD
ENDBRANCH  16  17
ENDBRANCH  13  16
TORSDOF 2
ENDMDL
MODEL 8
REMARK VINA RESULT:      -6.8      2.160      2.757
REMARK  Name = Alosetron
REMARK  4 active torsions:
REMARK  status: ('A' for Active; 'I' for Inactive)
REMARK    1  A    between atoms: C_1  and  N_2
REMARK    2  A    between atoms: N_13  and  C_14
REMARK    3  A    between atoms: C_14  and  C_15
REMARK    4  A    between atoms: C_16  and  C_17
REMARK                            x       y       z     vdW  Elec       q    Type
REMARK                         _______ _______ _______ _____ _____    ______ ____
ROOT
ATOM      1  C   UNL     1      -5.421   2.687 131.567  0.00  0.00    +0.000 C 
ATOM      2  N   UNL     1      -6.419   3.555 132.157  0.00  0.00    +0.000 N 
ATOM      3  C   UNL     1      -7.521   4.065 131.521  0.00  0.00    +0.000 A 
ATOM      4  C   UNL     1      -8.223   4.876 132.401  0.00  0.00    +0.000 A 
ATOM      5  C   UNL     1      -7.526   4.828 133.640  0.00  0.00    +0.000 A 
ATOM      6  C   UNL     1      -7.742   5.438 134.890  0.00  0.00    +0.000 A 
ATOM      7  C   UNL     1      -6.842   5.226 135.935  0.00  0.00    +0.000 A 
ATOM      8  C   UNL     1      -5.726   4.417 135.747  0.00  0.00    +0.000 A 
ATOM      9  C   UNL     1      -5.478   3.798 134.515  0.00  0.00    +0.000 A 
ATOM     10  C   UNL     1      -6.394   4.013 133.467  0.00  0.00    +0.000 A 
ATOM     11  C   UNL     1      -9.400   5.662 131.980  0.00  0.00    +0.000 C 
ATOM     12  O   UNL     1     -10.064   6.344 132.760  0.00  0.00    +0.000 OA
ATOM     13  N   UNL     1      -9.624   5.607 130.595  0.00  0.00    +0.000 N 
ATOM     14  C   UNL     1      -9.399   4.301 129.978  0.00  0.00    +0.000 C 
ATOM     15  C   UNL     1      -7.937   3.854 130.105  0.00  0.00    +0.000 C 
ENDROOT
BRANCH  13  16
ATOM     16  C   UNL     1      -9.859   6.845 129.812  0.00  0.00    +0.000 C 
BRANCH  16  17
ATOM     17  C   UNL     1     -11.275   7.001 129.272  0.00  0.00    +0.000 A 
ATOM     18  C   UNL     1     -12.499   7.318 129.872  0.00  0.00    +0.000 A 
ATOM     19  C   UNL     1     -12.938   7.585 131.272  0.00  0.00    +0.000 C 
ATOM     20  N   UNL     1     -13.403   7.354 128.825  0.00  0.00    +0.000 N 
ATOM     21  C   UNL     1     -12.738   7.044 127.678  0.00  0.00    +0.000 A 
ATOM     22  N   UNL     1     -11.480   6.781 127.917  0.00  0.00    +0.000 NA
ATOM     23  H   UNL     1     -14.391   7.567 128.874  0.00  0.00    +0.000 HD
ENDBRANCH  16  17
ENDBRANCH  13  16
TORSDOF 2
ENDMDL
MODEL 9
REMARK VINA RESULT:      -6.8      7.306      9.662
REMARK  Name = Alosetron
REMARK  4 active torsions:
REMARK  status: ('A' for Active; 'I' for Inactive)
REMARK    1  A    between atoms: C_1  and  N_2
REMARK    2  A    between atoms: N_13  and  C_14
REMARK    3  A    between atoms: C_14  and  C_15
REMARK    4  A    between atoms: C_16  and  C_17
REMARK                            x       y       z     vdW  Elec       q    Type
REMARK                         _______ _______ _______ _____ _____    ______ ____
ROOT
ATOM      1  C   UNL     1      -7.426  -0.799 124.483  0.00  0.00    +0.000 C 
ATOM      2  N   UNL     1      -7.320  -0.752 125.927  0.00  0.00    +0.000 N 
ATOM      3  C   UNL     1      -6.735   0.248 126.661  0.00  0.00    +0.000 A 
ATOM      4  C   UNL     1      -6.802  -0.075 128.008  0.00  0.00    +0.000 A 
ATOM      5  C   UNL     1      -7.489  -1.317 128.094  0.00  0.00    +0.000 A 
ATOM      6  C   UNL     1      -7.851  -2.143 129.175  0.00  0.00    +0.000 A 
ATOM      7  C   UNL     1      -8.503  -3.354 128.939  0.00  0.00    +0.000 A 
ATOM      8  C   UNL     1      -8.795  -3.754 127.638  0.00  0.00    +0.000 A 
ATOM      9  C   UNL     1      -8.445  -2.957 126.540  0.00  0.00    +0.000 A 
ATOM     10  C   UNL     1      -7.791  -1.734 126.787  0.00  0.00    +0.000 A 
ATOM     11  C   UNL     1      -6.157   0.752 129.048  0.00  0.00    +0.000 C 
ATOM     12  O   UNL     1      -6.251   0.508 130.251  0.00  0.00    +0.000 OA
ATOM     13  N   UNL     1      -5.370   1.784 128.513  0.00  0.00    +0.000 N 
ATOM     14  C   UNL     1      -5.931   2.451 127.339  0.00  0.00    +0.000 C 
ATOM     15  C   UNL     1      -6.083   1.489 126.154  0.00  0.00    +0.000 C 
ENDROOT
BRANCH  13  16
ATOM     16  C   UNL     1      -3.984   2.011 128.992  0.00  0.00    +0.000 C 
BRANCH  16  17
ATOM     17  C   UNL     1      -3.375   3.344 128.576  0.00  0.00    +0.000 A 
ATOM     18  C   UNL     1      -2.461   3.710 127.582  0.00  0.00    +0.000 A 
ATOM     19  C   UNL     1      -1.673   2.962 126.560  0.00  0.00    +0.000 C 
ATOM     20  N   UNL     1      -2.360   5.086 127.689  0.00  0.00    +0.000 N 
ATOM     21  C   UNL     1      -3.157   5.493 128.715  0.00  0.00    +0.000 A 
ATOM     22  N   UNL     1      -3.737   4.475 129.294  0.00  0.00    +0.000 NA
ATOM     23  H   UNL     1      -1.798   5.707 127.120  0.00  0.00    +0.000 HD
ENDBRANCH  16  17
ENDBRANCH  13  16
TORSDOF 2
ENDMDL
