MODEL 1
REMARK VINA RESULT:      -9.3      0.000      0.000
REMARK  Name = Alpelisib
REMARK  7 active torsions:
REMARK  status: ('A' for Active; 'I' for Inactive)
REMARK    1  A    between atoms: C_1  and  C_2
REMARK    2  A    between atoms: C_3  and  C_18
REMARK    3  A    between atoms: C_13  and  C_14
REMARK    4  A    between atoms: C_20  and  C_24
REMARK    5  A    between atoms: C_24  and  C_25
REMARK    6  A    between atoms: C_24  and  C_26
REMARK    7  A    between atoms: C_24  and  C_27
REMARK                            x       y       z     vdW  Elec       q    Type
REMARK                         _______ _______ _______ _____ _____    ______ ____
ROOT
ATOM      1  C   UNL     1      -6.689   3.407 121.634  0.00  0.00    +0.000 C 
ATOM      2  C   UNL     1      -6.494   3.319 123.117  0.00  0.00    +0.000 A 
ATOM      3  C   UNL     1      -7.173   2.456 123.966  0.00  0.00    +0.000 A 
ATOM      4  S   UNL     1      -6.628   2.704 125.571  0.00  0.00    +0.000 S 
ATOM      5  C   UNL     1      -5.567   3.954 125.066  0.00  0.00    +0.000 A 
ATOM      6  N   UNL     1      -4.789   4.685 125.973  0.00  0.00    +0.000 N 
ATOM      7  C   UNL     1      -4.610   4.398 127.311  0.00  0.00    +0.000 C 
ATOM      8  O   UNL     1      -5.131   3.454 127.911  0.00  0.00    +0.000 OA
ATOM      9  N   UNL     1      -3.768   5.236 128.025  0.00  0.00    +0.000 N 
ATOM     10  C   UNL     1      -3.653   6.677 127.925  0.00  0.00    +0.000 C 
ATOM     11  C   UNL     1      -2.226   6.936 128.374  0.00  0.00    +0.000 C 
ATOM     12  C   UNL     1      -2.046   5.957 129.534  0.00  0.00    +0.000 C 
ATOM     13  C   UNL     1      -2.989   4.773 129.208  0.00  0.00    +0.000 C 
ATOM     14  N   UNL     1      -5.581   4.179 123.763  0.00  0.00    +0.000 NA
ATOM     15  H   UNL     1      -4.170   5.348 125.529  0.00  0.00    +0.000 HD
ENDROOT
BRANCH   3  16
ATOM     16  C   UNL     1      -8.179   1.432 123.644  0.00  0.00    +0.000 A 
ATOM     17  C   UNL     1      -7.974   0.113 124.058  0.00  0.00    +0.000 A 
ATOM     18  C   UNL     1      -8.867  -0.904 123.709  0.00  0.00    +0.000 A 
ATOM     19  N   UNL     1      -9.957  -0.630 122.950  0.00  0.00    +0.000 NA
ATOM     20  C   UNL     1     -10.148   0.651 122.553  0.00  0.00    +0.000 A 
ATOM     21  C   UNL     1      -9.302   1.703 122.871  0.00  0.00    +0.000 A 
BRANCH  18  22
ATOM     22  C   UNL     1      -8.679  -2.360 124.158  0.00  0.00    +0.000 C 
ATOM     23  C   UNL     1      -9.586  -3.276 123.315  0.00  0.00    +0.000 C 
ATOM     24  C   UNL     1      -7.213  -2.791 123.955  0.00  0.00    +0.000 C 
BRANCH  22  25
ATOM     25  C   UNL     1      -9.035  -2.558 125.636  0.00  0.00    +0.000 C 
ATOM     26  F   UNL     1      -8.063  -3.237 126.297  0.00  0.00    +0.000 F 
ATOM     27  F   UNL     1      -9.207  -1.376 126.276  0.00  0.00    +0.000 F 
ATOM     28  F   UNL     1     -10.179  -3.259 125.798  0.00  0.00    +0.000 F 
ENDBRANCH  22  25
ENDBRANCH  18  22
ENDBRANCH   3  16
BRANCH  13  29
ATOM     29  C   UNL     1      -3.769   4.430 130.498  0.00  0.00    +0.000 C 
ATOM     30  N   UNL     1      -4.033   3.111 130.725  0.00  0.00    +0.000 N 
ATOM     31  O   UNL     1      -4.220   5.292 131.252  0.00  0.00    +0.000 OA
ATOM     32  H   UNL     1      -3.398   2.435 130.313  0.00  0.00    +0.000 HD
ATOM     33  H   UNL     1      -4.384   2.885 131.647  0.00  0.00    +0.000 HD
ENDBRANCH  13  29
TORSDOF 4
ENDMDL
MODEL 2
REMARK VINA RESULT:      -8.6      5.479      6.774
REMARK  Name = Alpelisib
REMARK  7 active torsions:
REMARK  status: ('A' for Active; 'I' for Inactive)
REMARK    1  A    between atoms: C_1  and  C_2
REMARK    2  A    between atoms: C_3  and  C_18
REMARK    3  A    between atoms: C_13  and  C_14
REMARK    4  A    between atoms: C_20  and  C_24
REMARK    5  A    between atoms: C_24  and  C_25
REMARK    6  A    between atoms: C_24  and  C_26
REMARK    7  A    between atoms: C_24  and  C_27
REMARK                            x       y       z     vdW  Elec       q    Type
REMARK                         _______ _______ _______ _____ _____    ______ ____
ROOT
ATOM      1  C   UNL     1      -8.483  -0.904 131.935  0.00  0.00    +0.000 C 
ATOM      2  C   UNL     1      -8.590   0.350 131.120  0.00  0.00    +0.000 A 
ATOM      3  C   UNL     1      -7.955   0.573 129.905  0.00  0.00    +0.000 A 
ATOM      4  S   UNL     1      -8.364   2.137 129.339  0.00  0.00    +0.000 S 
ATOM      5  C   UNL     1      -9.312   2.445 130.734  0.00  0.00    +0.000 A 
ATOM      6  N   UNL     1      -9.945   3.676 130.952  0.00  0.00    +0.000 N 
ATOM      7  C   UNL     1     -10.067   4.702 130.038  0.00  0.00    +0.000 C 
ATOM      8  O   UNL     1      -9.615   4.690 128.890  0.00  0.00    +0.000 OA
ATOM      9  N   UNL     1     -10.764   5.829 130.448  0.00  0.00    +0.000 N 
ATOM     10  C   UNL     1     -10.726   6.474 131.745  0.00  0.00    +0.000 C 
ATOM     11  C   UNL     1     -12.083   7.148 131.828  0.00  0.00    +0.000 C 
ATOM     12  C   UNL     1     -12.294   7.678 130.410  0.00  0.00    +0.000 C 
ATOM     13  C   UNL     1     -11.510   6.701 129.499  0.00  0.00    +0.000 C 
ATOM     14  N   UNL     1      -9.359   1.436 131.587  0.00  0.00    +0.000 NA
ATOM     15  H   UNL     1     -10.515   3.694 131.785  0.00  0.00    +0.000 HD
ENDROOT
BRANCH   3  16
ATOM     16  C   UNL     1      -7.091  -0.327 129.126  0.00  0.00    +0.000 A 
ATOM     17  C   UNL     1      -7.537  -0.810 127.892  0.00  0.00    +0.000 A 
ATOM     18  C   UNL     1      -6.780  -1.725 127.155  0.00  0.00    +0.000 A 
ATOM     19  N   UNL     1      -5.589  -2.170 127.629  0.00  0.00    +0.000 NA
ATOM     20  C   UNL     1      -5.165  -1.697 128.826  0.00  0.00    +0.000 A 
ATOM     21  C   UNL     1      -5.867  -0.786 129.599  0.00  0.00    +0.000 A 
BRANCH  18  22
ATOM     22  C   UNL     1      -7.233  -2.265 125.792  0.00  0.00    +0.000 C 
ATOM     23  C   UNL     1      -7.780  -1.105 124.939  0.00  0.00    +0.000 C 
ATOM     24  C   UNL     1      -6.041  -2.905 125.054  0.00  0.00    +0.000 C 
BRANCH  22  25
ATOM     25  C   UNL     1      -8.334  -3.323 125.928  0.00  0.00    +0.000 C 
ATOM     26  F   UNL     1      -8.332  -3.891 127.161  0.00  0.00    +0.000 F 
ATOM     27  F   UNL     1      -9.566  -2.796 125.730  0.00  0.00    +0.000 F 
ATOM     28  F   UNL     1      -8.192  -4.329 125.036  0.00  0.00    +0.000 F 
ENDBRANCH  22  25
ENDBRANCH  18  22
ENDBRANCH   3  16
BRANCH  13  29
ATOM     29  C   UNL     1     -10.690   7.552 128.502  0.00  0.00    +0.000 C 
ATOM     30  N   UNL     1     -10.836   7.260 127.177  0.00  0.00    +0.000 N 
ATOM     31  O   UNL     1      -9.869   8.395 128.865  0.00  0.00    +0.000 OA
ATOM     32  H   UNL     1     -11.714   6.837 126.892  0.00  0.00    +0.000 HD
ATOM     33  H   UNL     1     -10.436   7.929 126.532  0.00  0.00    +0.000 HD
ENDBRANCH  13  29
TORSDOF 4
ENDMDL
MODEL 3
REMARK VINA RESULT:      -8.5      4.357      5.874
REMARK  Name = Alpelisib
REMARK  7 active torsions:
REMARK  status: ('A' for Active; 'I' for Inactive)
REMARK    1  A    between atoms: C_1  and  C_2
REMARK    2  A    between atoms: C_3  and  C_18
REMARK    3  A    between atoms: C_13  and  C_14
REMARK    4  A    between atoms: C_20  and  C_24
REMARK    5  A    between atoms: C_24  and  C_25
REMARK    6  A    between atoms: C_24  and  C_26
REMARK    7  A    between atoms: C_24  and  C_27
REMARK                            x       y       z     vdW  Elec       q    Type
REMARK                         _______ _______ _______ _____ _____    ______ ____
ROOT
ATOM      1  C   UNL     1      -5.003  -2.340 129.896  0.00  0.00    +0.000 C 
ATOM      2  C   UNL     1      -5.947  -1.175 129.928  0.00  0.00    +0.000 A 
ATOM      3  C   UNL     1      -7.010  -0.980 129.056  0.00  0.00    +0.000 A 
ATOM      4  S   UNL     1      -7.809   0.478 129.466  0.00  0.00    +0.000 S 
ATOM      5  C   UNL     1      -6.695   0.788 130.732  0.00  0.00    +0.000 A 
ATOM      6  N   UNL     1      -6.749   1.953 131.507  0.00  0.00    +0.000 N 
ATOM      7  C   UNL     1      -7.769   2.883 131.510  0.00  0.00    +0.000 C 
ATOM      8  O   UNL     1      -8.782   2.830 130.808  0.00  0.00    +0.000 OA
ATOM      9  N   UNL     1      -7.640   3.953 132.382  0.00  0.00    +0.000 N 
ATOM     10  C   UNL     1      -6.439   4.701 132.701  0.00  0.00    +0.000 C 
ATOM     11  C   UNL     1      -6.726   5.223 134.097  0.00  0.00    +0.000 C 
ATOM     12  C   UNL     1      -8.203   5.610 134.026  0.00  0.00    +0.000 C 
ATOM     13  C   UNL     1      -8.814   4.658 132.968  0.00  0.00    +0.000 C 
ATOM     14  N   UNL     1      -5.774  -0.149 130.880  0.00  0.00    +0.000 NA
ATOM     15  H   UNL     1      -6.068   1.974 132.252  0.00  0.00    +0.000 HD
ENDROOT
BRANCH   3  16
ATOM     16  C   UNL     1      -7.483  -1.837 127.958  0.00  0.00    +0.000 A 
ATOM     17  C   UNL     1      -7.130  -1.525 126.642  0.00  0.00    +0.000 A 
ATOM     18  C   UNL     1      -7.619  -2.268 125.564  0.00  0.00    +0.000 A 
ATOM     19  N   UNL     1      -8.457  -3.314 125.775  0.00  0.00    +0.000 NA
ATOM     20  C   UNL     1      -8.794  -3.609 127.054  0.00  0.00    +0.000 A 
ATOM     21  C   UNL     1      -8.338  -2.913 128.163  0.00  0.00    +0.000 A 
BRANCH  18  22
ATOM     22  C   UNL     1      -7.241  -1.961 124.109  0.00  0.00    +0.000 C 
ATOM     23  C   UNL     1      -8.332  -2.511 123.170  0.00  0.00    +0.000 C 
ATOM     24  C   UNL     1      -7.130  -0.438 123.901  0.00  0.00    +0.000 C 
BRANCH  22  25
ATOM     25  C   UNL     1      -5.903  -2.596 123.714  0.00  0.00    +0.000 C 
ATOM     26  F   UNL     1      -4.864  -2.021 124.372  0.00  0.00    +0.000 F 
ATOM     27  F   UNL     1      -5.872  -3.921 123.992  0.00  0.00    +0.000 F 
ATOM     28  F   UNL     1      -5.645  -2.469 122.393  0.00  0.00    +0.000 F 
ENDBRANCH  22  25
ENDBRANCH  18  22
ENDBRANCH   3  16
BRANCH  13  29
ATOM     29  C   UNL     1      -9.689   5.513 132.023  0.00  0.00    +0.000 C 
ATOM     30  N   UNL     1     -10.788   4.908 131.486  0.00  0.00    +0.000 N 
ATOM     31  O   UNL     1      -9.382   6.656 131.683  0.00  0.00    +0.000 OA
ATOM     32  H   UNL     1     -11.196   4.141 132.012  0.00  0.00    +0.000 HD
ATOM     33  H   UNL     1     -11.442   5.521 131.016  0.00  0.00    +0.000 HD
ENDBRANCH  13  29
TORSDOF 4
ENDMDL
MODEL 4
REMARK VINA RESULT:      -8.5      3.143      3.784
REMARK  Name = Alpelisib
REMARK  7 active torsions:
REMARK  status: ('A' for Active; 'I' for Inactive)
REMARK    1  A    between atoms: C_1  and  C_2
REMARK    2  A    between atoms: C_3  and  C_18
REMARK    3  A    between atoms: C_13  and  C_14
REMARK    4  A    between atoms: C_20  and  C_24
REMARK    5  A    between atoms: C_24  and  C_25
REMARK    6  A    between atoms: C_24  and  C_26
REMARK    7  A    between atoms: C_24  and  C_27
REMARK                            x       y       z     vdW  Elec       q    Type
REMARK                         _______ _______ _______ _____ _____    ______ ____
ROOT
ATOM      1  C   UNL     1      -6.227   3.250 124.222  0.00  0.00    +0.000 C 
ATOM      2  C   UNL     1      -6.902   3.042 125.545  0.00  0.00    +0.000 A 
ATOM      3  C   UNL     1      -7.924   2.134 125.789  0.00  0.00    +0.000 A 
ATOM      4  S   UNL     1      -8.385   2.241 127.436  0.00  0.00    +0.000 S 
ATOM      5  C   UNL     1      -7.251   3.495 127.720  0.00  0.00    +0.000 A 
ATOM      6  N   UNL     1      -7.135   4.131 128.963  0.00  0.00    +0.000 N 
ATOM      7  C   UNL     1      -7.737   3.735 130.140  0.00  0.00    +0.000 C 
ATOM      8  O   UNL     1      -8.486   2.763 130.264  0.00  0.00    +0.000 OA
ATOM      9  N   UNL     1      -7.463   4.490 131.270  0.00  0.00    +0.000 N 
ATOM     10  C   UNL     1      -7.342   5.931 131.369  0.00  0.00    +0.000 C 
ATOM     11  C   UNL     1      -6.423   6.113 132.564  0.00  0.00    +0.000 C 
ATOM     12  C   UNL     1      -6.909   5.043 133.540  0.00  0.00    +0.000 C 
ATOM     13  C   UNL     1      -7.478   3.915 132.644  0.00  0.00    +0.000 C 
ATOM     14  N   UNL     1      -6.531   3.821 126.660  0.00  0.00    +0.000 NA
ATOM     15  H   UNL     1      -6.388   4.809 129.001  0.00  0.00    +0.000 HD
ENDROOT
BRANCH   3  16
ATOM     16  C   UNL     1      -8.550   1.167 124.875  0.00  0.00    +0.000 A 
ATOM     17  C   UNL     1      -8.407  -0.202 125.118  0.00  0.00    +0.000 A 
ATOM     18  C   UNL     1      -8.922  -1.153 124.234  0.00  0.00    +0.000 A 
ATOM     19  N   UNL     1      -9.574  -0.764 123.109  0.00  0.00    +0.000 NA
ATOM     20  C   UNL     1      -9.708   0.565 122.882  0.00  0.00    +0.000 A 
ATOM     21  C   UNL     1      -9.224   1.555 123.723  0.00  0.00    +0.000 A 
BRANCH  18  22
ATOM     22  C   UNL     1      -8.794  -2.663 124.477  0.00  0.00    +0.000 C 
ATOM     23  C   UNL     1      -9.335  -3.003 125.878  0.00  0.00    +0.000 C 
ATOM     24  C   UNL     1      -9.612  -3.440 123.427  0.00  0.00    +0.000 C 
BRANCH  22  25
ATOM     25  C   UNL     1      -7.338  -3.139 124.395  0.00  0.00    +0.000 C 
ATOM     26  F   UNL     1      -6.628  -2.764 125.489  0.00  0.00    +0.000 F 
ATOM     27  F   UNL     1      -7.253  -4.488 124.302  0.00  0.00    +0.000 F 
ATOM     28  F   UNL     1      -6.693  -2.633 123.320  0.00  0.00    +0.000 F 
ENDBRANCH  22  25
ENDBRANCH  18  22
ENDBRANCH   3  16
BRANCH  13  29
ATOM     29  C   UNL     1      -8.844   3.494 133.236  0.00  0.00    +0.000 C 
ATOM     30  N   UNL     1      -9.620   4.488 133.760  0.00  0.00    +0.000 N 
ATOM     31  O   UNL     1      -9.196   2.319 133.326  0.00  0.00    +0.000 OA
ATOM     32  H   UNL     1      -9.486   5.422 133.388  0.00  0.00    +0.000 HD
ATOM     33  H   UNL     1     -10.573   4.230 133.982  0.00  0.00    +0.000 HD
ENDBRANCH  13  29
TORSDOF 4
ENDMDL
MODEL 5
REMARK VINA RESULT:      -8.3      4.599      5.781
REMARK  Name = Alpelisib
REMARK  7 active torsions:
REMARK  status: ('A' for Active; 'I' for Inactive)
REMARK    1  A    between atoms: C_1  and  C_2
REMARK    2  A    between atoms: C_3  and  C_18
REMARK    3  A    between atoms: C_13  and  C_14
REMARK    4  A    between atoms: C_20  and  C_24
REMARK    5  A    between atoms: C_24  and  C_25
REMARK    6  A    between atoms: C_24  and  C_26
REMARK    7  A    between atoms: C_24  and  C_27
REMARK                            x       y       z     vdW  Elec       q    Type
REMARK                         _______ _______ _______ _____ _____    ______ ____
ROOT
ATOM      1  C   UNL     1      -5.302  -1.016 129.851  0.00  0.00    +0.000 C 
ATOM      2  C   UNL     1      -6.227   0.101 129.472  0.00  0.00    +0.000 A 
ATOM      3  C   UNL     1      -6.727   0.330 128.196  0.00  0.00    +0.000 A 
ATOM      4  S   UNL     1      -7.739   1.711 128.232  0.00  0.00    +0.000 S 
ATOM      5  C   UNL     1      -7.431   1.951 129.902  0.00  0.00    +0.000 A 
ATOM      6  N   UNL     1      -7.958   3.039 130.611  0.00  0.00    +0.000 N 
ATOM      7  C   UNL     1      -8.915   3.922 130.154  0.00  0.00    +0.000 C 
ATOM      8  O   UNL     1      -9.437   3.891 129.037  0.00  0.00    +0.000 OA
ATOM      9  N   UNL     1      -9.324   4.913 131.034  0.00  0.00    +0.000 N 
ATOM     10  C   UNL     1      -8.506   5.677 131.955  0.00  0.00    +0.000 C 
ATOM     11  C   UNL     1      -9.491   6.059 133.046  0.00  0.00    +0.000 C 
ATOM     12  C   UNL     1     -10.762   6.391 132.265  0.00  0.00    +0.000 C 
ATOM     13  C   UNL     1     -10.686   5.514 130.990  0.00  0.00    +0.000 C 
ATOM     14  N   UNL     1      -6.634   1.043 130.439  0.00  0.00    +0.000 NA
ATOM     15  H   UNL     1      -7.742   3.020 131.597  0.00  0.00    +0.000 HD
ENDROOT
BRANCH   3  16
ATOM     16  C   UNL     1      -6.520  -0.442 126.962  0.00  0.00    +0.000 A 
ATOM     17  C   UNL     1      -7.524  -1.308 126.517  0.00  0.00    +0.000 A 
ATOM     18  C   UNL     1      -7.339  -2.115 125.391  0.00  0.00    +0.000 A 
ATOM     19  N   UNL     1      -6.170  -2.078 124.705  0.00  0.00    +0.000 NA
ATOM     20  C   UNL     1      -5.202  -1.237 125.143  0.00  0.00    +0.000 A 
ATOM     21  C   UNL     1      -5.328  -0.409 126.248  0.00  0.00    +0.000 A 
BRANCH  18  22
ATOM     22  C   UNL     1      -8.424  -3.066 124.869  0.00  0.00    +0.000 C 
ATOM     23  C   UNL     1      -7.816  -4.465 124.649  0.00  0.00    +0.000 C 
ATOM     24  C   UNL     1      -9.568  -3.179 125.896  0.00  0.00    +0.000 C 
BRANCH  22  25
ATOM     25  C   UNL     1      -9.020  -2.587 123.540  0.00  0.00    +0.000 C 
ATOM     26  F   UNL     1      -9.396  -1.284 123.603  0.00  0.00    +0.000 F 
ATOM     27  F   UNL     1      -8.136  -2.702 122.520  0.00  0.00    +0.000 F 
ATOM     28  F   UNL     1     -10.117  -3.292 123.186  0.00  0.00    +0.000 F 
ENDBRANCH  22  25
ENDBRANCH  18  22
ENDBRANCH   3  16
BRANCH  13  29
ATOM     29  C   UNL     1     -11.041   6.414 129.784  0.00  0.00    +0.000 C 
ATOM     30  N   UNL     1     -10.411   7.623 129.711  0.00  0.00    +0.000 N 
ATOM     31  O   UNL     1     -11.913   6.119 128.967  0.00  0.00    +0.000 OA
ATOM     32  H   UNL     1      -9.504   7.698 130.160  0.00  0.00    +0.000 HD
ATOM     33  H   UNL     1     -10.516   8.122 128.837  0.00  0.00    +0.000 HD
ENDBRANCH  13  29
TORSDOF 4
ENDMDL
MODEL 6
REMARK VINA RESULT:      -8.2      6.058      7.782
REMARK  Name = Alpelisib
REMARK  7 active torsions:
REMARK  status: ('A' for Active; 'I' for Inactive)
REMARK    1  A    between atoms: C_1  and  C_2
REMARK    2  A    between atoms: C_3  and  C_18
REMARK    3  A    between atoms: C_13  and  C_14
REMARK    4  A    between atoms: C_20  and  C_24
REMARK    5  A    between atoms: C_24  and  C_25
REMARK    6  A    between atoms: C_24  and  C_26
REMARK    7  A    between atoms: C_24  and  C_27
REMARK                            x       y       z     vdW  Elec       q    Type
REMARK                         _______ _______ _______ _____ _____    ______ ____
ROOT
ATOM      1  C   UNL     1      -8.138  -3.103 129.287  0.00  0.00    +0.000 C 
ATOM      2  C   UNL     1      -6.772  -2.786 129.815  0.00  0.00    +0.000 A 
ATOM      3  C   UNL     1      -5.786  -2.093 129.124  0.00  0.00    +0.000 A 
ATOM      4  S   UNL     1      -4.394  -1.966 130.114  0.00  0.00    +0.000 S 
ATOM      5  C   UNL     1      -5.147  -2.860 131.368  0.00  0.00    +0.000 A 
ATOM      6  N   UNL     1      -4.479  -3.194 132.553  0.00  0.00    +0.000 N 
ATOM      7  C   UNL     1      -3.251  -2.711 132.961  0.00  0.00    +0.000 C 
ATOM      8  O   UNL     1      -2.551  -1.921 132.323  0.00  0.00    +0.000 OA
ATOM      9  N   UNL     1      -2.783  -3.147 134.191  0.00  0.00    +0.000 N 
ATOM     10  C   UNL     1      -2.878  -4.477 134.758  0.00  0.00    +0.000 C 
ATOM     11  C   UNL     1      -2.841  -4.212 136.252  0.00  0.00    +0.000 C 
ATOM     12  C   UNL     1      -1.802  -3.100 136.381  0.00  0.00    +0.000 C 
ATOM     13  C   UNL     1      -1.878  -2.326 135.042  0.00  0.00    +0.000 C 
ATOM     14  N   UNL     1      -6.388  -3.227 131.098  0.00  0.00    +0.000 NA
ATOM     15  H   UNL     1      -5.063  -3.671 133.225  0.00  0.00    +0.000 HD
ENDROOT
BRANCH   3  16
ATOM     16  C   UNL     1      -5.837  -1.489 127.784  0.00  0.00    +0.000 A 
ATOM     17  C   UNL     1      -6.139  -2.292 126.680  0.00  0.00    +0.000 A 
ATOM     18  C   UNL     1      -6.125  -1.775 125.381  0.00  0.00    +0.000 A 
ATOM     19  N   UNL     1      -5.810  -0.473 125.164  0.00  0.00    +0.000 NA
ATOM     20  C   UNL     1      -5.519   0.297 126.240  0.00  0.00    +0.000 A 
ATOM     21  C   UNL     1      -5.522  -0.156 127.550  0.00  0.00    +0.000 A 
BRANCH  18  22
ATOM     22  C   UNL     1      -6.464  -2.624 124.149  0.00  0.00    +0.000 C 
ATOM     23  C   UNL     1      -6.378  -1.749 122.885  0.00  0.00    +0.000 C 
ATOM     24  C   UNL     1      -5.461  -3.787 124.017  0.00  0.00    +0.000 C 
BRANCH  22  25
ATOM     25  C   UNL     1      -7.876  -3.217 124.228  0.00  0.00    +0.000 C 
ATOM     26  F   UNL     1      -7.855  -4.497 124.678  0.00  0.00    +0.000 F 
ATOM     27  F   UNL     1      -8.674  -2.509 125.063  0.00  0.00    +0.000 F 
ATOM     28  F   UNL     1      -8.491  -3.237 123.025  0.00  0.00    +0.000 F 
ENDBRANCH  22  25
ENDBRANCH  18  22
ENDBRANCH   3  16
BRANCH  13  29
ATOM     29  C   UNL     1      -0.428  -2.103 134.550  0.00  0.00    +0.000 C 
ATOM     30  N   UNL     1      -0.071  -0.821 134.247  0.00  0.00    +0.000 N 
ATOM     31  O   UNL     1       0.355  -3.030 134.346  0.00  0.00    +0.000 OA
ATOM     32  H   UNL     1      -0.574  -0.078 134.721  0.00  0.00    +0.000 HD
ATOM     33  H   UNL     1       0.917  -0.663 134.098  0.00  0.00    +0.000 HD
ENDBRANCH  13  29
TORSDOF 4
ENDMDL
MODEL 7
REMARK VINA RESULT:      -8.1      5.369      7.529
REMARK  Name = Alpelisib
REMARK  7 active torsions:
REMARK  status: ('A' for Active; 'I' for Inactive)
REMARK    1  A    between atoms: C_1  and  C_2
REMARK    2  A    between atoms: C_3  and  C_18
REMARK    3  A    between atoms: C_13  and  C_14
REMARK    4  A    between atoms: C_20  and  C_24
REMARK    5  A    between atoms: C_24  and  C_25
REMARK    6  A    between atoms: C_24  and  C_26
REMARK    7  A    between atoms: C_24  and  C_27
REMARK                            x       y       z     vdW  Elec       q    Type
REMARK                         _______ _______ _______ _____ _____    ______ ____
ROOT
ATOM      1  C   UNL     1      -9.623  -3.280 126.395  0.00  0.00    +0.000 C 
ATOM      2  C   UNL     1      -8.385  -3.051 127.208  0.00  0.00    +0.000 A 
ATOM      3  C   UNL     1      -7.246  -2.390 126.766  0.00  0.00    +0.000 A 
ATOM      4  S   UNL     1      -6.088  -2.366 128.027  0.00  0.00    +0.000 S 
ATOM      5  C   UNL     1      -7.127  -3.257 129.061  0.00  0.00    +0.000 A 
ATOM      6  N   UNL     1      -6.738  -3.660 130.345  0.00  0.00    +0.000 N 
ATOM      7  C   UNL     1      -5.603  -3.255 131.017  0.00  0.00    +0.000 C 
ATOM      8  O   UNL     1      -4.749  -2.484 130.572  0.00  0.00    +0.000 OA
ATOM      9  N   UNL     1      -5.423  -3.752 132.300  0.00  0.00    +0.000 N 
ATOM     10  C   UNL     1      -5.694  -5.092 132.781  0.00  0.00    +0.000 C 
ATOM     11  C   UNL     1      -5.960  -4.874 134.259  0.00  0.00    +0.000 C 
ATOM     12  C   UNL     1      -4.921  -3.822 134.646  0.00  0.00    +0.000 C 
ATOM     13  C   UNL     1      -4.680  -3.005 133.353  0.00  0.00    +0.000 C 
ATOM     14  N   UNL     1      -8.299  -3.550 128.524  0.00  0.00    +0.000 NA
ATOM     15  H   UNL     1      -7.470  -4.126 130.860  0.00  0.00    +0.000 HD
ENDROOT
BRANCH   3  16
ATOM     16  C   UNL     1      -6.988  -1.744 125.469  0.00  0.00    +0.000 A 
ATOM     17  C   UNL     1      -7.447  -0.443 125.247  0.00  0.00    +0.000 A 
ATOM     18  C   UNL     1      -7.288   0.180 124.005  0.00  0.00    +0.000 A 
ATOM     19  N   UNL     1      -6.684  -0.474 122.981  0.00  0.00    +0.000 NA
ATOM     20  C   UNL     1      -6.243  -1.736 123.207  0.00  0.00    +0.000 A 
ATOM     21  C   UNL     1      -6.366  -2.403 124.416  0.00  0.00    +0.000 A 
BRANCH  18  22
ATOM     22  C   UNL     1      -7.768   1.611 123.730  0.00  0.00    +0.000 C 
ATOM     23  C   UNL     1      -7.772   2.411 125.047  0.00  0.00    +0.000 C 
ATOM     24  C   UNL     1      -6.821   2.304 122.732  0.00  0.00    +0.000 C 
BRANCH  22  25
ATOM     25  C   UNL     1      -9.185   1.642 123.145  0.00  0.00    +0.000 C 
ATOM     26  F   UNL     1      -9.276   2.505 122.102  0.00  0.00    +0.000 F 
ATOM     27  F   UNL     1      -9.571   0.423 122.695  0.00  0.00    +0.000 F 
ATOM     28  F   UNL     1     -10.107   2.031 124.054  0.00  0.00    +0.000 F 
ENDBRANCH  22  25
ENDBRANCH  18  22
ENDBRANCH   3  16
BRANCH  13  29
ATOM     29  C   UNL     1      -3.151  -2.844 133.183  0.00  0.00    +0.000 C 
ATOM     30  N   UNL     1      -2.713  -1.678 132.624  0.00  0.00    +0.000 N 
ATOM     31  O   UNL     1      -2.354  -3.744 133.445  0.00  0.00    +0.000 OA
ATOM     32  H   UNL     1      -3.308  -0.863 132.733  0.00  0.00    +0.000 HD
ATOM     33  H   UNL     1      -1.717  -1.511 132.679  0.00  0.00    +0.000 HD
ENDBRANCH  13  29
TORSDOF 4
ENDMDL
MODEL 8
REMARK VINA RESULT:      -8.0      6.128      9.581
REMARK  Name = Alpelisib
REMARK  7 active torsions:
REMARK  status: ('A' for Active; 'I' for Inactive)
REMARK    1  A    between atoms: C_1  and  C_2
REMARK    2  A    between atoms: C_3  and  C_18
REMARK    3  A    between atoms: C_13  and  C_14
REMARK    4  A    between atoms: C_20  and  C_24
REMARK    5  A    between atoms: C_24  and  C_25
REMARK    6  A    between atoms: C_24  and  C_26
REMARK    7  A    between atoms: C_24  and  C_27
REMARK                            x       y       z     vdW  Elec       q    Type
REMARK                         _______ _______ _______ _____ _____    ______ ____
ROOT
ATOM      1  C   UNL     1      -7.681   2.310 132.780  0.00  0.00    +0.000 C 
ATOM      2  C   UNL     1      -8.072   2.196 131.337  0.00  0.00    +0.000 A 
ATOM      3  C   UNL     1      -8.925   3.064 130.667  0.00  0.00    +0.000 A 
ATOM      4  S   UNL     1      -9.083   2.547 129.041  0.00  0.00    +0.000 S 
ATOM      5  C   UNL     1      -8.062   1.198 129.321  0.00  0.00    +0.000 A 
ATOM      6  N   UNL     1      -7.790   0.247 128.329  0.00  0.00    +0.000 N 
ATOM      7  C   UNL     1      -8.117   0.348 126.992  0.00  0.00    +0.000 C 
ATOM      8  O   UNL     1      -8.718   1.294 126.477  0.00  0.00    +0.000 OA
ATOM      9  N   UNL     1      -7.724  -0.697 126.170  0.00  0.00    +0.000 N 
ATOM     10  C   UNL     1      -7.747  -2.116 126.463  0.00  0.00    +0.000 C 
ATOM     11  C   UNL     1      -6.650  -2.664 125.568  0.00  0.00    +0.000 C 
ATOM     12  C   UNL     1      -6.826  -1.868 124.276  0.00  0.00    +0.000 C 
ATOM     13  C   UNL     1      -7.423  -0.510 124.723  0.00  0.00    +0.000 C 
ATOM     14  N   UNL     1      -7.591   1.126 130.555  0.00  0.00    +0.000 NA
ATOM     15  H   UNL     1      -7.128  -0.458 128.618  0.00  0.00    +0.000 HD
ENDROOT
BRANCH   3  16
ATOM     16  C   UNL     1      -9.599   4.275 131.160  0.00  0.00    +0.000 A 
ATOM     17  C   UNL     1     -10.315   5.075 130.266  0.00  0.00    +0.000 A 
ATOM     18  C   UNL     1     -10.907   6.272 130.677  0.00  0.00    +0.000 A 
ATOM     19  N   UNL     1     -10.793   6.687 131.964  0.00  0.00    +0.000 NA
ATOM     20  C   UNL     1     -10.096   5.905 132.824  0.00  0.00    +0.000 A 
ATOM     21  C   UNL     1      -9.492   4.707 132.476  0.00  0.00    +0.000 A 
BRANCH  18  22
ATOM     22  C   UNL     1     -11.712   7.167 129.725  0.00  0.00    +0.000 C 
ATOM     23  C   UNL     1     -12.698   6.300 128.919  0.00  0.00    +0.000 C 
ATOM     24  C   UNL     1     -12.511   8.211 130.529  0.00  0.00    +0.000 C 
BRANCH  22  25
ATOM     25  C   UNL     1     -10.810   7.914 128.736  0.00  0.00    +0.000 C 
ATOM     26  F   UNL     1     -11.404   9.043 128.273  0.00  0.00    +0.000 F 
ATOM     27  F   UNL     1      -9.635   8.280 129.303  0.00  0.00    +0.000 F 
ATOM     28  F   UNL     1     -10.503   7.164 127.654  0.00  0.00    +0.000 F 
ENDBRANCH  22  25
ENDBRANCH  18  22
ENDBRANCH   3  16
BRANCH  13  29
ATOM     29  C   UNL     1      -8.600  -0.184 123.775  0.00  0.00    +0.000 C 
ATOM     30  N   UNL     1      -8.714   1.110 123.357  0.00  0.00    +0.000 N 
ATOM     31  O   UNL     1      -9.458  -1.013 123.471  0.00  0.00    +0.000 OA
ATOM     32  H   UNL     1      -7.864   1.663 123.330  0.00  0.00    +0.000 HD
ATOM     33  H   UNL     1      -9.374   1.273 122.607  0.00  0.00    +0.000 HD
ENDBRANCH  13  29
TORSDOF 4
ENDMDL
MODEL 9
REMARK VINA RESULT:      -8.0      5.109      9.228
REMARK  Name = Alpelisib
REMARK  7 active torsions:
REMARK  status: ('A' for Active; 'I' for Inactive)
REMARK    1  A    between atoms: C_1  and  C_2
REMARK    2  A    between atoms: C_3  and  C_18
REMARK    3  A    between atoms: C_13  and  C_14
REMARK    4  A    between atoms: C_20  and  C_24
REMARK    5  A    between atoms: C_24  and  C_25
REMARK    6  A    between atoms: C_24  and  C_26
REMARK    7  A    between atoms: C_24  and  C_27
REMARK                            x       y       z     vdW  Elec       q    Type
REMARK                         _______ _______ _______ _____ _____    ______ ____
ROOT
ATOM      1  C   UNL     1      -4.843   1.726 130.916  0.00  0.00    +0.000 C 
ATOM      2  C   UNL     1      -5.803   1.291 129.850  0.00  0.00    +0.000 A 
ATOM      3  C   UNL     1      -7.173   1.519 129.863  0.00  0.00    +0.000 A 
ATOM      4  S   UNL     1      -7.864   0.847 128.447  0.00  0.00    +0.000 S 
ATOM      5  C   UNL     1      -6.340   0.262 127.924  0.00  0.00    +0.000 A 
ATOM      6  N   UNL     1      -6.191  -0.496 126.754  0.00  0.00    +0.000 N 
ATOM      7  C   UNL     1      -7.157  -0.705 125.791  0.00  0.00    +0.000 C 
ATOM      8  O   UNL     1      -8.308  -0.265 125.830  0.00  0.00    +0.000 OA
ATOM      9  N   UNL     1      -6.790  -1.464 124.689  0.00  0.00    +0.000 N 
ATOM     10  C   UNL     1      -5.960  -2.652 124.664  0.00  0.00    +0.000 C 
ATOM     11  C   UNL     1      -5.376  -2.629 123.263  0.00  0.00    +0.000 C 
ATOM     12  C   UNL     1      -6.553  -2.165 122.406  0.00  0.00    +0.000 C 
ATOM     13  C   UNL     1      -7.409  -1.283 123.348  0.00  0.00    +0.000 C 
ATOM     14  N   UNL     1      -5.340   0.561 128.735  0.00  0.00    +0.000 NA
ATOM     15  H   UNL     1      -5.231  -0.722 126.540  0.00  0.00    +0.000 HD
ENDROOT
BRANCH   3  16
ATOM     16  C   UNL     1      -7.988   2.241 130.851  0.00  0.00    +0.000 A 
ATOM     17  C   UNL     1      -8.370   3.561 130.595  0.00  0.00    +0.000 A 
ATOM     18  C   UNL     1      -9.081   4.307 131.539  0.00  0.00    +0.000 A 
ATOM     19  N   UNL     1      -9.413   3.762 132.736  0.00  0.00    +0.000 NA
ATOM     20  C   UNL     1      -9.038   2.482 132.976  0.00  0.00    +0.000 A 
ATOM     21  C   UNL     1      -8.337   1.691 132.079  0.00  0.00    +0.000 A 
BRANCH  18  22
ATOM     22  C   UNL     1      -9.527   5.753 131.284  0.00  0.00    +0.000 C 
ATOM     23  C   UNL     1     -10.300   6.273 132.511  0.00  0.00    +0.000 C 
ATOM     24  C   UNL     1      -8.298   6.653 131.054  0.00  0.00    +0.000 C 
BRANCH  22  25
ATOM     25  C   UNL     1     -10.440   5.867 130.057  0.00  0.00    +0.000 C 
ATOM     26  F   UNL     1     -11.173   7.009 130.086  0.00  0.00    +0.000 F 
ATOM     27  F   UNL     1      -9.732   5.871 128.902  0.00  0.00    +0.000 F 
ATOM     28  F   UNL     1     -11.317   4.842 129.974  0.00  0.00    +0.000 F 
ENDBRANCH  22  25
ENDBRANCH  18  22
ENDBRANCH   3  16
BRANCH  13  29
ATOM     29  C   UNL     1      -8.886  -1.709 123.169  0.00  0.00    +0.000 C 
ATOM     30  N   UNL     1      -9.157  -3.043 123.266  0.00  0.00    +0.000 N 
ATOM     31  O   UNL     1      -9.775  -0.915 122.864  0.00  0.00    +0.000 OA
ATOM     32  H   UNL     1      -8.523  -3.604 123.827  0.00  0.00    +0.000 HD
ATOM     33  H   UNL     1     -10.137  -3.290 123.323  0.00  0.00    +0.000 HD
ENDBRANCH  13  29
TORSDOF 4
ENDMDL
