MODEL 1
REMARK VINA RESULT:      -7.1      0.000      0.000
REMARK  Name = alpha-Tocopherol succinate
REMARK  26 active torsions:
REMARK  status: ('A' for Active; 'I' for Inactive)
REMARK    1  A    between atoms: C_2  and  C_3
REMARK    2  A    between atoms: C_2  and  C_4
REMARK    3  A    between atoms: C_2  and  C_10
REMARK    4  A    between atoms: C_4  and  C_5
REMARK    5  A    between atoms: C_5  and  C_6
REMARK    6  A    between atoms: C_6  and  C_7
REMARK    7  A    between atoms: C_7  and  C_8
REMARK    8  A    between atoms: C_7  and  C_9
REMARK    9  A    between atoms: C_10  and  C_11
REMARK   10  A    between atoms: C_11  and  C_12
REMARK   11  A    between atoms: C_12  and  C_13
REMARK   12  A    between atoms: C_13  and  C_15
REMARK   13  A    between atoms: C_13  and  C_16
REMARK   14  A    between atoms: C_16  and  C_17
REMARK   15  A    between atoms: C_17  and  C_18
REMARK   16  A    between atoms: C_18  and  C_19
REMARK   17  A    between atoms: C_19  and  C_20
REMARK   18  A    between atoms: C_24  and  C_25
REMARK   19  A    between atoms: C_26  and  O_27
REMARK   20  A    between atoms: O_27  and  C_28
REMARK   21  A    between atoms: C_28  and  C_30
REMARK   22  A    between atoms: C_30  and  C_31
REMARK   23  A    between atoms: C_31  and  C_32
REMARK   24  A    between atoms: C_32  and  O_33
REMARK   25  A    between atoms: C_35  and  C_36
REMARK   26  A    between atoms: C_37  and  C_38
REMARK                            x       y       z     vdW  Elec       q    Type
REMARK                         _______ _______ _______ _____ _____    ______ ____
ROOT
ATOM      1  C   UNL     1      -6.613  -0.832 131.068  0.00  0.00    +0.000 C 
ATOM      2  C   UNL     1      -5.848  -0.029 132.137  0.00  0.00    +0.000 C 
ATOM      3  C   UNL     1      -8.057  -1.123 131.464  0.00  0.00    +0.000 C 
ATOM      4  C   UNL     1      -8.714   0.172 131.747  0.00  0.00    +0.000 C 
ATOM      5  C   UNL     1      -8.434   1.166 130.653  0.00  0.00    +0.000 A 
ATOM      6  C   UNL     1      -9.208   2.328 130.653  0.00  0.00    +0.000 A 
ATOM      7  C   UNL     1     -10.181   2.396 131.779  0.00  0.00    +0.000 C 
ATOM      8  C   UNL     1      -9.037   3.320 129.661  0.00  0.00    +0.000 A 
ATOM      9  C   UNL     1      -8.037   3.131 128.661  0.00  0.00    +0.000 A 
ATOM     10  C   UNL     1      -7.794   4.151 127.573  0.00  0.00    +0.000 C 
ATOM     11  C   UNL     1      -7.222   1.943 128.699  0.00  0.00    +0.000 A 
ATOM     12  C   UNL     1      -6.144   1.673 127.670  0.00  0.00    +0.000 C 
ATOM     13  C   UNL     1      -7.414   0.985 129.723  0.00  0.00    +0.000 A 
ATOM     14  O   UNL     1      -6.571  -0.110 129.806  0.00  0.00    +0.000 OA
ENDROOT
BRANCH   8  15
ATOM     15  O   UNL     1      -9.853   4.541 129.618  0.00  0.00    +0.000 OA
BRANCH  15  16
ATOM     16  C   UNL     1      -9.656   5.726 130.331  0.00  0.00    +0.000 C 
ATOM     17  O   UNL     1      -9.386   5.849 131.523  0.00  0.00    +0.000 OA
BRANCH  16  18
ATOM     18  C   UNL     1      -9.771   7.025 129.639  0.00  0.00    +0.000 C 
BRANCH  18  19
ATOM     19  C   UNL     1     -10.403   6.668 128.249  0.00  0.00    +0.000 C 
BRANCH  19  20
ATOM     20  C   UNL     1     -10.719   7.785 127.320  0.00  0.00    +0.000 C 
ATOM     21  O   UNL     1     -10.948   7.602 126.133  0.00  0.00    +0.000 OA
BRANCH  20  22
ATOM     22  O   UNL     1     -10.738   9.009 127.873  0.00  0.00    +0.000 OA
ATOM     23  H   UNL     1      -9.926   9.534 127.777  0.00  0.00    +0.000 HD
ENDBRANCH  20  22
ENDBRANCH  19  20
ENDBRANCH  18  19
ENDBRANCH  16  18
ENDBRANCH  15  16
ENDBRANCH   8  15
BRANCH   1  24
ATOM     24  C   UNL     1      -5.908  -2.192 130.949  0.00  0.00    +0.000 C 
BRANCH  24  25
ATOM     25  C   UNL     1      -6.845  -3.262 130.438  0.00  0.00    +0.000 C 
BRANCH  25  26
ATOM     26  C   UNL     1      -6.749  -3.398 128.933  0.00  0.00    +0.000 C 
BRANCH  26  27
ATOM     27  C   UNL     1      -8.019  -2.860 128.282  0.00  0.00    +0.000 C 
ATOM     28  C   UNL     1      -8.982  -3.998 127.897  0.00  0.00    +0.000 C 
BRANCH  27  29
ATOM     29  C   UNL     1      -7.609  -2.028 127.065  0.00  0.00    +0.000 C 
BRANCH  29  30
ATOM     30  C   UNL     1      -6.110  -2.058 126.926  0.00  0.00    +0.000 C 
BRANCH  30  31
ATOM     31  C   UNL     1      -5.637  -1.638 125.549  0.00  0.00    +0.000 C 
BRANCH  31  32
ATOM     32  C   UNL     1      -6.162  -2.606 124.483  0.00  0.00    +0.000 C 
ATOM     33  C   UNL     1      -5.010  -3.414 123.870  0.00  0.00    +0.000 C 
BRANCH  32  34
ATOM     34  C   UNL     1      -6.947  -1.836 123.407  0.00  0.00    +0.000 C 
BRANCH  34  35
ATOM     35  C   UNL     1      -6.937  -0.352 123.687  0.00  0.00    +0.000 C 
BRANCH  35  36
ATOM     36  C   UNL     1      -8.347   0.211 123.712  0.00  0.00    +0.000 C 
BRANCH  36  37
ATOM     37  C   UNL     1      -8.491   1.221 124.852  0.00  0.00    +0.000 C 
ATOM     38  C   UNL     1      -8.880   2.602 124.321  0.00  0.00    +0.000 C 
ATOM     39  C   UNL     1      -9.540   0.725 125.839  0.00  0.00    +0.000 C 
ENDBRANCH  36  37
ENDBRANCH  35  36
ENDBRANCH  34  35
ENDBRANCH  32  34
ENDBRANCH  31  32
ENDBRANCH  30  31
ENDBRANCH  29  30
ENDBRANCH  27  29
ENDBRANCH  26  27
ENDBRANCH  25  26
ENDBRANCH  24  25
ENDBRANCH   1  24
TORSDOF 18
ENDMDL
MODEL 2
REMARK VINA RESULT:      -7.0      1.798      3.930
REMARK  Name = alpha-Tocopherol succinate
REMARK  26 active torsions:
REMARK  status: ('A' for Active; 'I' for Inactive)
REMARK    1  A    between atoms: C_2  and  C_3
REMARK    2  A    between atoms: C_2  and  C_4
REMARK    3  A    between atoms: C_2  and  C_10
REMARK    4  A    between atoms: C_4  and  C_5
REMARK    5  A    between atoms: C_5  and  C_6
REMARK    6  A    between atoms: C_6  and  C_7
REMARK    7  A    between atoms: C_7  and  C_8
REMARK    8  A    between atoms: C_7  and  C_9
REMARK    9  A    between atoms: C_10  and  C_11
REMARK   10  A    between atoms: C_11  and  C_12
REMARK   11  A    between atoms: C_12  and  C_13
REMARK   12  A    between atoms: C_13  and  C_15
REMARK   13  A    between atoms: C_13  and  C_16
REMARK   14  A    between atoms: C_16  and  C_17
REMARK   15  A    between atoms: C_17  and  C_18
REMARK   16  A    between atoms: C_18  and  C_19
REMARK   17  A    between atoms: C_19  and  C_20
REMARK   18  A    between atoms: C_24  and  C_25
REMARK   19  A    between atoms: C_26  and  O_27
REMARK   20  A    between atoms: O_27  and  C_28
REMARK   21  A    between atoms: C_28  and  C_30
REMARK   22  A    between atoms: C_30  and  C_31
REMARK   23  A    between atoms: C_31  and  C_32
REMARK   24  A    between atoms: C_32  and  O_33
REMARK   25  A    between atoms: C_35  and  C_36
REMARK   26  A    between atoms: C_37  and  C_38
REMARK                            x       y       z     vdW  Elec       q    Type
REMARK                         _______ _______ _______ _____ _____    ______ ____
ROOT
ATOM      1  C   UNL     1      -7.218  -0.478 127.500  0.00  0.00    +0.000 C 
ATOM      2  C   UNL     1      -8.555  -0.522 126.738  0.00  0.00    +0.000 C 
ATOM      3  C   UNL     1      -6.338   0.699 127.089  0.00  0.00    +0.000 C 
ATOM      4  C   UNL     1      -7.121   1.937 127.291  0.00  0.00    +0.000 C 
ATOM      5  C   UNL     1      -7.776   1.943 128.645  0.00  0.00    +0.000 A 
ATOM      6  C   UNL     1      -8.315   3.158 129.073  0.00  0.00    +0.000 A 
ATOM      7  C   UNL     1      -8.168   4.257 128.078  0.00  0.00    +0.000 C 
ATOM      8  C   UNL     1      -8.939   3.277 130.335  0.00  0.00    +0.000 A 
ATOM      9  C   UNL     1      -9.036   2.123 131.169  0.00  0.00    +0.000 A 
ATOM     10  C   UNL     1      -9.693   2.174 132.528  0.00  0.00    +0.000 C 
ATOM     11  C   UNL     1      -8.507   0.869 130.696  0.00  0.00    +0.000 A 
ATOM     12  C   UNL     1      -8.571  -0.396 131.526  0.00  0.00    +0.000 C 
ATOM     13  C   UNL     1      -7.909   0.791 129.415  0.00  0.00    +0.000 A 
ATOM     14  O   UNL     1      -7.483  -0.435 128.930  0.00  0.00    +0.000 OA
ENDROOT
BRANCH   8  15
ATOM     15  O   UNL     1      -9.492   4.547 130.824  0.00  0.00    +0.000 OA
BRANCH  15  16
ATOM     16  C   UNL     1     -10.763   5.075 130.585  0.00  0.00    +0.000 C 
ATOM     17  O   UNL     1     -11.655   4.597 129.890  0.00  0.00    +0.000 OA
BRANCH  16  18
ATOM     18  C   UNL     1     -11.152   6.357 131.204  0.00  0.00    +0.000 C 
BRANCH  18  19
ATOM     19  C   UNL     1     -11.248   7.357 130.001  0.00  0.00    +0.000 C 
BRANCH  19  20
ATOM     20  C   UNL     1     -10.045   7.534 129.145  0.00  0.00    +0.000 C 
ATOM     21  O   UNL     1     -10.074   7.359 127.935  0.00  0.00    +0.000 OA
BRANCH  20  22
ATOM     22  O   UNL     1      -8.926   7.899 129.790  0.00  0.00    +0.000 OA
ATOM     23  H   UNL     1      -8.833   8.847 129.984  0.00  0.00    +0.000 HD
ENDBRANCH  20  22
ENDBRANCH  19  20
ENDBRANCH  18  19
ENDBRANCH  16  18
ENDBRANCH  15  16
ENDBRANCH   8  15
BRANCH   1  24
ATOM     24  C   UNL     1      -6.452  -1.754 127.120  0.00  0.00    +0.000 C 
BRANCH  24  25
ATOM     25  C   UNL     1      -5.227  -1.442 126.290  0.00  0.00    +0.000 C 
BRANCH  25  26
ATOM     26  C   UNL     1      -5.506  -1.628 124.815  0.00  0.00    +0.000 C 
BRANCH  26  27
ATOM     27  C   UNL     1      -5.953  -3.062 124.548  0.00  0.00    +0.000 C 
ATOM     28  C   UNL     1      -4.888  -3.850 123.765  0.00  0.00    +0.000 C 
BRANCH  27  29
ATOM     29  C   UNL     1      -7.285  -3.008 123.797  0.00  0.00    +0.000 C 
BRANCH  29  30
ATOM     30  C   UNL     1      -7.409  -1.679 123.101  0.00  0.00    +0.000 C 
BRANCH  30  31
ATOM     31  C   UNL     1      -8.848  -1.255 122.891  0.00  0.00    +0.000 C 
BRANCH  31  32
ATOM     32  C   UNL     1      -9.074   0.162 123.430  0.00  0.00    +0.000 C 
ATOM     33  C   UNL     1     -10.115   0.904 122.582  0.00  0.00    +0.000 C 
BRANCH  32  34
ATOM     34  C   UNL     1      -7.741   0.928 123.487  0.00  0.00    +0.000 C 
BRANCH  34  35
ATOM     35  C   UNL     1      -7.887   2.314 122.906  0.00  0.00    +0.000 C 
BRANCH  35  36
ATOM     36  C   UNL     1      -6.546   3.018 122.822  0.00  0.00    +0.000 C 
BRANCH  36  37
ATOM     37  C   UNL     1      -6.188   3.299 121.361  0.00  0.00    +0.000 C 
ATOM     38  C   UNL     1      -7.380   3.886 120.603  0.00  0.00    +0.000 C 
ATOM     39  C   UNL     1      -5.008   4.260 121.305  0.00  0.00    +0.000 C 
ENDBRANCH  36  37
ENDBRANCH  35  36
ENDBRANCH  34  35
ENDBRANCH  32  34
ENDBRANCH  31  32
ENDBRANCH  30  31
ENDBRANCH  29  30
ENDBRANCH  27  29
ENDBRANCH  26  27
ENDBRANCH  25  26
ENDBRANCH  24  25
ENDBRANCH   1  24
TORSDOF 18
ENDMDL
MODEL 3
REMARK VINA RESULT:      -7.0      1.769      3.637
REMARK  Name = alpha-Tocopherol succinate
REMARK  26 active torsions:
REMARK  status: ('A' for Active; 'I' for Inactive)
REMARK    1  A    between atoms: C_2  and  C_3
REMARK    2  A    between atoms: C_2  and  C_4
REMARK    3  A    between atoms: C_2  and  C_10
REMARK    4  A    between atoms: C_4  and  C_5
REMARK    5  A    between atoms: C_5  and  C_6
REMARK    6  A    between atoms: C_6  and  C_7
REMARK    7  A    between atoms: C_7  and  C_8
REMARK    8  A    between atoms: C_7  and  C_9
REMARK    9  A    between atoms: C_10  and  C_11
REMARK   10  A    between atoms: C_11  and  C_12
REMARK   11  A    between atoms: C_12  and  C_13
REMARK   12  A    between atoms: C_13  and  C_15
REMARK   13  A    between atoms: C_13  and  C_16
REMARK   14  A    between atoms: C_16  and  C_17
REMARK   15  A    between atoms: C_17  and  C_18
REMARK   16  A    between atoms: C_18  and  C_19
REMARK   17  A    between atoms: C_19  and  C_20
REMARK   18  A    between atoms: C_24  and  C_25
REMARK   19  A    between atoms: C_26  and  O_27
REMARK   20  A    between atoms: O_27  and  C_28
REMARK   21  A    between atoms: C_28  and  C_30
REMARK   22  A    between atoms: C_30  and  C_31
REMARK   23  A    between atoms: C_31  and  C_32
REMARK   24  A    between atoms: C_32  and  O_33
REMARK   25  A    between atoms: C_35  and  C_36
REMARK   26  A    between atoms: C_37  and  C_38
REMARK                            x       y       z     vdW  Elec       q    Type
REMARK                         _______ _______ _______ _____ _____    ______ ____
ROOT
ATOM      1  C   UNL     1      -6.988   0.206 132.272  0.00  0.00    +0.000 C 
ATOM      2  C   UNL     1      -8.280  -0.631 132.254  0.00  0.00    +0.000 C 
ATOM      3  C   UNL     1      -6.388   0.403 130.883  0.00  0.00    +0.000 C 
ATOM      4  C   UNL     1      -7.426   1.022 130.030  0.00  0.00    +0.000 C 
ATOM      5  C   UNL     1      -8.070   2.188 130.729  0.00  0.00    +0.000 A 
ATOM      6  C   UNL     1      -8.865   3.026 129.944  0.00  0.00    +0.000 A 
ATOM      7  C   UNL     1      -8.962   2.593 128.522  0.00  0.00    +0.000 C 
ATOM      8  C   UNL     1      -9.504   4.158 130.498  0.00  0.00    +0.000 A 
ATOM      9  C   UNL     1      -9.346   4.427 131.890  0.00  0.00    +0.000 A 
ATOM     10  C   UNL     1     -10.002   5.617 132.552  0.00  0.00    +0.000 C 
ATOM     11  C   UNL     1      -8.552   3.532 132.693  0.00  0.00    +0.000 A 
ATOM     12  C   UNL     1      -8.337   3.756 134.175  0.00  0.00    +0.000 C 
ATOM     13  C   UNL     1      -7.948   2.397 132.100  0.00  0.00    +0.000 A 
ATOM     14  O   UNL     1      -7.260   1.494 132.893  0.00  0.00    +0.000 OA
ENDROOT
BRANCH   8  15
ATOM     15  O   UNL     1     -10.325   5.072 129.693  0.00  0.00    +0.000 OA
BRANCH  15  16
ATOM     16  C   UNL     1      -9.892   6.150 128.915  0.00  0.00    +0.000 C 
ATOM     17  O   UNL     1      -9.409   6.115 127.787  0.00  0.00    +0.000 OA
BRANCH  16  18
ATOM     18  C   UNL     1      -9.993   7.523 129.448  0.00  0.00    +0.000 C 
BRANCH  18  19
ATOM     19  C   UNL     1     -10.561   8.361 128.252  0.00  0.00    +0.000 C 
BRANCH  19  20
ATOM     20  C   UNL     1     -12.036   8.526 128.155  0.00  0.00    +0.000 C 
ATOM     21  O   UNL     1     -12.749   7.705 127.595  0.00  0.00    +0.000 OA
BRANCH  20  22
ATOM     22  O   UNL     1     -12.532   9.637 128.723  0.00  0.00    +0.000 OA
ATOM     23  H   UNL     1     -11.879  10.286 129.035  0.00  0.00    +0.000 HD
ENDBRANCH  20  22
ENDBRANCH  19  20
ENDBRANCH  18  19
ENDBRANCH  16  18
ENDBRANCH  15  16
ENDBRANCH   8  15
BRANCH   1  24
ATOM     24  C   UNL     1      -5.958  -0.591 133.086  0.00  0.00    +0.000 C 
BRANCH  24  25
ATOM     25  C   UNL     1      -6.123  -2.081 132.889  0.00  0.00    +0.000 C 
BRANCH  25  26
ATOM     26  C   UNL     1      -4.888  -2.689 132.260  0.00  0.00    +0.000 C 
BRANCH  26  27
ATOM     27  C   UNL     1      -5.288  -3.594 131.099  0.00  0.00    +0.000 C 
ATOM     28  C   UNL     1      -4.546  -3.215 129.805  0.00  0.00    +0.000 C 
BRANCH  27  29
ATOM     29  C   UNL     1      -6.806  -3.502 130.931  0.00  0.00    +0.000 C 
BRANCH  29  30
ATOM     30  C   UNL     1      -7.151  -3.627 129.471  0.00  0.00    +0.000 C 
BRANCH  30  31
ATOM     31  C   UNL     1      -7.920  -2.433 128.942  0.00  0.00    +0.000 C 
BRANCH  31  32
ATOM     32  C   UNL     1      -7.699  -2.279 127.434  0.00  0.00    +0.000 C 
ATOM     33  C   UNL     1      -8.077  -0.864 126.973  0.00  0.00    +0.000 C 
BRANCH  32  34
ATOM     34  C   UNL     1      -8.490  -3.353 126.667  0.00  0.00    +0.000 C 
BRANCH  34  35
ATOM     35  C   UNL     1      -8.598  -3.005 125.202  0.00  0.00    +0.000 C 
BRANCH  35  36
ATOM     36  C   UNL     1      -7.562  -3.753 124.383  0.00  0.00    +0.000 C 
BRANCH  36  37
ATOM     37  C   UNL     1      -6.349  -2.858 124.121  0.00  0.00    +0.000 C 
ATOM     38  C   UNL     1      -5.086  -3.692 123.897  0.00  0.00    +0.000 C 
ATOM     39  C   UNL     1      -6.620  -1.981 122.906  0.00  0.00    +0.000 C 
ENDBRANCH  36  37
ENDBRANCH  35  36
ENDBRANCH  34  35
ENDBRANCH  32  34
ENDBRANCH  31  32
ENDBRANCH  30  31
ENDBRANCH  29  30
ENDBRANCH  27  29
ENDBRANCH  26  27
ENDBRANCH  25  26
ENDBRANCH  24  25
ENDBRANCH   1  24
TORSDOF 18
ENDMDL
MODEL 4
REMARK VINA RESULT:      -6.9      0.984      2.447
REMARK  Name = alpha-Tocopherol succinate
REMARK  26 active torsions:
REMARK  status: ('A' for Active; 'I' for Inactive)
REMARK    1  A    between atoms: C_2  and  C_3
REMARK    2  A    between atoms: C_2  and  C_4
REMARK    3  A    between atoms: C_2  and  C_10
REMARK    4  A    between atoms: C_4  and  C_5
REMARK    5  A    between atoms: C_5  and  C_6
REMARK    6  A    between atoms: C_6  and  C_7
REMARK    7  A    between atoms: C_7  and  C_8
REMARK    8  A    between atoms: C_7  and  C_9
REMARK    9  A    between atoms: C_10  and  C_11
REMARK   10  A    between atoms: C_11  and  C_12
REMARK   11  A    between atoms: C_12  and  C_13
REMARK   12  A    between atoms: C_13  and  C_15
REMARK   13  A    between atoms: C_13  and  C_16
REMARK   14  A    between atoms: C_16  and  C_17
REMARK   15  A    between atoms: C_17  and  C_18
REMARK   16  A    between atoms: C_18  and  C_19
REMARK   17  A    between atoms: C_19  and  C_20
REMARK   18  A    between atoms: C_24  and  C_25
REMARK   19  A    between atoms: C_26  and  O_27
REMARK   20  A    between atoms: O_27  and  C_28
REMARK   21  A    between atoms: C_28  and  C_30
REMARK   22  A    between atoms: C_30  and  C_31
REMARK   23  A    between atoms: C_31  and  C_32
REMARK   24  A    between atoms: C_32  and  O_33
REMARK   25  A    between atoms: C_35  and  C_36
REMARK   26  A    between atoms: C_37  and  C_38
REMARK                            x       y       z     vdW  Elec       q    Type
REMARK                         _______ _______ _______ _____ _____    ______ ____
ROOT
ATOM      1  C   UNL     1      -6.829  -0.585 131.191  0.00  0.00    +0.000 C 
ATOM      2  C   UNL     1      -6.145   0.226 132.308  0.00  0.00    +0.000 C 
ATOM      3  C   UNL     1      -8.330  -0.747 131.410  0.00  0.00    +0.000 C 
ATOM      4  C   UNL     1      -8.914   0.606 131.537  0.00  0.00    +0.000 C 
ATOM      5  C   UNL     1      -8.421   1.508 130.439  0.00  0.00    +0.000 A 
ATOM      6  C   UNL     1      -9.095   2.721 130.277  0.00  0.00    +0.000 A 
ATOM      7  C   UNL     1     -10.194   2.926 131.261  0.00  0.00    +0.000 C 
ATOM      8  C   UNL     1      -8.723   3.635 129.266  0.00  0.00    +0.000 A 
ATOM      9  C   UNL     1      -7.622   3.314 128.417  0.00  0.00    +0.000 A 
ATOM     10  C   UNL     1      -7.165   4.245 127.317  0.00  0.00    +0.000 C 
ATOM     11  C   UNL     1      -6.915   2.076 128.622  0.00  0.00    +0.000 A 
ATOM     12  C   UNL     1      -5.740   1.667 127.758  0.00  0.00    +0.000 C 
ATOM     13  C   UNL     1      -7.309   1.199 129.661  0.00  0.00    +0.000 A 
ATOM     14  O   UNL     1      -6.571   0.054 129.909  0.00  0.00    +0.000 OA
ENDROOT
BRANCH   8  15
ATOM     15  O   UNL     1      -9.429   4.906 129.053  0.00  0.00    +0.000 OA
BRANCH  15  16
ATOM     16  C   UNL     1      -9.194   6.130 129.685  0.00  0.00    +0.000 C 
ATOM     17  O   UNL     1      -8.161   6.506 130.230  0.00  0.00    +0.000 OA
BRANCH  16  18
ATOM     18  C   UNL     1     -10.269   7.140 129.745  0.00  0.00    +0.000 C 
BRANCH  18  19
ATOM     19  C   UNL     1     -10.487   7.563 128.251  0.00  0.00    +0.000 C 
BRANCH  19  20
ATOM     20  C   UNL     1     -11.618   6.944 127.510  0.00  0.00    +0.000 C 
ATOM     21  O   UNL     1     -12.677   6.661 128.052  0.00  0.00    +0.000 OA
BRANCH  20  22
ATOM     22  O   UNL     1     -11.397   6.716 126.205  0.00  0.00    +0.000 OA
ATOM     23  H   UNL     1     -11.517   7.476 125.612  0.00  0.00    +0.000 HD
ENDBRANCH  20  22
ENDBRANCH  19  20
ENDBRANCH  18  19
ENDBRANCH  16  18
ENDBRANCH  15  16
ENDBRANCH   8  15
BRANCH   1  24
ATOM     24  C   UNL     1      -6.223  -1.995 131.236  0.00  0.00    +0.000 C 
BRANCH  24  25
ATOM     25  C   UNL     1      -6.078  -2.584 129.851  0.00  0.00    +0.000 C 
BRANCH  25  26
ATOM     26  C   UNL     1      -7.165  -3.600 129.574  0.00  0.00    +0.000 C 
BRANCH  26  27
ATOM     27  C   UNL     1      -8.169  -3.028 128.579  0.00  0.00    +0.000 C 
ATOM     28  C   UNL     1      -9.073  -4.127 127.992  0.00  0.00    +0.000 C 
BRANCH  27  29
ATOM     29  C   UNL     1      -7.386  -2.294 127.488  0.00  0.00    +0.000 C 
BRANCH  29  30
ATOM     30  C   UNL     1      -8.134  -1.049 127.093  0.00  0.00    +0.000 C 
BRANCH  30  31
ATOM     31  C   UNL     1      -8.632  -1.088 125.662  0.00  0.00    +0.000 C 
BRANCH  31  32
ATOM     32  C   UNL     1      -7.725  -0.250 124.755  0.00  0.00    +0.000 C 
ATOM     33  C   UNL     1      -8.069   1.241 124.875  0.00  0.00    +0.000 C 
BRANCH  32  34
ATOM     34  C   UNL     1      -7.830  -0.738 123.300  0.00  0.00    +0.000 C 
BRANCH  34  35
ATOM     35  C   UNL     1      -6.640  -1.588 122.926  0.00  0.00    +0.000 C 
BRANCH  35  36
ATOM     36  C   UNL     1      -5.697  -1.760 124.104  0.00  0.00    +0.000 C 
BRANCH  36  37
ATOM     37  C   UNL     1      -5.546  -3.244 124.447  0.00  0.00    +0.000 C 
ATOM     38  C   UNL     1      -6.875  -3.985 124.290  0.00  0.00    +0.000 C 
ATOM     39  C   UNL     1      -4.489  -3.867 123.546  0.00  0.00    +0.000 C 
ENDBRANCH  36  37
ENDBRANCH  35  36
ENDBRANCH  34  35
ENDBRANCH  32  34
ENDBRANCH  31  32
ENDBRANCH  30  31
ENDBRANCH  29  30
ENDBRANCH  27  29
ENDBRANCH  26  27
ENDBRANCH  25  26
ENDBRANCH  24  25
ENDBRANCH   1  24
TORSDOF 18
ENDMDL
MODEL 5
REMARK VINA RESULT:      -6.9      2.679      5.233
REMARK  Name = alpha-Tocopherol succinate
REMARK  26 active torsions:
REMARK  status: ('A' for Active; 'I' for Inactive)
REMARK    1  A    between atoms: C_2  and  C_3
REMARK    2  A    between atoms: C_2  and  C_4
REMARK    3  A    between atoms: C_2  and  C_10
REMARK    4  A    between atoms: C_4  and  C_5
REMARK    5  A    between atoms: C_5  and  C_6
REMARK    6  A    between atoms: C_6  and  C_7
REMARK    7  A    between atoms: C_7  and  C_8
REMARK    8  A    between atoms: C_7  and  C_9
REMARK    9  A    between atoms: C_10  and  C_11
REMARK   10  A    between atoms: C_11  and  C_12
REMARK   11  A    between atoms: C_12  and  C_13
REMARK   12  A    between atoms: C_13  and  C_15
REMARK   13  A    between atoms: C_13  and  C_16
REMARK   14  A    between atoms: C_16  and  C_17
REMARK   15  A    between atoms: C_17  and  C_18
REMARK   16  A    between atoms: C_18  and  C_19
REMARK   17  A    between atoms: C_19  and  C_20
REMARK   18  A    between atoms: C_24  and  C_25
REMARK   19  A    between atoms: C_26  and  O_27
REMARK   20  A    between atoms: O_27  and  C_28
REMARK   21  A    between atoms: C_28  and  C_30
REMARK   22  A    between atoms: C_30  and  C_31
REMARK   23  A    between atoms: C_31  and  C_32
REMARK   24  A    between atoms: C_32  and  O_33
REMARK   25  A    between atoms: C_35  and  C_36
REMARK   26  A    between atoms: C_37  and  C_38
REMARK                            x       y       z     vdW  Elec       q    Type
REMARK                         _______ _______ _______ _____ _____    ______ ____
ROOT
ATOM      1  C   UNL     1      -7.864  -2.535 127.153  0.00  0.00    +0.000 C 
ATOM      2  C   UNL     1      -6.457  -2.498 126.527  0.00  0.00    +0.000 C 
ATOM      3  C   UNL     1      -7.890  -3.224 128.514  0.00  0.00    +0.000 C 
ATOM      4  C   UNL     1      -6.922  -2.527 129.389  0.00  0.00    +0.000 C 
ATOM      5  C   UNL     1      -7.107  -1.036 129.312  0.00  0.00    +0.000 A 
ATOM      6  C   UNL     1      -6.452  -0.275 130.283  0.00  0.00    +0.000 A 
ATOM      7  C   UNL     1      -5.643  -1.090 131.232  0.00  0.00    +0.000 C 
ATOM      8  C   UNL     1      -6.571   1.132 130.312  0.00  0.00    +0.000 A 
ATOM      9  C   UNL     1      -7.357   1.779 129.312  0.00  0.00    +0.000 A 
ATOM     10  C   UNL     1      -7.526   3.280 129.277  0.00  0.00    +0.000 C 
ATOM     11  C   UNL     1      -7.996   0.981 128.296  0.00  0.00    +0.000 A 
ATOM     12  C   UNL     1      -8.847   1.597 127.205  0.00  0.00    +0.000 C 
ATOM     13  C   UNL     1      -7.832  -0.425 128.293  0.00  0.00    +0.000 A 
ATOM     14  O   UNL     1      -8.374  -1.177 127.265  0.00  0.00    +0.000 OA
ENDROOT
BRANCH   8  15
ATOM     15  O   UNL     1      -5.916   1.958 131.335  0.00  0.00    +0.000 OA
BRANCH  15  16
ATOM     16  C   UNL     1      -6.492   2.516 132.480  0.00  0.00    +0.000 C 
ATOM     17  O   UNL     1      -6.278   3.624 132.963  0.00  0.00    +0.000 OA
BRANCH  16  18
ATOM     18  C   UNL     1      -7.483   1.741 133.253  0.00  0.00    +0.000 C 
BRANCH  18  19
ATOM     19  C   UNL     1      -8.839   2.486 133.003  0.00  0.00    +0.000 C 
BRANCH  19  20
ATOM     20  C   UNL     1      -9.806   1.873 132.054  0.00  0.00    +0.000 C 
ATOM     21  O   UNL     1      -9.895   0.663 131.904  0.00  0.00    +0.000 OA
BRANCH  20  22
ATOM     22  O   UNL     1     -10.575   2.738 131.374  0.00  0.00    +0.000 OA
ATOM     23  H   UNL     1     -11.532   2.673 131.528  0.00  0.00    +0.000 HD
ENDBRANCH  20  22
ENDBRANCH  19  20
ENDBRANCH  18  19
ENDBRANCH  16  18
ENDBRANCH  15  16
ENDBRANCH   8  15
BRANCH   1  24
ATOM     24  C   UNL     1      -8.742  -3.379 126.216  0.00  0.00    +0.000 C 
BRANCH  24  25
ATOM     25  C   UNL     1      -8.105  -3.545 124.855  0.00  0.00    +0.000 C 
BRANCH  25  26
ATOM     26  C   UNL     1      -8.951  -2.906 123.775  0.00  0.00    +0.000 C 
BRANCH  26  27
ATOM     27  C   UNL     1      -8.147  -1.828 123.055  0.00  0.00    +0.000 C 
ATOM     28  C   UNL     1      -6.677  -2.246 122.875  0.00  0.00    +0.000 C 
BRANCH  27  29
ATOM     29  C   UNL     1      -8.275  -0.531 123.856  0.00  0.00    +0.000 C 
BRANCH  29  30
ATOM     30  C   UNL     1      -7.098   0.358 123.551  0.00  0.00    +0.000 C 
BRANCH  30  31
ATOM     31  C   UNL     1      -7.155   1.684 124.280  0.00  0.00    +0.000 C 
BRANCH  31  32
ATOM     32  C   UNL     1      -5.808   1.990 124.944  0.00  0.00    +0.000 C 
ATOM     33  C   UNL     1      -5.384   0.836 125.863  0.00  0.00    +0.000 C 
BRANCH  32  34
ATOM     34  C   UNL     1      -5.883   3.323 125.709  0.00  0.00    +0.000 C 
BRANCH  34  35
ATOM     35  C   UNL     1      -4.540   4.012 125.730  0.00  0.00    +0.000 C 
BRANCH  35  36
ATOM     36  C   UNL     1      -4.213   4.534 127.117  0.00  0.00    +0.000 C 
BRANCH  36  37
ATOM     37  C   UNL     1      -3.075   3.717 127.733  0.00  0.00    +0.000 C 
ATOM     38  C   UNL     1      -3.619   2.582 128.604  0.00  0.00    +0.000 C 
ATOM     39  C   UNL     1      -2.199   3.152 126.624  0.00  0.00    +0.000 C 
ENDBRANCH  36  37
ENDBRANCH  35  36
ENDBRANCH  34  35
ENDBRANCH  32  34
ENDBRANCH  31  32
ENDBRANCH  30  31
ENDBRANCH  29  30
ENDBRANCH  27  29
ENDBRANCH  26  27
ENDBRANCH  25  26
ENDBRANCH  24  25
ENDBRANCH   1  24
TORSDOF 18
ENDMDL
MODEL 6
REMARK VINA RESULT:      -6.9      4.044      8.679
REMARK  Name = alpha-Tocopherol succinate
REMARK  26 active torsions:
REMARK  status: ('A' for Active; 'I' for Inactive)
REMARK    1  A    between atoms: C_2  and  C_3
REMARK    2  A    between atoms: C_2  and  C_4
REMARK    3  A    between atoms: C_2  and  C_10
REMARK    4  A    between atoms: C_4  and  C_5
REMARK    5  A    between atoms: C_5  and  C_6
REMARK    6  A    between atoms: C_6  and  C_7
REMARK    7  A    between atoms: C_7  and  C_8
REMARK    8  A    between atoms: C_7  and  C_9
REMARK    9  A    between atoms: C_10  and  C_11
REMARK   10  A    between atoms: C_11  and  C_12
REMARK   11  A    between atoms: C_12  and  C_13
REMARK   12  A    between atoms: C_13  and  C_15
REMARK   13  A    between atoms: C_13  and  C_16
REMARK   14  A    between atoms: C_16  and  C_17
REMARK   15  A    between atoms: C_17  and  C_18
REMARK   16  A    between atoms: C_18  and  C_19
REMARK   17  A    between atoms: C_19  and  C_20
REMARK   18  A    between atoms: C_24  and  C_25
REMARK   19  A    between atoms: C_26  and  O_27
REMARK   20  A    between atoms: O_27  and  C_28
REMARK   21  A    between atoms: C_28  and  C_30
REMARK   22  A    between atoms: C_30  and  C_31
REMARK   23  A    between atoms: C_31  and  C_32
REMARK   24  A    between atoms: C_32  and  O_33
REMARK   25  A    between atoms: C_35  and  C_36
REMARK   26  A    between atoms: C_37  and  C_38
REMARK                            x       y       z     vdW  Elec       q    Type
REMARK                         _______ _______ _______ _____ _____    ______ ____
ROOT
ATOM      1  C   UNL     1      -4.283   3.764 127.007  0.00  0.00    +0.000 C 
ATOM      2  C   UNL     1      -5.291   4.652 127.760  0.00  0.00    +0.000 C 
ATOM      3  C   UNL     1      -4.314   2.309 127.466  0.00  0.00    +0.000 C 
ATOM      4  C   UNL     1      -5.700   1.817 127.305  0.00  0.00    +0.000 C 
ATOM      5  C   UNL     1      -6.242   2.175 125.948  0.00  0.00    +0.000 A 
ATOM      6  C   UNL     1      -7.426   1.543 125.562  0.00  0.00    +0.000 A 
ATOM      7  C   UNL     1      -7.973   0.622 126.597  0.00  0.00    +0.000 C 
ATOM      8  C   UNL     1      -8.013   1.796 124.302  0.00  0.00    +0.000 A 
ATOM      9  C   UNL     1      -7.389   2.734 123.426  0.00  0.00    +0.000 A 
ATOM     10  C   UNL     1      -7.962   3.058 122.066  0.00  0.00    +0.000 C 
ATOM     11  C   UNL     1      -6.189   3.405 123.856  0.00  0.00    +0.000 A 
ATOM     12  C   UNL     1      -5.470   4.410 122.980  0.00  0.00    +0.000 C 
ATOM     13  C   UNL     1      -5.647   3.137 125.136  0.00  0.00    +0.000 A 
ATOM     14  O   UNL     1      -4.545   3.849 125.578  0.00  0.00    +0.000 OA
ENDROOT
BRANCH   8  15
ATOM     15  O   UNL     1      -9.242   1.127 123.856  0.00  0.00    +0.000 OA
BRANCH  15  16
ATOM     16  C   UNL     1      -9.355  -0.078 123.157  0.00  0.00    +0.000 C 
ATOM     17  O   UNL     1     -10.289  -0.454 122.457  0.00  0.00    +0.000 OA
BRANCH  16  18
ATOM     18  C   UNL     1      -8.260  -1.066 123.223  0.00  0.00    +0.000 C 
BRANCH  18  19
ATOM     19  C   UNL     1      -8.992  -2.450 123.303  0.00  0.00    +0.000 C 
BRANCH  19  20
ATOM     20  C   UNL     1      -9.103  -3.104 124.634  0.00  0.00    +0.000 C 
ATOM     21  O   UNL     1      -9.896  -2.724 125.484  0.00  0.00    +0.000 OA
BRANCH  20  22
ATOM     22  O   UNL     1      -8.274  -4.140 124.839  0.00  0.00    +0.000 OA
ATOM     23  H   UNL     1      -7.642  -4.330 124.126  0.00  0.00    +0.000 HD
ENDBRANCH  20  22
ENDBRANCH  19  20
ENDBRANCH  18  19
ENDBRANCH  16  18
ENDBRANCH  15  16
ENDBRANCH   8  15
BRANCH   1  24
ATOM     24  C   UNL     1      -2.884   4.301 127.344  0.00  0.00    +0.000 C 
BRANCH  24  25
ATOM     25  C   UNL     1      -2.736   4.581 128.823  0.00  0.00    +0.000 C 
BRANCH  25  26
ATOM     26  C   UNL     1      -2.288   6.006 129.065  0.00  0.00    +0.000 C 
BRANCH  26  27
ATOM     27  C   UNL     1      -2.137   6.255 130.562  0.00  0.00    +0.000 C 
ATOM     28  C   UNL     1      -2.508   5.007 131.383  0.00  0.00    +0.000 C 
BRANCH  27  29
ATOM     29  C   UNL     1      -3.008   7.457 130.931  0.00  0.00    +0.000 C 
BRANCH  29  30
ATOM     30  C   UNL     1      -4.283   6.969 131.568  0.00  0.00    +0.000 C 
BRANCH  30  31
ATOM     31  C   UNL     1      -5.495   7.154 130.679  0.00  0.00    +0.000 C 
BRANCH  31  32
ATOM     32  C   UNL     1      -6.564   6.105 131.005  0.00  0.00    +0.000 C 
ATOM     33  C   UNL     1      -7.949   6.758 131.108  0.00  0.00    +0.000 C 
BRANCH  32  34
ATOM     34  C   UNL     1      -6.196   5.355 132.298  0.00  0.00    +0.000 C 
BRANCH  34  35
ATOM     35  C   UNL     1      -6.755   3.953 132.288  0.00  0.00    +0.000 C 
BRANCH  35  36
ATOM     36  C   UNL     1      -6.641   3.326 130.911  0.00  0.00    +0.000 C 
BRANCH  36  37
ATOM     37  C   UNL     1      -7.987   2.733 130.487  0.00  0.00    +0.000 C 
ATOM     38  C   UNL     1      -8.490   3.375 129.193  0.00  0.00    +0.000 C 
ATOM     39  C   UNL     1      -7.842   1.229 130.303  0.00  0.00    +0.000 C 
ENDBRANCH  36  37
ENDBRANCH  35  36
ENDBRANCH  34  35
ENDBRANCH  32  34
ENDBRANCH  31  32
ENDBRANCH  30  31
ENDBRANCH  29  30
ENDBRANCH  27  29
ENDBRANCH  26  27
ENDBRANCH  25  26
ENDBRANCH  24  25
ENDBRANCH   1  24
TORSDOF 18
ENDMDL
MODEL 7
REMARK VINA RESULT:      -6.9      2.909      8.236
REMARK  Name = alpha-Tocopherol succinate
REMARK  26 active torsions:
REMARK  status: ('A' for Active; 'I' for Inactive)
REMARK    1  A    between atoms: C_2  and  C_3
REMARK    2  A    between atoms: C_2  and  C_4
REMARK    3  A    between atoms: C_2  and  C_10
REMARK    4  A    between atoms: C_4  and  C_5
REMARK    5  A    between atoms: C_5  and  C_6
REMARK    6  A    between atoms: C_6  and  C_7
REMARK    7  A    between atoms: C_7  and  C_8
REMARK    8  A    between atoms: C_7  and  C_9
REMARK    9  A    between atoms: C_10  and  C_11
REMARK   10  A    between atoms: C_11  and  C_12
REMARK   11  A    between atoms: C_12  and  C_13
REMARK   12  A    between atoms: C_13  and  C_15
REMARK   13  A    between atoms: C_13  and  C_16
REMARK   14  A    between atoms: C_16  and  C_17
REMARK   15  A    between atoms: C_17  and  C_18
REMARK   16  A    between atoms: C_18  and  C_19
REMARK   17  A    between atoms: C_19  and  C_20
REMARK   18  A    between atoms: C_24  and  C_25
REMARK   19  A    between atoms: C_26  and  O_27
REMARK   20  A    between atoms: O_27  and  C_28
REMARK   21  A    between atoms: C_28  and  C_30
REMARK   22  A    between atoms: C_30  and  C_31
REMARK   23  A    between atoms: C_31  and  C_32
REMARK   24  A    between atoms: C_32  and  O_33
REMARK   25  A    between atoms: C_35  and  C_36
REMARK   26  A    between atoms: C_37  and  C_38
REMARK                            x       y       z     vdW  Elec       q    Type
REMARK                         _______ _______ _______ _____ _____    ______ ____
ROOT
ATOM      1  C   UNL     1      -8.357   1.452 131.762  0.00  0.00    +0.000 C 
ATOM      2  C   UNL     1      -9.872   1.180 131.717  0.00  0.00    +0.000 C 
ATOM      3  C   UNL     1      -7.556   0.264 132.287  0.00  0.00    +0.000 C 
ATOM      4  C   UNL     1      -7.875  -0.904 131.437  0.00  0.00    +0.000 C 
ATOM      5  C   UNL     1      -7.793  -0.545 129.979  0.00  0.00    +0.000 A 
ATOM      6  C   UNL     1      -7.801  -1.608 129.073  0.00  0.00    +0.000 A 
ATOM      7  C   UNL     1      -7.920  -2.943 129.723  0.00  0.00    +0.000 C 
ATOM      8  C   UNL     1      -7.714  -1.382 127.681  0.00  0.00    +0.000 A 
ATOM      9  C   UNL     1      -7.639  -0.040 127.202  0.00  0.00    +0.000 A 
ATOM     10  C   UNL     1      -7.548   0.277 125.728  0.00  0.00    +0.000 C 
ATOM     11  C   UNL     1      -7.670   1.046 128.149  0.00  0.00    +0.000 A 
ATOM     12  C   UNL     1      -7.592   2.495 127.716  0.00  0.00    +0.000 C 
ATOM     13  C   UNL     1      -7.780   0.774 129.534  0.00  0.00    +0.000 A 
ATOM     14  O   UNL     1      -7.897   1.822 130.432  0.00  0.00    +0.000 OA
ENDROOT
BRANCH   8  15
ATOM     15  O   UNL     1      -7.693  -2.480 126.704  0.00  0.00    +0.000 OA
BRANCH  15  16
ATOM     16  C   UNL     1      -8.749  -2.940 125.914  0.00  0.00    +0.000 C 
ATOM     17  O   UNL     1      -9.950  -2.752 126.083  0.00  0.00    +0.000 OA
BRANCH  16  18
ATOM     18  C   UNL     1      -8.466  -3.758 124.718  0.00  0.00    +0.000 C 
BRANCH  18  19
ATOM     19  C   UNL     1      -9.369  -3.135 123.599  0.00  0.00    +0.000 C 
BRANCH  19  20
ATOM     20  C   UNL     1      -8.894  -1.895 122.930  0.00  0.00    +0.000 C 
ATOM     21  O   UNL     1      -7.720  -1.720 122.637  0.00  0.00    +0.000 OA
BRANCH  20  22
ATOM     22  O   UNL     1      -9.842  -0.980 122.671  0.00  0.00    +0.000 OA
ATOM     23  H   UNL     1      -9.609  -0.294 122.023  0.00  0.00    +0.000 HD
ENDBRANCH  20  22
ENDBRANCH  19  20
ENDBRANCH  18  19
ENDBRANCH  16  18
ENDBRANCH  15  16
ENDBRANCH   8  15
BRANCH   1  24
ATOM     24  C   UNL     1      -8.144   2.601 132.759  0.00  0.00    +0.000 C 
BRANCH  24  25
ATOM     25  C   UNL     1      -6.697   3.038 132.803  0.00  0.00    +0.000 C 
BRANCH  25  26
ATOM     26  C   UNL     1      -6.582   4.547 132.749  0.00  0.00    +0.000 C 
BRANCH  26  27
ATOM     27  C   UNL     1      -6.890   5.040 131.339  0.00  0.00    +0.000 C 
ATOM     28  C   UNL     1      -5.616   5.123 130.478  0.00  0.00    +0.000 C 
BRANCH  27  29
ATOM     29  C   UNL     1      -7.585   6.398 131.456  0.00  0.00    +0.000 C 
BRANCH  29  30
ATOM     30  C   UNL     1      -8.989   6.194 131.960  0.00  0.00    +0.000 C 
BRANCH  30  31
ATOM     31  C   UNL     1     -10.038   6.792 131.044  0.00  0.00    +0.000 C 
BRANCH  31  32
ATOM     32  C   UNL     1     -11.367   6.045 131.191  0.00  0.00    +0.000 C 
ATOM     33  C   UNL     1     -11.421   4.843 130.239  0.00  0.00    +0.000 C 
BRANCH  32  34
ATOM     34  C   UNL     1     -12.546   7.006 130.955  0.00  0.00    +0.000 C 
BRANCH  34  35
ATOM     35  C   UNL     1     -12.096   8.242 130.213  0.00  0.00    +0.000 C 
BRANCH  35  36
ATOM     36  C   UNL     1     -13.001   8.530 129.029  0.00  0.00    +0.000 C 
BRANCH  36  37
ATOM     37  C   UNL     1     -12.239   8.320 127.719  0.00  0.00    +0.000 C 
ATOM     38  C   UNL     1     -10.727   8.397 127.940  0.00  0.00    +0.000 C 
ATOM     39  C   UNL     1     -12.614   6.968 127.127  0.00  0.00    +0.000 C 
ENDBRANCH  36  37
ENDBRANCH  35  36
ENDBRANCH  34  35
ENDBRANCH  32  34
ENDBRANCH  31  32
ENDBRANCH  30  31
ENDBRANCH  29  30
ENDBRANCH  27  29
ENDBRANCH  26  27
ENDBRANCH  25  26
ENDBRANCH  24  25
ENDBRANCH   1  24
TORSDOF 18
ENDMDL
MODEL 8
REMARK VINA RESULT:      -6.9      3.036      6.612
REMARK  Name = alpha-Tocopherol succinate
REMARK  26 active torsions:
REMARK  status: ('A' for Active; 'I' for Inactive)
REMARK    1  A    between atoms: C_2  and  C_3
REMARK    2  A    between atoms: C_2  and  C_4
REMARK    3  A    between atoms: C_2  and  C_10
REMARK    4  A    between atoms: C_4  and  C_5
REMARK    5  A    between atoms: C_5  and  C_6
REMARK    6  A    between atoms: C_6  and  C_7
REMARK    7  A    between atoms: C_7  and  C_8
REMARK    8  A    between atoms: C_7  and  C_9
REMARK    9  A    between atoms: C_10  and  C_11
REMARK   10  A    between atoms: C_11  and  C_12
REMARK   11  A    between atoms: C_12  and  C_13
REMARK   12  A    between atoms: C_13  and  C_15
REMARK   13  A    between atoms: C_13  and  C_16
REMARK   14  A    between atoms: C_16  and  C_17
REMARK   15  A    between atoms: C_17  and  C_18
REMARK   16  A    between atoms: C_18  and  C_19
REMARK   17  A    between atoms: C_19  and  C_20
REMARK   18  A    between atoms: C_24  and  C_25
REMARK   19  A    between atoms: C_26  and  O_27
REMARK   20  A    between atoms: O_27  and  C_28
REMARK   21  A    between atoms: C_28  and  C_30
REMARK   22  A    between atoms: C_30  and  C_31
REMARK   23  A    between atoms: C_31  and  C_32
REMARK   24  A    between atoms: C_32  and  O_33
REMARK   25  A    between atoms: C_35  and  C_36
REMARK   26  A    between atoms: C_37  and  C_38
REMARK                            x       y       z     vdW  Elec       q    Type
REMARK                         _______ _______ _______ _____ _____    ______ ____
ROOT
ATOM      1  C   UNL     1      -8.217   1.080 124.234  0.00  0.00    +0.000 C 
ATOM      2  C   UNL     1      -9.466   1.980 124.174  0.00  0.00    +0.000 C 
ATOM      3  C   UNL     1      -7.024   1.669 123.487  0.00  0.00    +0.000 C 
ATOM      4  C   UNL     1      -6.758   3.010 124.051  0.00  0.00    +0.000 C 
ATOM      5  C   UNL     1      -6.738   2.965 125.555  0.00  0.00    +0.000 A 
ATOM      6  C   UNL     1      -6.232   4.091 126.207  0.00  0.00    +0.000 A 
ATOM      7  C   UNL     1      -5.815   5.179 125.278  0.00  0.00    +0.000 C 
ATOM      8  C   UNL     1      -6.154   4.147 127.616  0.00  0.00    +0.000 A 
ATOM      9  C   UNL     1      -6.626   3.037 128.378  0.00  0.00    +0.000 A 
ATOM     10  C   UNL     1      -6.579   3.027 129.889  0.00  0.00    +0.000 C 
ATOM     11  C   UNL     1      -7.180   1.898 127.690  0.00  0.00    +0.000 A 
ATOM     12  C   UNL     1      -7.697   0.683 128.431  0.00  0.00    +0.000 C 
ATOM     13  C   UNL     1      -7.258   1.894 126.277  0.00  0.00    +0.000 A 
ATOM     14  O   UNL     1      -7.870   0.836 125.627  0.00  0.00    +0.000 OA
ENDROOT
BRANCH   8  15
ATOM     15  O   UNL     1      -5.602   5.306 128.330  0.00  0.00    +0.000 OA
BRANCH  15  16
ATOM     16  C   UNL     1      -4.313   5.458 128.845  0.00  0.00    +0.000 C 
ATOM     17  O   UNL     1      -3.972   5.470 130.025  0.00  0.00    +0.000 OA
BRANCH  16  18
ATOM     18  C   UNL     1      -3.172   5.632 127.924  0.00  0.00    +0.000 C 
BRANCH  18  19
ATOM     19  C   UNL     1      -2.357   4.300 128.060  0.00  0.00    +0.000 C 
BRANCH  19  20
ATOM     20  C   UNL     1      -2.164   3.472 126.840  0.00  0.00    +0.000 C 
ATOM     21  O   UNL     1      -2.810   3.656 125.818  0.00  0.00    +0.000 OA
BRANCH  20  22
ATOM     22  O   UNL     1      -1.234   2.509 126.937  0.00  0.00    +0.000 OA
ATOM     23  H   UNL     1      -0.572   2.623 127.639  0.00  0.00    +0.000 HD
ENDBRANCH  20  22
ENDBRANCH  19  20
ENDBRANCH  18  19
ENDBRANCH  16  18
ENDBRANCH  15  16
ENDBRANCH   8  15
BRANCH   1  24
ATOM     24  C   UNL     1      -8.582  -0.229 123.519  0.00  0.00    +0.000 C 
BRANCH  24  25
ATOM     25  C   UNL     1      -7.370  -0.872 122.883  0.00  0.00    +0.000 C 
BRANCH  25  26
ATOM     26  C   UNL     1      -7.486  -2.381 122.891  0.00  0.00    +0.000 C 
BRANCH  26  27
ATOM     27  C   UNL     1      -6.913  -2.939 124.190  0.00  0.00    +0.000 C 
ATOM     28  C   UNL     1      -5.514  -3.544 123.977  0.00  0.00    +0.000 C 
BRANCH  27  29
ATOM     29  C   UNL     1      -7.901  -3.972 124.735  0.00  0.00    +0.000 C 
BRANCH  29  30
ATOM     30  C   UNL     1      -9.171  -3.276 125.148  0.00  0.00    +0.000 C 
BRANCH  30  31
ATOM     31  C   UNL     1      -9.045  -2.557 126.476  0.00  0.00    +0.000 C 
BRANCH  31  32
ATOM     32  C   UNL     1      -8.384  -3.467 127.517  0.00  0.00    +0.000 C 
ATOM     33  C   UNL     1      -9.445  -4.248 128.304  0.00  0.00    +0.000 C 
BRANCH  32  34
ATOM     34  C   UNL     1      -7.484  -2.639 128.451  0.00  0.00    +0.000 C 
BRANCH  34  35
ATOM     35  C   UNL     1      -7.684  -3.041 129.892  0.00  0.00    +0.000 C 
BRANCH  35  36
ATOM     36  C   UNL     1      -6.374  -3.006 130.658  0.00  0.00    +0.000 C 
BRANCH  36  37
ATOM     37  C   UNL     1      -5.428  -4.089 130.136  0.00  0.00    +0.000 C 
ATOM     38  C   UNL     1      -3.972  -3.622 130.185  0.00  0.00    +0.000 C 
ATOM     39  C   UNL     1      -5.600  -5.354 130.966  0.00  0.00    +0.000 C 
ENDBRANCH  36  37
ENDBRANCH  35  36
ENDBRANCH  34  35
ENDBRANCH  32  34
ENDBRANCH  31  32
ENDBRANCH  30  31
ENDBRANCH  29  30
ENDBRANCH  27  29
ENDBRANCH  26  27
ENDBRANCH  25  26
ENDBRANCH  24  25
ENDBRANCH   1  24
TORSDOF 18
ENDMDL
MODEL 9
REMARK VINA RESULT:      -6.8      1.731      2.186
REMARK  Name = alpha-Tocopherol succinate
REMARK  26 active torsions:
REMARK  status: ('A' for Active; 'I' for Inactive)
REMARK    1  A    between atoms: C_2  and  C_3
REMARK    2  A    between atoms: C_2  and  C_4
REMARK    3  A    between atoms: C_2  and  C_10
REMARK    4  A    between atoms: C_4  and  C_5
REMARK    5  A    between atoms: C_5  and  C_6
REMARK    6  A    between atoms: C_6  and  C_7
REMARK    7  A    between atoms: C_7  and  C_8
REMARK    8  A    between atoms: C_7  and  C_9
REMARK    9  A    between atoms: C_10  and  C_11
REMARK   10  A    between atoms: C_11  and  C_12
REMARK   11  A    between atoms: C_12  and  C_13
REMARK   12  A    between atoms: C_13  and  C_15
REMARK   13  A    between atoms: C_13  and  C_16
REMARK   14  A    between atoms: C_16  and  C_17
REMARK   15  A    between atoms: C_17  and  C_18
REMARK   16  A    between atoms: C_18  and  C_19
REMARK   17  A    between atoms: C_19  and  C_20
REMARK   18  A    between atoms: C_24  and  C_25
REMARK   19  A    between atoms: C_26  and  O_27
REMARK   20  A    between atoms: O_27  and  C_28
REMARK   21  A    between atoms: C_28  and  C_30
REMARK   22  A    between atoms: C_30  and  C_31
REMARK   23  A    between atoms: C_31  and  C_32
REMARK   24  A    between atoms: C_32  and  O_33
REMARK   25  A    between atoms: C_35  and  C_36
REMARK   26  A    between atoms: C_37  and  C_38
REMARK                            x       y       z     vdW  Elec       q    Type
REMARK                         _______ _______ _______ _____ _____    ______ ____
ROOT
ATOM      1  C   UNL     1      -7.156  -0.611 131.767  0.00  0.00    +0.000 C 
ATOM      2  C   UNL     1      -6.878   0.013 133.147  0.00  0.00    +0.000 C 
ATOM      3  C   UNL     1      -8.636  -0.595 131.396  0.00  0.00    +0.000 C 
ATOM      4  C   UNL     1      -9.101   0.807 131.465  0.00  0.00    +0.000 C 
ATOM      5  C   UNL     1      -8.150   1.724 130.745  0.00  0.00    +0.000 A 
ATOM      6  C   UNL     1      -8.601   3.022 130.497  0.00  0.00    +0.000 A 
ATOM      7  C   UNL     1      -9.968   3.288 131.025  0.00  0.00    +0.000 C 
ATOM      8  C   UNL     1      -7.793   3.959 129.815  0.00  0.00    +0.000 A 
ATOM      9  C   UNL     1      -6.486   3.569 129.398  0.00  0.00    +0.000 A 
ATOM     10  C   UNL     1      -5.564   4.518 128.667  0.00  0.00    +0.000 C 
ATOM     11  C   UNL     1      -6.022   2.237 129.695  0.00  0.00    +0.000 A 
ATOM     12  C   UNL     1      -4.649   1.751 129.281  0.00  0.00    +0.000 C 
ATOM     13  C   UNL     1      -6.858   1.338 130.400  0.00  0.00    +0.000 A 
ATOM     14  O   UNL     1      -6.375   0.091 130.759  0.00  0.00    +0.000 OA
ENDROOT
BRANCH   8  15
ATOM     15  O   UNL     1      -8.249   5.323 129.516  0.00  0.00    +0.000 OA
BRANCH  15  16
ATOM     16  C   UNL     1      -8.258   6.428 130.371  0.00  0.00    +0.000 C 
ATOM     17  O   UNL     1      -7.320   7.169 130.649  0.00  0.00    +0.000 OA
BRANCH  16  18
ATOM     18  C   UNL     1      -9.507   6.810 131.060  0.00  0.00    +0.000 C 
BRANCH  18  19
ATOM     19  C   UNL     1     -10.483   7.211 129.900  0.00  0.00    +0.000 C 
BRANCH  19  20
ATOM     20  C   UNL     1     -11.826   6.574 129.868  0.00  0.00    +0.000 C 
ATOM     21  O   UNL     1     -12.037   5.526 129.274  0.00  0.00    +0.000 OA
BRANCH  20  22
ATOM     22  O   UNL     1     -12.791   7.228 130.534  0.00  0.00    +0.000 OA
ATOM     23  H   UNL     1     -13.550   7.525 130.006  0.00  0.00    +0.000 HD
ENDBRANCH  20  22
ENDBRANCH  19  20
ENDBRANCH  18  19
ENDBRANCH  16  18
ENDBRANCH  15  16
ENDBRANCH   8  15
BRANCH   1  24
ATOM     24  C   UNL     1      -6.742  -2.086 131.858  0.00  0.00    +0.000 C 
BRANCH  24  25
ATOM     25  C   UNL     1      -7.436  -2.926 130.809  0.00  0.00    +0.000 C 
BRANCH  25  26
ATOM     26  C   UNL     1      -6.432  -3.627 129.920  0.00  0.00    +0.000 C 
BRANCH  26  27
ATOM     27  C   UNL     1      -6.531  -3.085 128.498  0.00  0.00    +0.000 C 
ATOM     28  C   UNL     1      -5.582  -1.893 128.280  0.00  0.00    +0.000 C 
BRANCH  27  29
ATOM     29  C   UNL     1      -7.989  -2.704 128.239  0.00  0.00    +0.000 C 
BRANCH  29  30
ATOM     30  C   UNL     1      -8.465  -3.387 126.984  0.00  0.00    +0.000 C 
BRANCH  30  31
ATOM     31  C   UNL     1      -9.292  -2.479 126.095  0.00  0.00    +0.000 C 
BRANCH  31  32
ATOM     32  C   UNL     1      -8.618  -2.307 124.730  0.00  0.00    +0.000 C 
ATOM     33  C   UNL     1      -9.304  -3.183 123.673  0.00  0.00    +0.000 C 
BRANCH  32  34
ATOM     34  C   UNL     1      -7.115  -2.621 124.835  0.00  0.00    +0.000 C 
BRANCH  34  35
ATOM     35  C   UNL     1      -6.284  -1.397 124.534  0.00  0.00    +0.000 C 
BRANCH  35  36
ATOM     36  C   UNL     1      -7.094  -0.126 124.711  0.00  0.00    +0.000 C 
BRANCH  36  37
ATOM     37  C   UNL     1      -6.697   0.576 126.011  0.00  0.00    +0.000 C 
ATOM     38  C   UNL     1      -5.919   1.863 125.730  0.00  0.00    +0.000 C 
ATOM     39  C   UNL     1      -7.949   0.888 126.821  0.00  0.00    +0.000 C 
ENDBRANCH  36  37
ENDBRANCH  35  36
ENDBRANCH  34  35
ENDBRANCH  32  34
ENDBRANCH  31  32
ENDBRANCH  30  31
ENDBRANCH  29  30
ENDBRANCH  27  29
ENDBRANCH  26  27
ENDBRANCH  25  26
ENDBRANCH  24  25
ENDBRANCH   1  24
TORSDOF 18
ENDMDL
