MODEL 1
REMARK VINA RESULT:      -6.2      0.000      0.000
REMARK  Name = alpha-Amyl cinnamaldehyde
REMARK  7 active torsions:
REMARK  status: ('A' for Active; 'I' for Inactive)
REMARK    1  A    between atoms: C_1  and  C_2
REMARK    2  A    between atoms: C_2  and  C_3
REMARK    3  A    between atoms: C_3  and  C_4
REMARK    4  A    between atoms: C_4  and  C_5
REMARK    5  A    between atoms: C_5  and  C_6
REMARK    6  A    between atoms: C_6  and  C_7
REMARK    7  A    between atoms: C_9  and  C_10
REMARK                            x       y       z     vdW  Elec       q    Type
REMARK                         _______ _______ _______ _____ _____    ______ ____
ROOT
ATOM      1  C   UNL     1     -10.506   6.478 131.390  0.00  0.00    +0.000 C 
ATOM      2  C   UNL     1     -11.800   6.847 131.280  0.00  0.00    +0.000 C 
ENDROOT
BRANCH   2   3
ATOM      3  C   UNL     1     -12.447   7.341 130.058  0.00  0.00    +0.000 A 
ATOM      4  C   UNL     1     -12.941   6.459 129.095  0.00  0.00    +0.000 A 
ATOM      5  C   UNL     1     -13.520   6.964 127.928  0.00  0.00    +0.000 A 
ATOM      6  C   UNL     1     -13.697   8.339 127.766  0.00  0.00    +0.000 A 
ATOM      7  C   UNL     1     -13.218   9.221 128.726  0.00  0.00    +0.000 A 
ATOM      8  C   UNL     1     -12.540   8.723 129.829  0.00  0.00    +0.000 A 
ENDBRANCH   2   3
BRANCH   1   9
ATOM      9  C   UNL     1      -9.571   6.682 130.225  0.00  0.00    +0.000 C 
ATOM     10  O   UNL     1      -8.730   7.573 130.111  0.00  0.00    +0.000 OA
ENDBRANCH   1   9
BRANCH   1  11
ATOM     11  C   UNL     1     -10.009   5.877 132.687  0.00  0.00    +0.000 C 
BRANCH  11  12
ATOM     12  C   UNL     1      -9.072   4.702 132.478  0.00  0.00    +0.000 C 
BRANCH  12  13
ATOM     13  C   UNL     1      -9.195   3.622 133.522  0.00  0.00    +0.000 C 
BRANCH  13  15
ATOM     14  C   UNL     1      -9.907   1.798 131.993  0.00  0.00    +0.000 C 
ATOM     15  C   UNL     1      -8.794   2.294 132.885  0.00  0.00    +0.000 C 
ENDBRANCH  13  15
ENDBRANCH  12  13
ENDBRANCH  11  12
ENDBRANCH   1  11
TORSDOF 6
ENDMDL
MODEL 2
REMARK VINA RESULT:      -5.9      9.216     11.445
REMARK  Name = alpha-Amyl cinnamaldehyde
REMARK  7 active torsions:
REMARK  status: ('A' for Active; 'I' for Inactive)
REMARK    1  A    between atoms: C_1  and  C_2
REMARK    2  A    between atoms: C_2  and  C_3
REMARK    3  A    between atoms: C_3  and  C_4
REMARK    4  A    between atoms: C_4  and  C_5
REMARK    5  A    between atoms: C_5  and  C_6
REMARK    6  A    between atoms: C_6  and  C_7
REMARK    7  A    between atoms: C_9  and  C_10
REMARK                            x       y       z     vdW  Elec       q    Type
REMARK                         _______ _______ _______ _____ _____    ______ ____
ROOT
ATOM      1  C   UNL     1      -8.774   1.514 123.160  0.00  0.00    +0.000 C 
ATOM      2  C   UNL     1      -7.927   0.532 123.539  0.00  0.00    +0.000 C 
ENDROOT
BRANCH   2   3
ATOM      3  C   UNL     1      -8.320  -0.804 124.000  0.00  0.00    +0.000 A 
ATOM      4  C   UNL     1      -8.529  -1.067 125.356  0.00  0.00    +0.000 A 
ATOM      5  C   UNL     1      -8.869  -2.360 125.764  0.00  0.00    +0.000 A 
ATOM      6  C   UNL     1      -9.097  -3.362 124.818  0.00  0.00    +0.000 A 
ATOM      7  C   UNL     1      -8.901  -3.103 123.468  0.00  0.00    +0.000 A 
ATOM      8  C   UNL     1      -8.452  -1.850 123.074  0.00  0.00    +0.000 A 
ENDBRANCH   2   3
BRANCH   1   9
ATOM      9  C   UNL     1     -10.261   1.317 123.318  0.00  0.00    +0.000 C 
ATOM     10  O   UNL     1     -10.981   0.606 122.618  0.00  0.00    +0.000 OA
ENDBRANCH   1   9
BRANCH   1  11
ATOM     11  C   UNL     1      -8.218   2.803 122.597  0.00  0.00    +0.000 C 
BRANCH  11  12
ATOM     12  C   UNL     1      -6.703   2.867 122.641  0.00  0.00    +0.000 C 
BRANCH  12  13
ATOM     13  C   UNL     1      -6.049   2.972 121.287  0.00  0.00    +0.000 C 
BRANCH  13  15
ATOM     14  C   UNL     1      -5.383   5.013 120.038  0.00  0.00    +0.000 C 
ATOM     15  C   UNL     1      -5.142   4.199 121.287  0.00  0.00    +0.000 C 
ENDBRANCH  13  15
ENDBRANCH  12  13
ENDBRANCH  11  12
ENDBRANCH   1  11
TORSDOF 6
ENDMDL
MODEL 3
REMARK VINA RESULT:      -5.8      1.651      2.220
REMARK  Name = alpha-Amyl cinnamaldehyde
REMARK  7 active torsions:
REMARK  status: ('A' for Active; 'I' for Inactive)
REMARK    1  A    between atoms: C_1  and  C_2
REMARK    2  A    between atoms: C_2  and  C_3
REMARK    3  A    between atoms: C_3  and  C_4
REMARK    4  A    between atoms: C_4  and  C_5
REMARK    5  A    between atoms: C_5  and  C_6
REMARK    6  A    between atoms: C_6  and  C_7
REMARK    7  A    between atoms: C_9  and  C_10
REMARK                            x       y       z     vdW  Elec       q    Type
REMARK                         _______ _______ _______ _____ _____    ______ ____
ROOT
ATOM      1  C   UNL     1      -9.018   6.514 130.285  0.00  0.00    +0.000 C 
ATOM      2  C   UNL     1      -9.758   7.538 129.809  0.00  0.00    +0.000 C 
ENDROOT
BRANCH   2   3
ATOM      3  C   UNL     1     -10.979   7.409 129.005  0.00  0.00    +0.000 A 
ATOM      4  C   UNL     1     -10.927   7.398 127.610  0.00  0.00    +0.000 A 
ATOM      5  C   UNL     1     -12.113   7.308 126.875  0.00  0.00    +0.000 A 
ATOM      6  C   UNL     1     -13.335   7.130 127.526  0.00  0.00    +0.000 A 
ATOM      7  C   UNL     1     -13.391   7.129 128.913  0.00  0.00    +0.000 A 
ATOM      8  C   UNL     1     -12.228   7.335 129.641  0.00  0.00    +0.000 A 
ENDBRANCH   2   3
BRANCH   1   9
ATOM      9  C   UNL     1      -9.361   5.100 129.889  0.00  0.00    +0.000 C 
ATOM     10  O   UNL     1      -8.972   4.510 128.881  0.00  0.00    +0.000 OA
ENDBRANCH   1   9
BRANCH   1  11
ATOM     11  C   UNL     1      -7.847   6.800 131.199  0.00  0.00    +0.000 C 
BRANCH  11  12
ATOM     12  C   UNL     1      -7.623   5.716 132.237  0.00  0.00    +0.000 C 
BRANCH  12  13
ATOM     13  C   UNL     1      -8.550   5.794 133.422  0.00  0.00    +0.000 C 
BRANCH  13  15
ATOM     14  C   UNL     1      -9.207   3.401 133.542  0.00  0.00    +0.000 C 
ATOM     15  C   UNL     1      -8.419   4.498 134.218  0.00  0.00    +0.000 C 
ENDBRANCH  13  15
ENDBRANCH  12  13
ENDBRANCH  11  12
ENDBRANCH   1  11
TORSDOF 6
ENDMDL
MODEL 4
REMARK VINA RESULT:      -5.8      2.265      6.022
REMARK  Name = alpha-Amyl cinnamaldehyde
REMARK  7 active torsions:
REMARK  status: ('A' for Active; 'I' for Inactive)
REMARK    1  A    between atoms: C_1  and  C_2
REMARK    2  A    between atoms: C_2  and  C_3
REMARK    3  A    between atoms: C_3  and  C_4
REMARK    4  A    between atoms: C_4  and  C_5
REMARK    5  A    between atoms: C_5  and  C_6
REMARK    6  A    between atoms: C_6  and  C_7
REMARK    7  A    between atoms: C_9  and  C_10
REMARK                            x       y       z     vdW  Elec       q    Type
REMARK                         _______ _______ _______ _____ _____    ______ ____
ROOT
ATOM      1  C   UNL     1     -11.256   5.994 130.689  0.00  0.00    +0.000 C 
ATOM      2  C   UNL     1     -10.418   6.824 131.347  0.00  0.00    +0.000 C 
ENDROOT
BRANCH   2   3
ATOM      3  C   UNL     1      -9.035   6.514 131.729  0.00  0.00    +0.000 A 
ATOM      4  C   UNL     1      -8.744   5.890 132.944  0.00  0.00    +0.000 A 
ATOM      5  C   UNL     1      -7.413   5.641 133.291  0.00  0.00    +0.000 A 
ATOM      6  C   UNL     1      -6.384   5.920 132.390  0.00  0.00    +0.000 A 
ATOM      7  C   UNL     1      -6.669   6.531 131.175  0.00  0.00    +0.000 A 
ATOM      8  C   UNL     1      -7.979   6.883 130.882  0.00  0.00    +0.000 A 
ENDBRANCH   2   3
BRANCH   1   9
ATOM      9  C   UNL     1     -10.829   4.577 130.403  0.00  0.00    +0.000 C 
ATOM     10  O   UNL     1     -11.567   3.640 130.097  0.00  0.00    +0.000 OA
ENDBRANCH   1   9
BRANCH   1  11
ATOM     11  C   UNL     1     -12.618   6.496 130.260  0.00  0.00    +0.000 C 
BRANCH  11  12
ATOM     12  C   UNL     1     -12.674   6.885 128.795  0.00  0.00    +0.000 C 
BRANCH  12  13
ATOM     13  C   UNL     1     -12.355   8.333 128.527  0.00  0.00    +0.000 C 
BRANCH  13  15
ATOM     14  C   UNL     1     -10.915   7.728 126.595  0.00  0.00    +0.000 C 
ATOM     15  C   UNL     1     -10.948   8.413 127.941  0.00  0.00    +0.000 C 
ENDBRANCH  13  15
ENDBRANCH  12  13
ENDBRANCH  11  12
ENDBRANCH   1  11
TORSDOF 6
ENDMDL
MODEL 5
REMARK VINA RESULT:      -5.7      1.393      2.118
REMARK  Name = alpha-Amyl cinnamaldehyde
REMARK  7 active torsions:
REMARK  status: ('A' for Active; 'I' for Inactive)
REMARK    1  A    between atoms: C_1  and  C_2
REMARK    2  A    between atoms: C_2  and  C_3
REMARK    3  A    between atoms: C_3  and  C_4
REMARK    4  A    between atoms: C_4  and  C_5
REMARK    5  A    between atoms: C_5  and  C_6
REMARK    6  A    between atoms: C_6  and  C_7
REMARK    7  A    between atoms: C_9  and  C_10
REMARK                            x       y       z     vdW  Elec       q    Type
REMARK                         _______ _______ _______ _____ _____    ______ ____
ROOT
ATOM      1  C   UNL     1     -10.747   4.978 130.148  0.00  0.00    +0.000 C 
ATOM      2  C   UNL     1     -11.999   5.472 130.251  0.00  0.00    +0.000 C 
ENDROOT
BRANCH   2   3
ATOM      3  C   UNL     1     -12.465   6.744 129.686  0.00  0.00    +0.000 A 
ATOM      4  C   UNL     1     -12.305   7.945 130.382  0.00  0.00    +0.000 A 
ATOM      5  C   UNL     1     -12.791   9.133 129.830  0.00  0.00    +0.000 A 
ATOM      6  C   UNL     1     -13.344   9.141 128.548  0.00  0.00    +0.000 A 
ATOM      7  C   UNL     1     -13.496   7.952 127.847  0.00  0.00    +0.000 A 
ATOM      8  C   UNL     1     -13.118   6.758 128.444  0.00  0.00    +0.000 A 
ENDBRANCH   2   3
BRANCH   1   9
ATOM      9  C   UNL     1      -9.666   5.815 129.513  0.00  0.00    +0.000 C 
ATOM     10  O   UNL     1      -9.368   5.840 128.319  0.00  0.00    +0.000 OA
ENDBRANCH   1   9
BRANCH   1  11
ATOM     11  C   UNL     1     -10.443   3.596 130.683  0.00  0.00    +0.000 C 
BRANCH  11  12
ATOM     12  C   UNL     1      -9.208   3.557 131.564  0.00  0.00    +0.000 C 
BRANCH  12  13
ATOM     13  C   UNL     1      -9.349   2.687 132.787  0.00  0.00    +0.000 C 
BRANCH  13  15
ATOM     14  C   UNL     1      -8.391   4.286 134.429  0.00  0.00    +0.000 C 
ATOM     15  C   UNL     1      -8.172   2.973 133.715  0.00  0.00    +0.000 C 
ENDBRANCH  13  15
ENDBRANCH  12  13
ENDBRANCH  11  12
ENDBRANCH   1  11
TORSDOF 6
ENDMDL
MODEL 6
REMARK VINA RESULT:      -5.7      9.413     11.045
REMARK  Name = alpha-Amyl cinnamaldehyde
REMARK  7 active torsions:
REMARK  status: ('A' for Active; 'I' for Inactive)
REMARK    1  A    between atoms: C_1  and  C_2
REMARK    2  A    between atoms: C_2  and  C_3
REMARK    3  A    between atoms: C_3  and  C_4
REMARK    4  A    between atoms: C_4  and  C_5
REMARK    5  A    between atoms: C_5  and  C_6
REMARK    6  A    between atoms: C_6  and  C_7
REMARK    7  A    between atoms: C_9  and  C_10
REMARK                            x       y       z     vdW  Elec       q    Type
REMARK                         _______ _______ _______ _____ _____    ______ ____
ROOT
ATOM      1  C   UNL     1      -8.250  -2.866 127.148  0.00  0.00    +0.000 C 
ATOM      2  C   UNL     1      -8.085  -3.553 125.997  0.00  0.00    +0.000 C 
ENDROOT
BRANCH   2   3
ATOM      3  C   UNL     1      -7.545  -3.008 124.746  0.00  0.00    +0.000 A 
ATOM      4  C   UNL     1      -8.385  -2.461 123.774  0.00  0.00    +0.000 A 
ATOM      5  C   UNL     1      -7.840  -1.982 122.579  0.00  0.00    +0.000 A 
ATOM      6  C   UNL     1      -6.456  -1.955 122.396  0.00  0.00    +0.000 A 
ATOM      7  C   UNL     1      -5.615  -2.486 123.364  0.00  0.00    +0.000 A 
ATOM      8  C   UNL     1      -6.165  -3.067 124.499  0.00  0.00    +0.000 A 
ENDBRANCH   2   3
BRANCH   1   9
ATOM      9  C   UNL     1      -7.986  -1.381 127.174  0.00  0.00    +0.000 C 
ATOM     10  O   UNL     1      -6.886  -0.838 127.266  0.00  0.00    +0.000 OA
ENDBRANCH   1   9
BRANCH   1  11
ATOM     11  C   UNL     1      -8.712  -3.593 128.392  0.00  0.00    +0.000 C 
BRANCH  11  12
ATOM     12  C   UNL     1      -7.979  -3.152 129.645  0.00  0.00    +0.000 C 
BRANCH  12  13
ATOM     13  C   UNL     1      -6.685  -3.884 129.894  0.00  0.00    +0.000 C 
BRANCH  13  15
ATOM     14  C   UNL     1      -4.660  -2.992 128.764  0.00  0.00    +0.000 C 
ATOM     15  C   UNL     1      -5.560  -2.855 129.969  0.00  0.00    +0.000 C 
ENDBRANCH  13  15
ENDBRANCH  12  13
ENDBRANCH  11  12
ENDBRANCH   1  11
TORSDOF 6
ENDMDL
MODEL 7
REMARK VINA RESULT:      -5.7      9.586     11.770
REMARK  Name = alpha-Amyl cinnamaldehyde
REMARK  7 active torsions:
REMARK  status: ('A' for Active; 'I' for Inactive)
REMARK    1  A    between atoms: C_1  and  C_2
REMARK    2  A    between atoms: C_2  and  C_3
REMARK    3  A    between atoms: C_3  and  C_4
REMARK    4  A    between atoms: C_4  and  C_5
REMARK    5  A    between atoms: C_5  and  C_6
REMARK    6  A    between atoms: C_6  and  C_7
REMARK    7  A    between atoms: C_9  and  C_10
REMARK                            x       y       z     vdW  Elec       q    Type
REMARK                         _______ _______ _______ _____ _____    ______ ____
ROOT
ATOM      1  C   UNL     1      -8.253  -2.888 127.218  0.00  0.00    +0.000 C 
ATOM      2  C   UNL     1      -8.428  -3.495 128.411  0.00  0.00    +0.000 C 
ENDROOT
BRANCH   2   3
ATOM      3  C   UNL     1      -7.613  -3.272 129.611  0.00  0.00    +0.000 A 
ATOM      4  C   UNL     1      -7.856  -2.187 130.457  0.00  0.00    +0.000 A 
ATOM      5  C   UNL     1      -7.038  -1.985 131.573  0.00  0.00    +0.000 A 
ATOM      6  C   UNL     1      -6.049  -2.915 131.901  0.00  0.00    +0.000 A 
ATOM      7  C   UNL     1      -5.812  -4.001 131.070  0.00  0.00    +0.000 A 
ATOM      8  C   UNL     1      -6.547  -4.137 129.901  0.00  0.00    +0.000 A 
ENDBRANCH   2   3
BRANCH   1   9
ATOM      9  C   UNL     1      -7.063  -1.986 127.009  0.00  0.00    +0.000 C 
ATOM     10  O   UNL     1      -5.924  -2.339 126.706  0.00  0.00    +0.000 OA
ENDBRANCH   1   9
BRANCH   1  11
ATOM     11  C   UNL     1      -9.246  -3.134 126.103  0.00  0.00    +0.000 C 
BRANCH  11  12
ATOM     12  C   UNL     1      -8.590  -3.593 124.813  0.00  0.00    +0.000 C 
BRANCH  12  13
ATOM     13  C   UNL     1      -9.357  -3.230 123.567  0.00  0.00    +0.000 C 
BRANCH  13  15
ATOM     14  C   UNL     1      -7.150  -2.149 123.204  0.00  0.00    +0.000 C 
ATOM     15  C   UNL     1      -8.621  -2.090 122.868  0.00  0.00    +0.000 C 
ENDBRANCH  13  15
ENDBRANCH  12  13
ENDBRANCH  11  12
ENDBRANCH   1  11
TORSDOF 6
ENDMDL
MODEL 8
REMARK VINA RESULT:      -5.5      8.299      9.890
REMARK  Name = alpha-Amyl cinnamaldehyde
REMARK  7 active torsions:
REMARK  status: ('A' for Active; 'I' for Inactive)
REMARK    1  A    between atoms: C_1  and  C_2
REMARK    2  A    between atoms: C_2  and  C_3
REMARK    3  A    between atoms: C_3  and  C_4
REMARK    4  A    between atoms: C_4  and  C_5
REMARK    5  A    between atoms: C_5  and  C_6
REMARK    6  A    between atoms: C_6  and  C_7
REMARK    7  A    between atoms: C_9  and  C_10
REMARK                            x       y       z     vdW  Elec       q    Type
REMARK                         _______ _______ _______ _____ _____    ______ ____
ROOT
ATOM      1  C   UNL     1      -8.184  -0.342 125.855  0.00  0.00    +0.000 C 
ATOM      2  C   UNL     1      -7.027  -0.030 125.233  0.00  0.00    +0.000 C 
ENDROOT
BRANCH   2   3
ATOM      3  C   UNL     1      -6.718   1.255 124.596  0.00  0.00    +0.000 A 
ATOM      4  C   UNL     1      -6.071   2.273 125.300  0.00  0.00    +0.000 A 
ATOM      5  C   UNL     1      -5.822   3.497 124.673  0.00  0.00    +0.000 A 
ATOM      6  C   UNL     1      -6.126   3.672 123.321  0.00  0.00    +0.000 A 
ATOM      7  C   UNL     1      -6.760   2.659 122.613  0.00  0.00    +0.000 A 
ATOM      8  C   UNL     1      -7.110   1.487 123.268  0.00  0.00    +0.000 A 
ENDBRANCH   2   3
BRANCH   1   9
ATOM      9  C   UNL     1      -9.334   0.633 125.820  0.00  0.00    +0.000 C 
ATOM     10  O   UNL     1     -10.242   0.661 124.989  0.00  0.00    +0.000 OA
ENDBRANCH   1   9
BRANCH   1  11
ATOM     11  C   UNL     1      -8.315  -1.670 126.568  0.00  0.00    +0.000 C 
BRANCH  11  12
ATOM     12  C   UNL     1      -9.293  -2.613 125.893  0.00  0.00    +0.000 C 
BRANCH  12  13
ATOM     13  C   UNL     1      -8.677  -3.487 124.832  0.00  0.00    +0.000 C 
BRANCH  13  15
ATOM     14  C   UNL     1      -8.991  -2.040 122.837  0.00  0.00    +0.000 C 
ATOM     15  C   UNL     1      -9.461  -3.293 123.537  0.00  0.00    +0.000 C 
ENDBRANCH  13  15
ENDBRANCH  12  13
ENDBRANCH  11  12
ENDBRANCH   1  11
TORSDOF 6
ENDMDL
MODEL 9
REMARK VINA RESULT:      -5.3     10.050     11.199
REMARK  Name = alpha-Amyl cinnamaldehyde
REMARK  7 active torsions:
REMARK  status: ('A' for Active; 'I' for Inactive)
REMARK    1  A    between atoms: C_1  and  C_2
REMARK    2  A    between atoms: C_2  and  C_3
REMARK    3  A    between atoms: C_3  and  C_4
REMARK    4  A    between atoms: C_4  and  C_5
REMARK    5  A    between atoms: C_5  and  C_6
REMARK    6  A    between atoms: C_6  and  C_7
REMARK    7  A    between atoms: C_9  and  C_10
REMARK                            x       y       z     vdW  Elec       q    Type
REMARK                         _______ _______ _______ _____ _____    ______ ____
ROOT
ATOM      1  C   UNL     1      -7.317  -2.500 127.570  0.00  0.00    +0.000 C 
ATOM      2  C   UNL     1      -6.269  -2.027 126.863  0.00  0.00    +0.000 C 
ENDROOT
BRANCH   2   3
ATOM      3  C   UNL     1      -6.158  -2.021 125.399  0.00  0.00    +0.000 A 
ATOM      4  C   UNL     1      -5.443  -3.014 124.725  0.00  0.00    +0.000 A 
ATOM      5  C   UNL     1      -5.329  -2.959 123.333  0.00  0.00    +0.000 A 
ATOM      6  C   UNL     1      -6.008  -1.977 122.608  0.00  0.00    +0.000 A 
ATOM      7  C   UNL     1      -6.730  -0.995 123.272  0.00  0.00    +0.000 A 
ATOM      8  C   UNL     1      -6.746  -0.984 124.660  0.00  0.00    +0.000 A 
ENDBRANCH   2   3
BRANCH   1   9
ATOM      9  C   UNL     1      -8.444  -3.200 126.854  0.00  0.00    +0.000 C 
ATOM     10  O   UNL     1      -9.341  -3.861 127.376  0.00  0.00    +0.000 OA
ENDBRANCH   1   9
BRANCH   1  11
ATOM     11  C   UNL     1      -7.339  -2.333 129.074  0.00  0.00    +0.000 C 
BRANCH  11  12
ATOM     12  C   UNL     1      -7.051  -3.623 129.820  0.00  0.00    +0.000 C 
BRANCH  12  13
ATOM     13  C   UNL     1      -5.585  -3.915 130.006  0.00  0.00    +0.000 C 
BRANCH  13  15
ATOM     14  C   UNL     1      -5.758  -4.456 132.425  0.00  0.00    +0.000 C 
ATOM     15  C   UNL     1      -5.445  -5.014 131.056  0.00  0.00    +0.000 C 
ENDBRANCH  13  15
ENDBRANCH  12  13
ENDBRANCH  11  12
ENDBRANCH   1  11
TORSDOF 6
ENDMDL
