MODEL 1
REMARK VINA RESULT:      -6.6      0.000      0.000
REMARK  Name = alpha-Arbutin
REMARK  8 active torsions:
REMARK  status: ('A' for Active; 'I' for Inactive)
REMARK    1  A    between atoms: O_1  and  C_2
REMARK    2  A    between atoms: C_2  and  C_3
REMARK    3  A    between atoms: C_5  and  O_6
REMARK    4  A    between atoms: O_6  and  C_7
REMARK    5  A    between atoms: C_10  and  O_11
REMARK    6  A    between atoms: C_14  and  O_15
REMARK    7  A    between atoms: C_16  and  O_17
REMARK    8  A    between atoms: C_18  and  O_19
REMARK                            x       y       z     vdW  Elec       q    Type
REMARK                         _______ _______ _______ _____ _____    ______ ____
ROOT
ATOM      1  C   UNL     1      -8.314   0.323 123.671  0.00  0.00    +0.000 C 
ATOM      2  O   UNL     1      -8.973   1.313 122.898  0.00  0.00    +0.000 OA
ATOM      3  C   UNL     1      -8.362   2.616 123.143  0.00  0.00    +0.000 C 
ATOM      4  C   UNL     1      -8.697   3.113 124.588  0.00  0.00    +0.000 C 
ATOM      5  C   UNL     1      -8.110   2.176 125.642  0.00  0.00    +0.000 C 
ATOM      6  C   UNL     1      -8.449   0.648 125.241  0.00  0.00    +0.000 C 
ENDROOT
BRANCH   4   7
ATOM      7  O   UNL     1      -8.266   4.465 124.768  0.00  0.00    +0.000 OA
ATOM      8  H   UNL     1      -7.375   4.440 125.163  0.00  0.00    +0.000 HD
ENDBRANCH   4   7
BRANCH   5   9
ATOM      9  O   UNL     1      -8.429   2.492 126.998  0.00  0.00    +0.000 OA
ATOM     10  H   UNL     1      -8.613   1.684 127.487  0.00  0.00    +0.000 HD
ENDBRANCH   5   9
BRANCH   6  11
ATOM     11  O   UNL     1      -7.697  -0.269 126.059  0.00  0.00    +0.000 OA
ATOM     12  H   UNL     1      -7.750  -1.175 125.696  0.00  0.00    +0.000 HD
ENDBRANCH   6  11
BRANCH   1  13
ATOM     13  C   UNL     1      -8.516  -1.159 123.334  0.00  0.00    +0.000 C 
BRANCH  13  14
ATOM     14  O   UNL     1      -9.518  -1.658 124.253  0.00  0.00    +0.000 OA
ATOM     15  H   UNL     1      -9.159  -2.431 124.721  0.00  0.00    +0.000 HD
ENDBRANCH  13  14
ENDBRANCH   1  13
BRANCH   3  16
ATOM     16  O   UNL     1      -6.964   2.836 122.661  0.00  0.00    +0.000 OA
BRANCH  16  17
ATOM     17  C   UNL     1      -6.549   3.574 121.582  0.00  0.00    +0.000 A 
ATOM     18  C   UNL     1      -5.343   4.246 121.524  0.00  0.00    +0.000 A 
ATOM     19  C   UNL     1      -5.024   5.052 120.373  0.00  0.00    +0.000 A 
ATOM     20  C   UNL     1      -5.877   5.178 119.274  0.00  0.00    +0.000 A 
ATOM     21  C   UNL     1      -7.045   4.505 119.298  0.00  0.00    +0.000 A 
ATOM     22  C   UNL     1      -7.272   3.799 120.447  0.00  0.00    +0.000 A 
BRANCH  20  23
ATOM     23  O   UNL     1      -5.720   5.916 118.158  0.00  0.00    +0.000 OA
ATOM     24  H   UNL     1      -4.786   6.131 118.051  0.00  0.00    +0.000 HD
ENDBRANCH  20  23
ENDBRANCH  16  17
ENDBRANCH   3  16
TORSDOF 8
ENDMDL
MODEL 2
REMARK VINA RESULT:      -6.6      7.226     10.002
REMARK  Name = alpha-Arbutin
REMARK  8 active torsions:
REMARK  status: ('A' for Active; 'I' for Inactive)
REMARK    1  A    between atoms: O_1  and  C_2
REMARK    2  A    between atoms: C_2  and  C_3
REMARK    3  A    between atoms: C_5  and  O_6
REMARK    4  A    between atoms: O_6  and  C_7
REMARK    5  A    between atoms: C_10  and  O_11
REMARK    6  A    between atoms: C_14  and  O_15
REMARK    7  A    between atoms: C_16  and  O_17
REMARK    8  A    between atoms: C_18  and  O_19
REMARK                            x       y       z     vdW  Elec       q    Type
REMARK                         _______ _______ _______ _____ _____    ______ ____
ROOT
ATOM      1  C   UNL     1     -10.972   6.913 128.456  0.00  0.00    +0.000 C 
ATOM      2  O   UNL     1      -9.792   6.649 129.198  0.00  0.00    +0.000 OA
ATOM      3  C   UNL     1     -10.096   5.737 130.298  0.00  0.00    +0.000 C 
ATOM      4  C   UNL     1     -10.960   6.459 131.384  0.00  0.00    +0.000 C 
ATOM      5  C   UNL     1     -12.312   6.886 130.815  0.00  0.00    +0.000 C 
ATOM      6  C   UNL     1     -12.083   7.609 129.388  0.00  0.00    +0.000 C 
ENDROOT
BRANCH   4   7
ATOM      7  O   UNL     1     -11.098   5.636 132.545  0.00  0.00    +0.000 OA
ATOM      8  H   UNL     1     -11.691   4.897 132.313  0.00  0.00    +0.000 HD
ENDBRANCH   4   7
BRANCH   5   9
ATOM      9  O   UNL     1     -13.149   7.631 131.702  0.00  0.00    +0.000 OA
ATOM     10  H   UNL     1     -12.711   8.450 131.953  0.00  0.00    +0.000 HD
ENDBRANCH   5   9
BRANCH   6  11
ATOM     11  O   UNL     1     -13.338   7.790 128.705  0.00  0.00    +0.000 OA
ATOM     12  H   UNL     1     -13.956   8.313 129.255  0.00  0.00    +0.000 HD
ENDBRANCH   6  11
BRANCH   1  13
ATOM     13  C   UNL     1     -10.865   7.539 127.061  0.00  0.00    +0.000 C 
BRANCH  13  14
ATOM     14  O   UNL     1     -11.738   6.772 126.197  0.00  0.00    +0.000 OA
ATOM     15  H   UNL     1     -11.805   7.220 125.338  0.00  0.00    +0.000 HD
ENDBRANCH  13  14
ENDBRANCH   1  13
BRANCH   3  16
ATOM     16  O   UNL     1     -10.475   4.332 129.957  0.00  0.00    +0.000 OA
BRANCH  16  17
ATOM     17  C   UNL     1      -9.848   3.172 130.335  0.00  0.00    +0.000 A 
ATOM     18  C   UNL     1      -8.881   2.536 129.580  0.00  0.00    +0.000 A 
ATOM     19  C   UNL     1      -8.328   1.284 130.030  0.00  0.00    +0.000 A 
ATOM     20  C   UNL     1      -8.706   0.673 131.229  0.00  0.00    +0.000 A 
ATOM     21  C   UNL     1      -9.625   1.295 131.994  0.00  0.00    +0.000 A 
ATOM     22  C   UNL     1     -10.116   2.456 131.465  0.00  0.00    +0.000 A 
BRANCH  20  23
ATOM     23  O   UNL     1      -8.297  -0.500 131.748  0.00  0.00    +0.000 OA
ATOM     24  H   UNL     1      -8.991  -1.158 131.626  0.00  0.00    +0.000 HD
ENDBRANCH  20  23
ENDBRANCH  16  17
ENDBRANCH   3  16
TORSDOF 8
ENDMDL
MODEL 3
REMARK VINA RESULT:      -6.1      1.438      2.034
REMARK  Name = alpha-Arbutin
REMARK  8 active torsions:
REMARK  status: ('A' for Active; 'I' for Inactive)
REMARK    1  A    between atoms: O_1  and  C_2
REMARK    2  A    between atoms: C_2  and  C_3
REMARK    3  A    between atoms: C_5  and  O_6
REMARK    4  A    between atoms: O_6  and  C_7
REMARK    5  A    between atoms: C_10  and  O_11
REMARK    6  A    between atoms: C_14  and  O_15
REMARK    7  A    between atoms: C_16  and  O_17
REMARK    8  A    between atoms: C_18  and  O_19
REMARK                            x       y       z     vdW  Elec       q    Type
REMARK                         _______ _______ _______ _____ _____    ______ ____
ROOT
ATOM      1  C   UNL     1      -8.866   1.726 123.784  0.00  0.00    +0.000 C 
ATOM      2  O   UNL     1      -8.707   3.133 123.703  0.00  0.00    +0.000 OA
ATOM      3  C   UNL     1      -7.294   3.461 123.530  0.00  0.00    +0.000 C 
ATOM      4  C   UNL     1      -6.500   3.159 124.844  0.00  0.00    +0.000 C 
ATOM      5  C   UNL     1      -6.541   1.670 125.182  0.00  0.00    +0.000 C 
ATOM      6  C   UNL     1      -8.061   1.137 125.046  0.00  0.00    +0.000 C 
ENDROOT
BRANCH   4   7
ATOM      7  O   UNL     1      -5.161   3.654 124.746  0.00  0.00    +0.000 OA
ATOM      8  H   UNL     1      -4.855   3.495 123.834  0.00  0.00    +0.000 HD
ENDBRANCH   4   7
BRANCH   5   9
ATOM      9  O   UNL     1      -5.915   1.297 126.411  0.00  0.00    +0.000 OA
ATOM     10  H   UNL     1      -6.580   1.206 127.101  0.00  0.00    +0.000 HD
ENDBRANCH   5   9
BRANCH   6  11
ATOM     11  O   UNL     1      -8.100  -0.302 125.100  0.00  0.00    +0.000 OA
ATOM     12  H   UNL     1      -8.689  -0.602 125.820  0.00  0.00    +0.000 HD
ENDBRANCH   6  11
BRANCH   1  13
ATOM     13  C   UNL     1     -10.258   1.110 123.605  0.00  0.00    +0.000 C 
BRANCH  13  14
ATOM     14  O   UNL     1     -10.348   0.692 122.221  0.00  0.00    +0.000 OA
ATOM     15  H   UNL     1      -9.517   0.917 121.769  0.00  0.00    +0.000 HD
ENDBRANCH  13  14
ENDBRANCH   1  13
BRANCH   3  16
ATOM     16  O   UNL     1      -6.640   3.079 122.242  0.00  0.00    +0.000 OA
BRANCH  16  17
ATOM     17  C   UNL     1      -6.530   3.825 121.097  0.00  0.00    +0.000 A 
ATOM     18  C   UNL     1      -7.503   3.881 120.116  0.00  0.00    +0.000 A 
ATOM     19  C   UNL     1      -7.268   4.642 118.915  0.00  0.00    +0.000 A 
ATOM     20  C   UNL     1      -6.092   5.363 118.690  0.00  0.00    +0.000 A 
ATOM     21  C   UNL     1      -5.144   5.345 119.649  0.00  0.00    +0.000 A 
ATOM     22  C   UNL     1      -5.445   4.567 120.732  0.00  0.00    +0.000 A 
BRANCH  20  23
ATOM     23  O   UNL     1      -5.731   6.081 117.609  0.00  0.00    +0.000 OA
ATOM     24  H   UNL     1      -5.522   6.982 117.885  0.00  0.00    +0.000 HD
ENDBRANCH  20  23
ENDBRANCH  16  17
ENDBRANCH   3  16
TORSDOF 8
ENDMDL
MODEL 4
REMARK VINA RESULT:      -5.9      6.923      9.261
REMARK  Name = alpha-Arbutin
REMARK  8 active torsions:
REMARK  status: ('A' for Active; 'I' for Inactive)
REMARK    1  A    between atoms: O_1  and  C_2
REMARK    2  A    between atoms: C_2  and  C_3
REMARK    3  A    between atoms: C_5  and  O_6
REMARK    4  A    between atoms: O_6  and  C_7
REMARK    5  A    between atoms: C_10  and  O_11
REMARK    6  A    between atoms: C_14  and  O_15
REMARK    7  A    between atoms: C_16  and  O_17
REMARK    8  A    between atoms: C_18  and  O_19
REMARK                            x       y       z     vdW  Elec       q    Type
REMARK                         _______ _______ _______ _____ _____    ______ ____
ROOT
ATOM      1  C   UNL     1      -9.113   3.540 131.868  0.00  0.00    +0.000 C 
ATOM      2  O   UNL     1      -8.663   4.858 131.598  0.00  0.00    +0.000 OA
ATOM      3  C   UNL     1      -9.090   5.259 130.260  0.00  0.00    +0.000 C 
ATOM      4  C   UNL     1      -8.300   4.460 129.172  0.00  0.00    +0.000 C 
ATOM      5  C   UNL     1      -8.593   2.964 129.269  0.00  0.00    +0.000 C 
ATOM      6  C   UNL     1      -8.487   2.500 130.813  0.00  0.00    +0.000 C 
ENDROOT
BRANCH   4   7
ATOM      7  O   UNL     1      -8.572   4.981 127.868  0.00  0.00    +0.000 OA
ATOM      8  H   UNL     1      -9.533   4.907 127.717  0.00  0.00    +0.000 HD
ENDBRANCH   4   7
BRANCH   5   9
ATOM      9  O   UNL     1      -7.856   2.129 128.372  0.00  0.00    +0.000 OA
ATOM     10  H   UNL     1      -7.231   1.591 128.867  0.00  0.00    +0.000 HD
ENDBRANCH   5   9
BRANCH   6  11
ATOM     11  O   UNL     1      -9.007   1.168 130.979  0.00  0.00    +0.000 OA
ATOM     12  H   UNL     1      -8.441   0.650 131.585  0.00  0.00    +0.000 HD
ENDBRANCH   6  11
BRANCH   1  13
ATOM     13  C   UNL     1      -9.115   3.021 133.310  0.00  0.00    +0.000 C 
BRANCH  13  14
ATOM     14  O   UNL     1      -9.874   3.977 134.090  0.00  0.00    +0.000 OA
ATOM     15  H   UNL     1     -10.660   3.535 134.453  0.00  0.00    +0.000 HD
ENDBRANCH  13  14
ENDBRANCH   1  13
BRANCH   3  16
ATOM     16  O   UNL     1     -10.551   5.460 130.022  0.00  0.00    +0.000 OA
BRANCH  16  17
ATOM     17  C   UNL     1     -11.220   6.641 129.822  0.00  0.00    +0.000 A 
ATOM     18  C   UNL     1     -12.164   7.151 130.694  0.00  0.00    +0.000 A 
ATOM     19  C   UNL     1     -12.863   8.367 130.364  0.00  0.00    +0.000 A 
ATOM     20  C   UNL     1     -12.620   9.089 129.193  0.00  0.00    +0.000 A 
ATOM     21  C   UNL     1     -11.681   8.624 128.345  0.00  0.00    +0.000 A 
ATOM     22  C   UNL     1     -11.100   7.447 128.728  0.00  0.00    +0.000 A 
BRANCH  20  23
ATOM     23  O   UNL     1     -13.218  10.211 128.749  0.00  0.00    +0.000 OA
ATOM     24  H   UNL     1     -13.047  10.308 127.805  0.00  0.00    +0.000 HD
ENDBRANCH  20  23
ENDBRANCH  16  17
ENDBRANCH   3  16
TORSDOF 8
ENDMDL
MODEL 5
REMARK VINA RESULT:      -5.9      3.241      4.865
REMARK  Name = alpha-Arbutin
REMARK  8 active torsions:
REMARK  status: ('A' for Active; 'I' for Inactive)
REMARK    1  A    between atoms: O_1  and  C_2
REMARK    2  A    between atoms: C_2  and  C_3
REMARK    3  A    between atoms: C_5  and  O_6
REMARK    4  A    between atoms: O_6  and  C_7
REMARK    5  A    between atoms: C_10  and  O_11
REMARK    6  A    between atoms: C_14  and  O_15
REMARK    7  A    between atoms: C_16  and  O_17
REMARK    8  A    between atoms: C_18  and  O_19
REMARK                            x       y       z     vdW  Elec       q    Type
REMARK                         _______ _______ _______ _____ _____    ______ ____
ROOT
ATOM      1  C   UNL     1      -6.564  -2.219 124.210  0.00  0.00    +0.000 C 
ATOM      2  O   UNL     1      -6.551  -1.192 123.230  0.00  0.00    +0.000 OA
ATOM      3  C   UNL     1      -7.787  -0.418 123.314  0.00  0.00    +0.000 C 
ATOM      4  C   UNL     1      -9.001  -1.270 122.818  0.00  0.00    +0.000 C 
ATOM      5  C   UNL     1      -9.216  -2.491 123.711  0.00  0.00    +0.000 C 
ATOM      6  C   UNL     1      -7.797  -3.221 123.964  0.00  0.00    +0.000 C 
ENDROOT
BRANCH   4   7
ATOM      7  O   UNL     1     -10.176  -0.461 122.716  0.00  0.00    +0.000 OA
ATOM      8  H   UNL     1     -10.941  -1.027 122.928  0.00  0.00    +0.000 HD
ENDBRANCH   4   7
BRANCH   5   9
ATOM      9  O   UNL     1     -10.251  -3.385 123.297  0.00  0.00    +0.000 OA
ATOM     10  H   UNL     1     -11.036  -2.886 123.054  0.00  0.00    +0.000 HD
ENDBRANCH   5   9
BRANCH   6  11
ATOM     11  O   UNL     1      -7.916  -4.212 125.002  0.00  0.00    +0.000 OA
ATOM     12  H   UNL     1      -7.339  -3.987 125.759  0.00  0.00    +0.000 HD
ENDBRANCH   6  11
BRANCH   1  13
ATOM     13  C   UNL     1      -5.257  -2.934 124.573  0.00  0.00    +0.000 C 
BRANCH  13  14
ATOM     14  O   UNL     1      -5.265  -4.194 123.858  0.00  0.00    +0.000 OA
ATOM     15  H   UNL     1      -4.715  -4.107 123.062  0.00  0.00    +0.000 HD
ENDBRANCH  13  14
ENDBRANCH   1  13
BRANCH   3  16
ATOM     16  O   UNL     1      -8.004   0.424 124.530  0.00  0.00    +0.000 OA
BRANCH  16  17
ATOM     17  C   UNL     1      -7.679   1.744 124.712  0.00  0.00    +0.000 A 
ATOM     18  C   UNL     1      -8.506   2.664 125.329  0.00  0.00    +0.000 A 
ATOM     19  C   UNL     1      -8.105   4.045 125.415  0.00  0.00    +0.000 A 
ATOM     20  C   UNL     1      -6.888   4.516 124.917  0.00  0.00    +0.000 A 
ATOM     21  C   UNL     1      -6.054   3.627 124.339  0.00  0.00    +0.000 A 
ATOM     22  C   UNL     1      -6.538   2.350 124.274  0.00  0.00    +0.000 A 
BRANCH  20  23
ATOM     23  O   UNL     1      -6.407   5.773 124.901  0.00  0.00    +0.000 OA
ATOM     24  H   UNL     1      -5.446   5.743 124.818  0.00  0.00    +0.000 HD
ENDBRANCH  20  23
ENDBRANCH  16  17
ENDBRANCH   3  16
TORSDOF 8
ENDMDL
MODEL 6
REMARK VINA RESULT:      -5.9      6.399      9.217
REMARK  Name = alpha-Arbutin
REMARK  8 active torsions:
REMARK  status: ('A' for Active; 'I' for Inactive)
REMARK    1  A    between atoms: O_1  and  C_2
REMARK    2  A    between atoms: C_2  and  C_3
REMARK    3  A    between atoms: C_5  and  O_6
REMARK    4  A    between atoms: O_6  and  C_7
REMARK    5  A    between atoms: C_10  and  O_11
REMARK    6  A    between atoms: C_14  and  O_15
REMARK    7  A    between atoms: C_16  and  O_17
REMARK    8  A    between atoms: C_18  and  O_19
REMARK                            x       y       z     vdW  Elec       q    Type
REMARK                         _______ _______ _______ _____ _____    ______ ____
ROOT
ATOM      1  C   UNL     1      -8.379   3.966 129.375  0.00  0.00    +0.000 C 
ATOM      2  O   UNL     1      -9.744   3.640 129.580  0.00  0.00    +0.000 OA
ATOM      3  C   UNL     1     -10.115   3.921 130.965  0.00  0.00    +0.000 C 
ATOM      4  C   UNL     1      -9.429   2.900 131.932  0.00  0.00    +0.000 C 
ATOM      5  C   UNL     1      -7.908   3.028 131.876  0.00  0.00    +0.000 C 
ATOM      6  C   UNL     1      -7.435   3.083 130.332  0.00  0.00    +0.000 C 
ENDROOT
BRANCH   4   7
ATOM      7  O   UNL     1      -9.936   3.049 133.261  0.00  0.00    +0.000 OA
ATOM      8  H   UNL     1      -9.270   3.542 133.776  0.00  0.00    +0.000 HD
ENDBRANCH   4   7
BRANCH   5   9
ATOM      9  O   UNL     1      -7.178   2.083 132.661  0.00  0.00    +0.000 OA
ATOM     10  H   UNL     1      -6.272   2.025 132.344  0.00  0.00    +0.000 HD
ENDBRANCH   5   9
BRANCH   6  11
ATOM     11  O   UNL     1      -6.049   3.463 130.240  0.00  0.00    +0.000 OA
ATOM     12  H   UNL     1      -5.709   3.304 129.337  0.00  0.00    +0.000 HD
ENDBRANCH   6  11
BRANCH   1  13
ATOM     13  C   UNL     1      -7.841   4.107 127.947  0.00  0.00    +0.000 C 
BRANCH  13  14
ATOM     14  O   UNL     1      -8.617   5.154 127.316  0.00  0.00    +0.000 OA
ATOM     15  H   UNL     1      -9.410   4.761 126.915  0.00  0.00    +0.000 HD
ENDBRANCH  13  14
ENDBRANCH   1  13
BRANCH   3  16
ATOM     16  O   UNL     1     -10.150   5.349 131.403  0.00  0.00    +0.000 OA
BRANCH  16  17
ATOM     17  C   UNL     1     -10.816   6.396 130.819  0.00  0.00    +0.000 A 
ATOM     18  C   UNL     1     -12.069   6.829 131.213  0.00  0.00    +0.000 A 
ATOM     19  C   UNL     1     -12.718   7.895 130.494  0.00  0.00    +0.000 A 
ATOM     20  C   UNL     1     -12.130   8.548 129.408  0.00  0.00    +0.000 A 
ATOM     21  C   UNL     1     -10.895   8.160 129.029  0.00  0.00    +0.000 A 
ATOM     22  C   UNL     1     -10.379   7.119 129.749  0.00  0.00    +0.000 A 
BRANCH  20  23
ATOM     23  O   UNL     1     -12.633   9.528 128.633  0.00  0.00    +0.000 OA
ATOM     24  H   UNL     1     -13.357   9.172 128.106  0.00  0.00    +0.000 HD
ENDBRANCH  20  23
ENDBRANCH  16  17
ENDBRANCH   3  16
TORSDOF 8
ENDMDL
MODEL 7
REMARK VINA RESULT:      -5.8      3.033      7.362
REMARK  Name = alpha-Arbutin
REMARK  8 active torsions:
REMARK  status: ('A' for Active; 'I' for Inactive)
REMARK    1  A    between atoms: O_1  and  C_2
REMARK    2  A    between atoms: C_2  and  C_3
REMARK    3  A    between atoms: C_5  and  O_6
REMARK    4  A    between atoms: O_6  and  C_7
REMARK    5  A    between atoms: C_10  and  O_11
REMARK    6  A    between atoms: C_14  and  O_15
REMARK    7  A    between atoms: C_16  and  O_17
REMARK    8  A    between atoms: C_18  and  O_19
REMARK                            x       y       z     vdW  Elec       q    Type
REMARK                         _______ _______ _______ _____ _____    ______ ____
ROOT
ATOM      1  C   UNL     1      -8.267   2.584 125.448  0.00  0.00    +0.000 C 
ATOM      2  O   UNL     1      -9.480   1.914 125.751  0.00  0.00    +0.000 OA
ATOM      3  C   UNL     1      -9.713   0.853 124.775  0.00  0.00    +0.000 C 
ATOM      4  C   UNL     1     -10.065   1.462 123.378  0.00  0.00    +0.000 C 
ATOM      5  C   UNL     1      -8.899   2.282 122.828  0.00  0.00    +0.000 C 
ATOM      6  C   UNL     1      -8.340   3.257 123.989  0.00  0.00    +0.000 C 
ENDROOT
BRANCH   4   7
ATOM      7  O   UNL     1     -10.480   0.436 122.472  0.00  0.00    +0.000 OA
ATOM      8  H   UNL     1     -10.199   0.704 121.577  0.00  0.00    +0.000 HD
ENDBRANCH   4   7
BRANCH   5   9
ATOM      9  O   UNL     1      -9.146   2.954 121.591  0.00  0.00    +0.000 OA
ATOM     10  H   UNL     1      -8.866   2.400 120.856  0.00  0.00    +0.000 HD
ENDBRANCH   5   9
BRANCH   6  11
ATOM     11  O   UNL     1      -7.089   3.849 123.593  0.00  0.00    +0.000 OA
ATOM     12  H   UNL     1      -7.086   4.808 123.787  0.00  0.00    +0.000 HD
ENDBRANCH   6  11
BRANCH   1  13
ATOM     13  C   UNL     1      -7.615   3.484 126.504  0.00  0.00    +0.000 C 
BRANCH  13  14
ATOM     14  O   UNL     1      -8.232   4.788 126.372  0.00  0.00    +0.000 OA
ATOM     15  H   UNL     1      -7.677   5.342 125.798  0.00  0.00    +0.000 HD
ENDBRANCH  13  14
ENDBRANCH   1  13
BRANCH   3  16
ATOM     16  O   UNL     1      -8.790  -0.323 124.787  0.00  0.00    +0.000 OA
BRANCH  16  17
ATOM     17  C   UNL     1      -8.612  -1.247 125.784  0.00  0.00    +0.000 A 
ATOM     18  C   UNL     1      -9.174  -2.510 125.774  0.00  0.00    +0.000 A 
ATOM     19  C   UNL     1      -8.984  -3.389 126.901  0.00  0.00    +0.000 A 
ATOM     20  C   UNL     1      -8.227  -3.036 128.021  0.00  0.00    +0.000 A 
ATOM     21  C   UNL     1      -7.645  -1.819 128.034  0.00  0.00    +0.000 A 
ATOM     22  C   UNL     1      -7.913  -1.047 126.938  0.00  0.00    +0.000 A 
BRANCH  20  23
ATOM     23  O   UNL     1      -7.997  -3.740 129.146  0.00  0.00    +0.000 OA
ATOM     24  H   UNL     1      -7.630  -4.600 128.911  0.00  0.00    +0.000 HD
ENDBRANCH  20  23
ENDBRANCH  16  17
ENDBRANCH   3  16
TORSDOF 8
ENDMDL
MODEL 8
REMARK VINA RESULT:      -5.8      8.804      9.713
REMARK  Name = alpha-Arbutin
REMARK  8 active torsions:
REMARK  status: ('A' for Active; 'I' for Inactive)
REMARK    1  A    between atoms: O_1  and  C_2
REMARK    2  A    between atoms: C_2  and  C_3
REMARK    3  A    between atoms: C_5  and  O_6
REMARK    4  A    between atoms: O_6  and  C_7
REMARK    5  A    between atoms: C_10  and  O_11
REMARK    6  A    between atoms: C_14  and  O_15
REMARK    7  A    between atoms: C_16  and  O_17
REMARK    8  A    between atoms: C_18  and  O_19
REMARK                            x       y       z     vdW  Elec       q    Type
REMARK                         _______ _______ _______ _____ _____    ______ ____
ROOT
ATOM      1  C   UNL     1      -8.485   4.468 132.103  0.00  0.00    +0.000 C 
ATOM      2  O   UNL     1      -8.660   5.832 132.451  0.00  0.00    +0.000 OA
ATOM      3  C   UNL     1      -8.145   6.683 131.381  0.00  0.00    +0.000 C 
ATOM      4  C   UNL     1      -6.584   6.600 131.320  0.00  0.00    +0.000 C 
ATOM      5  C   UNL     1      -6.121   5.184 130.983  0.00  0.00    +0.000 C 
ATOM      6  C   UNL     1      -6.926   4.128 131.904  0.00  0.00    +0.000 C 
ENDROOT
BRANCH   4   7
ATOM      7  O   UNL     1      -6.064   7.571 130.407  0.00  0.00    +0.000 OA
ATOM      8  H   UNL     1      -6.774   7.787 129.773  0.00  0.00    +0.000 HD
ENDBRANCH   4   7
BRANCH   5   9
ATOM      9  O   UNL     1      -4.707   4.978 130.985  0.00  0.00    +0.000 OA
ATOM     10  H   UNL     1      -4.257   5.801 130.768  0.00  0.00    +0.000 HD
ENDBRANCH   5   9
BRANCH   6  11
ATOM     11  O   UNL     1      -6.711   2.783 131.438  0.00  0.00    +0.000 OA
ATOM     12  H   UNL     1      -6.480   2.781 130.488  0.00  0.00    +0.000 HD
ENDBRANCH   6  11
BRANCH   1  13
ATOM     13  C   UNL     1      -9.253   3.387 132.873  0.00  0.00    +0.000 C 
BRANCH  13  14
ATOM     14  O   UNL     1      -9.794   4.027 134.054  0.00  0.00    +0.000 OA
ATOM     15  H   UNL     1      -9.094   4.092 134.725  0.00  0.00    +0.000 HD
ENDBRANCH  13  14
ENDBRANCH   1  13
BRANCH   3  16
ATOM     16  O   UNL     1      -8.873   6.681 130.075  0.00  0.00    +0.000 OA
BRANCH  16  17
ATOM     17  C   UNL     1     -10.062   7.293 129.770  0.00  0.00    +0.000 A 
ATOM     18  C   UNL     1     -11.199   7.203 130.552  0.00  0.00    +0.000 A 
ATOM     19  C   UNL     1     -12.422   7.827 130.114  0.00  0.00    +0.000 A 
ATOM     20  C   UNL     1     -12.520   8.555 128.925  0.00  0.00    +0.000 A 
ATOM     21  C   UNL     1     -11.413   8.680 128.165  0.00  0.00    +0.000 A 
ATOM     22  C   UNL     1     -10.315   8.023 128.646  0.00  0.00    +0.000 A 
BRANCH  20  23
ATOM     23  O   UNL     1     -13.598   9.156 128.385  0.00  0.00    +0.000 OA
ATOM     24  H   UNL     1     -13.315   9.951 127.919  0.00  0.00    +0.000 HD
ENDBRANCH  20  23
ENDBRANCH  16  17
ENDBRANCH   3  16
TORSDOF 8
ENDMDL
MODEL 9
REMARK VINA RESULT:      -5.7      2.925      6.505
REMARK  Name = alpha-Arbutin
REMARK  8 active torsions:
REMARK  status: ('A' for Active; 'I' for Inactive)
REMARK    1  A    between atoms: O_1  and  C_2
REMARK    2  A    between atoms: C_2  and  C_3
REMARK    3  A    between atoms: C_5  and  O_6
REMARK    4  A    between atoms: O_6  and  C_7
REMARK    5  A    between atoms: C_10  and  O_11
REMARK    6  A    between atoms: C_14  and  O_15
REMARK    7  A    between atoms: C_16  and  O_17
REMARK    8  A    between atoms: C_18  and  O_19
REMARK                            x       y       z     vdW  Elec       q    Type
REMARK                         _______ _______ _______ _____ _____    ______ ____
ROOT
ATOM      1  C   UNL     1      -6.918   2.390 123.222  0.00  0.00    +0.000 C 
ATOM      2  O   UNL     1      -6.432   1.650 124.331  0.00  0.00    +0.000 OA
ATOM      3  C   UNL     1      -7.187   0.406 124.461  0.00  0.00    +0.000 C 
ATOM      4  C   UNL     1      -8.648   0.701 124.934  0.00  0.00    +0.000 C 
ATOM      5  C   UNL     1      -9.402   1.536 123.900  0.00  0.00    +0.000 C 
ATOM      6  C   UNL     1      -8.468   2.767 123.428  0.00  0.00    +0.000 C 
ENDROOT
BRANCH   4   7
ATOM      7  O   UNL     1      -9.331  -0.516 125.247  0.00  0.00    +0.000 OA
ATOM      8  H   UNL     1      -9.985  -0.316 125.942  0.00  0.00    +0.000 HD
ENDBRANCH   4   7
BRANCH   5   9
ATOM      9  O   UNL     1     -10.724   1.934 124.270  0.00  0.00    +0.000 OA
ATOM     10  H   UNL     1     -11.054   1.360 124.968  0.00  0.00    +0.000 HD
ENDBRANCH   5   9
BRANCH   6  11
ATOM     11  O   UNL     1      -9.033   3.419 122.275  0.00  0.00    +0.000 OA
ATOM     12  H   UNL     1      -9.962   3.673 122.445  0.00  0.00    +0.000 HD
ENDBRANCH   6  11
BRANCH   1  13
ATOM     13  C   UNL     1      -6.079   3.540 122.653  0.00  0.00    +0.000 C 
BRANCH  13  14
ATOM     14  O   UNL     1      -6.174   4.629 123.603  0.00  0.00    +0.000 OA
ATOM     15  H   UNL     1      -6.911   4.452 124.212  0.00  0.00    +0.000 HD
ENDBRANCH  13  14
ENDBRANCH   1  13
BRANCH   3  16
ATOM     16  O   UNL     1      -7.016  -0.630 123.398  0.00  0.00    +0.000 OA
BRANCH  16  17
ATOM     17  C   UNL     1      -6.434  -1.867 123.509  0.00  0.00    +0.000 A 
ATOM     18  C   UNL     1      -6.970  -2.908 124.244  0.00  0.00    +0.000 A 
ATOM     19  C   UNL     1      -6.250  -4.152 124.356  0.00  0.00    +0.000 A 
ATOM     20  C   UNL     1      -5.021  -4.378 123.730  0.00  0.00    +0.000 A 
ATOM     21  C   UNL     1      -4.498  -3.384 122.984  0.00  0.00    +0.000 A 
ATOM     22  C   UNL     1      -5.237  -2.233 122.969  0.00  0.00    +0.000 A 
BRANCH  20  23
ATOM     23  O   UNL     1      -4.233  -5.469 123.778  0.00  0.00    +0.000 OA
ATOM     24  H   UNL     1      -3.927  -5.598 124.683  0.00  0.00    +0.000 HD
ENDBRANCH  20  23
ENDBRANCH  16  17
ENDBRANCH   3  16
TORSDOF 8
ENDMDL
