MODEL 1
REMARK VINA RESULT:      -5.7      0.000      0.000
REMARK  Name = alpha-Linolenic acid
REMARK  15 active torsions:
REMARK  status: ('A' for Active; 'I' for Inactive)
REMARK    1  A    between atoms: C_1  and  C_2
REMARK    2  A    between atoms: C_2  and  C_3
REMARK    3  A    between atoms: C_4  and  C_5
REMARK    4  A    between atoms: C_5  and  C_6
REMARK    5  A    between atoms: C_7  and  C_8
REMARK    6  A    between atoms: C_8  and  C_9
REMARK    7  A    between atoms: C_10  and  C_11
REMARK    8  A    between atoms: C_11  and  C_12
REMARK    9  A    between atoms: C_12  and  C_13
REMARK   10  A    between atoms: C_13  and  C_14
REMARK   11  A    between atoms: C_14  and  C_15
REMARK   12  A    between atoms: C_15  and  C_16
REMARK   13  A    between atoms: C_16  and  C_17
REMARK   14  A    between atoms: C_17  and  C_18
REMARK   15  A    between atoms: C_18  and  O_19
REMARK                            x       y       z     vdW  Elec       q    Type
REMARK                         _______ _______ _______ _____ _____    ______ ____
ROOT
ATOM      1  C   UNL     1      -9.992   5.444 130.107  0.00  0.00    +0.000 C 
ENDROOT
BRANCH   1   3
ATOM      2  C   UNL     1      -8.277   6.870 131.206  0.00  0.00    +0.000 C 
ATOM      3  C   UNL     1      -9.315   6.757 130.366  0.00  0.00    +0.000 C 
BRANCH   2   4
ATOM      4  C   UNL     1      -7.730   5.686 131.941  0.00  0.00    +0.000 C 
BRANCH   4   6
ATOM      5  C   UNL     1      -8.367   4.522 134.041  0.00  0.00    +0.000 C 
ATOM      6  C   UNL     1      -8.087   5.667 133.395  0.00  0.00    +0.000 C 
BRANCH   5   7
ATOM      7  C   UNL     1      -8.338   3.195 133.345  0.00  0.00    +0.000 C 
BRANCH   7   9
ATOM      8  C   UNL     1      -9.867   1.849 131.927  0.00  0.00    +0.000 C 
ATOM      9  C   UNL     1      -9.693   2.689 132.961  0.00  0.00    +0.000 C 
BRANCH   8  11
ATOM     10  C   UNL     1      -8.615   2.118 129.778  0.00  0.00    +0.000 C 
ATOM     11  C   UNL     1      -8.725   1.355 131.082  0.00  0.00    +0.000 C 
ENDBRANCH   8  11
ENDBRANCH   7   9
ENDBRANCH   5   7
ENDBRANCH   4   6
ENDBRANCH   2   4
ENDBRANCH   1   3
BRANCH   1  12
ATOM     12  C   UNL     1     -11.331   5.359 130.813  0.00  0.00    +0.000 C 
BRANCH  12  13
ATOM     13  C   UNL     1     -11.713   6.728 131.354  0.00  0.00    +0.000 C 
BRANCH  13  14
ATOM     14  C   UNL     1     -12.947   7.236 130.636  0.00  0.00    +0.000 C 
BRANCH  14  15
ATOM     15  C   UNL     1     -12.693   8.621 130.061  0.00  0.00    +0.000 C 
BRANCH  15  16
ATOM     16  C   UNL     1     -13.111   8.639 128.602  0.00  0.00    +0.000 C 
BRANCH  16  17
ATOM     17  C   UNL     1     -12.669   7.384 127.872  0.00  0.00    +0.000 C 
BRANCH  17  18
ATOM     18  C   UNL     1     -11.363   7.503 127.121  0.00  0.00    +0.000 C 
ATOM     19  O   UNL     1     -10.632   8.479 127.251  0.00  0.00    +0.000 OA
BRANCH  18  20
ATOM     20  O   UNL     1     -11.027   6.492 126.298  0.00  0.00    +0.000 OA
ATOM     21  H   UNL     1     -11.346   6.530 125.378  0.00  0.00    +0.000 HD
ENDBRANCH  18  20
ENDBRANCH  17  18
ENDBRANCH  16  17
ENDBRANCH  15  16
ENDBRANCH  14  15
ENDBRANCH  13  14
ENDBRANCH  12  13
ENDBRANCH   1  12
TORSDOF 14
ENDMDL
MODEL 2
REMARK VINA RESULT:      -5.7      7.530      9.953
REMARK  Name = alpha-Linolenic acid
REMARK  15 active torsions:
REMARK  status: ('A' for Active; 'I' for Inactive)
REMARK    1  A    between atoms: C_1  and  C_2
REMARK    2  A    between atoms: C_2  and  C_3
REMARK    3  A    between atoms: C_4  and  C_5
REMARK    4  A    between atoms: C_5  and  C_6
REMARK    5  A    between atoms: C_7  and  C_8
REMARK    6  A    between atoms: C_8  and  C_9
REMARK    7  A    between atoms: C_10  and  C_11
REMARK    8  A    between atoms: C_11  and  C_12
REMARK    9  A    between atoms: C_12  and  C_13
REMARK   10  A    between atoms: C_13  and  C_14
REMARK   11  A    between atoms: C_14  and  C_15
REMARK   12  A    between atoms: C_15  and  C_16
REMARK   13  A    between atoms: C_16  and  C_17
REMARK   14  A    between atoms: C_17  and  C_18
REMARK   15  A    between atoms: C_18  and  O_19
REMARK                            x       y       z     vdW  Elec       q    Type
REMARK                         _______ _______ _______ _____ _____    ______ ____
ROOT
ATOM      1  C   UNL     1      -8.533  -3.753 126.211  0.00  0.00    +0.000 C 
ENDROOT
BRANCH   1   3
ATOM      2  C   UNL     1      -8.010  -2.888 128.483  0.00  0.00    +0.000 C 
ATOM      3  C   UNL     1      -8.870  -3.488 127.648  0.00  0.00    +0.000 C 
BRANCH   2   4
ATOM      4  C   UNL     1      -6.655  -2.446 128.027  0.00  0.00    +0.000 C 
BRANCH   4   6
ATOM      5  C   UNL     1      -6.064  -0.797 126.266  0.00  0.00    +0.000 C 
ATOM      6  C   UNL     1      -6.638  -1.064 127.451  0.00  0.00    +0.000 C 
BRANCH   5   7
ATOM      7  C   UNL     1      -5.407  -1.866 125.448  0.00  0.00    +0.000 C 
BRANCH   7   9
ATOM      8  C   UNL     1      -5.265  -2.671 123.104  0.00  0.00    +0.000 C 
ATOM      9  C   UNL     1      -5.874  -1.909 124.027  0.00  0.00    +0.000 C 
BRANCH   8  11
ATOM     10  C   UNL     1      -4.457  -4.997 123.550  0.00  0.00    +0.000 C 
ATOM     11  C   UNL     1      -4.076  -3.536 123.423  0.00  0.00    +0.000 C 
ENDBRANCH   8  11
ENDBRANCH   7   9
ENDBRANCH   5   7
ENDBRANCH   4   6
ENDBRANCH   2   4
ENDBRANCH   1   3
BRANCH   1  12
ATOM     12  C   UNL     1      -9.261  -2.800 125.284  0.00  0.00    +0.000 C 
BRANCH  12  13
ATOM     13  C   UNL     1      -9.216  -3.336 123.861  0.00  0.00    +0.000 C 
BRANCH  13  14
ATOM     14  C   UNL     1      -9.273  -2.184 122.878  0.00  0.00    +0.000 C 
BRANCH  14  15
ATOM     15  C   UNL     1      -9.039  -0.864 123.594  0.00  0.00    +0.000 C 
BRANCH  15  16
ATOM     16  C   UNL     1      -9.787   0.239 122.867  0.00  0.00    +0.000 C 
BRANCH  16  17
ATOM     17  C   UNL     1     -10.119   1.398 123.788  0.00  0.00    +0.000 C 
BRANCH  17  18
ATOM     18  C   UNL     1      -9.036   2.444 123.921  0.00  0.00    +0.000 C 
ATOM     19  O   UNL     1      -8.059   2.457 123.180  0.00  0.00    +0.000 OA
BRANCH  18  20
ATOM     20  O   UNL     1      -9.183   3.369 124.889  0.00  0.00    +0.000 OA
ATOM     21  H   UNL     1      -9.996   3.339 125.424  0.00  0.00    +0.000 HD
ENDBRANCH  18  20
ENDBRANCH  17  18
ENDBRANCH  16  17
ENDBRANCH  15  16
ENDBRANCH  14  15
ENDBRANCH  13  14
ENDBRANCH  12  13
ENDBRANCH   1  12
TORSDOF 14
ENDMDL
MODEL 3
REMARK VINA RESULT:      -5.7      6.781      9.756
REMARK  Name = alpha-Linolenic acid
REMARK  15 active torsions:
REMARK  status: ('A' for Active; 'I' for Inactive)
REMARK    1  A    between atoms: C_1  and  C_2
REMARK    2  A    between atoms: C_2  and  C_3
REMARK    3  A    between atoms: C_4  and  C_5
REMARK    4  A    between atoms: C_5  and  C_6
REMARK    5  A    between atoms: C_7  and  C_8
REMARK    6  A    between atoms: C_8  and  C_9
REMARK    7  A    between atoms: C_10  and  C_11
REMARK    8  A    between atoms: C_11  and  C_12
REMARK    9  A    between atoms: C_12  and  C_13
REMARK   10  A    between atoms: C_13  and  C_14
REMARK   11  A    between atoms: C_14  and  C_15
REMARK   12  A    between atoms: C_15  and  C_16
REMARK   13  A    between atoms: C_16  and  C_17
REMARK   14  A    between atoms: C_17  and  C_18
REMARK   15  A    between atoms: C_18  and  O_19
REMARK                            x       y       z     vdW  Elec       q    Type
REMARK                         _______ _______ _______ _____ _____    ______ ____
ROOT
ATOM      1  C   UNL     1      -6.898  -2.461 128.620  0.00  0.00    +0.000 C 
ENDROOT
BRANCH   1   3
ATOM      2  C   UNL     1      -8.946  -3.777 128.115  0.00  0.00    +0.000 C 
ATOM      3  C   UNL     1      -8.152  -3.182 129.016  0.00  0.00    +0.000 C 
BRANCH   2   4
ATOM      4  C   UNL     1      -8.627  -3.756 126.653  0.00  0.00    +0.000 C 
BRANCH   4   6
ATOM      5  C   UNL     1      -9.100  -2.438 124.601  0.00  0.00    +0.000 C 
ATOM      6  C   UNL     1      -9.354  -2.687 125.897  0.00  0.00    +0.000 C 
BRANCH   5   7
ATOM      7  C   UNL     1      -8.074  -3.215 123.834  0.00  0.00    +0.000 C 
BRANCH   7   9
ATOM      8  C   UNL     1      -5.760  -2.473 123.329  0.00  0.00    +0.000 C 
ATOM      9  C   UNL     1      -7.081  -2.355 123.117  0.00  0.00    +0.000 C 
BRANCH   8  11
ATOM     10  C   UNL     1      -4.352  -4.525 123.591  0.00  0.00    +0.000 C 
ATOM     11  C   UNL     1      -5.179  -3.469 124.295  0.00  0.00    +0.000 C 
ENDBRANCH   8  11
ENDBRANCH   7   9
ENDBRANCH   5   7
ENDBRANCH   4   6
ENDBRANCH   2   4
ENDBRANCH   1   3
BRANCH   1  12
ATOM     12  C   UNL     1      -6.991  -0.977 128.918  0.00  0.00    +0.000 C 
BRANCH  12  13
ATOM     13  C   UNL     1      -7.390  -0.226 127.656  0.00  0.00    +0.000 C 
BRANCH  13  14
ATOM     14  C   UNL     1      -6.423  -0.557 126.537  0.00  0.00    +0.000 C 
BRANCH  14  15
ATOM     15  C   UNL     1      -6.025   0.706 125.790  0.00  0.00    +0.000 C 
BRANCH  15  16
ATOM     16  C   UNL     1      -6.926   0.875 124.579  0.00  0.00    +0.000 C 
BRANCH  16  17
ATOM     17  C   UNL     1      -7.061   2.331 124.174  0.00  0.00    +0.000 C 
BRANCH  17  18
ATOM     18  C   UNL     1      -8.307   3.025 124.675  0.00  0.00    +0.000 C 
ATOM     19  O   UNL     1      -9.273   2.394 125.089  0.00  0.00    +0.000 OA
BRANCH  18  20
ATOM     20  O   UNL     1      -8.318   4.372 124.650  0.00  0.00    +0.000 OA
ATOM     21  H   UNL     1      -7.761   4.842 125.296  0.00  0.00    +0.000 HD
ENDBRANCH  18  20
ENDBRANCH  17  18
ENDBRANCH  16  17
ENDBRANCH  15  16
ENDBRANCH  14  15
ENDBRANCH  13  14
ENDBRANCH  12  13
ENDBRANCH   1  12
TORSDOF 14
ENDMDL
MODEL 4
REMARK VINA RESULT:      -5.5      9.002     11.312
REMARK  Name = alpha-Linolenic acid
REMARK  15 active torsions:
REMARK  status: ('A' for Active; 'I' for Inactive)
REMARK    1  A    between atoms: C_1  and  C_2
REMARK    2  A    between atoms: C_2  and  C_3
REMARK    3  A    between atoms: C_4  and  C_5
REMARK    4  A    between atoms: C_5  and  C_6
REMARK    5  A    between atoms: C_7  and  C_8
REMARK    6  A    between atoms: C_8  and  C_9
REMARK    7  A    between atoms: C_10  and  C_11
REMARK    8  A    between atoms: C_11  and  C_12
REMARK    9  A    between atoms: C_12  and  C_13
REMARK   10  A    between atoms: C_13  and  C_14
REMARK   11  A    between atoms: C_14  and  C_15
REMARK   12  A    between atoms: C_15  and  C_16
REMARK   13  A    between atoms: C_16  and  C_17
REMARK   14  A    between atoms: C_17  and  C_18
REMARK   15  A    between atoms: C_18  and  O_19
REMARK                            x       y       z     vdW  Elec       q    Type
REMARK                         _______ _______ _______ _____ _____    ______ ____
ROOT
ATOM      1  C   UNL     1      -8.642  -3.656 125.048  0.00  0.00    +0.000 C 
ENDROOT
BRANCH   1   3
ATOM      2  C   UNL     1      -9.376  -2.626 122.907  0.00  0.00    +0.000 C 
ATOM      3  C   UNL     1      -9.547  -3.557 123.856  0.00  0.00    +0.000 C 
BRANCH   2   4
ATOM      4  C   UNL     1      -8.267  -1.624 122.983  0.00  0.00    +0.000 C 
BRANCH   4   6
ATOM      5  C   UNL     1      -7.619   0.144 124.602  0.00  0.00    +0.000 C 
ATOM      6  C   UNL     1      -8.572  -0.458 123.872  0.00  0.00    +0.000 C 
BRANCH   5   7
ATOM      7  C   UNL     1      -6.192  -0.312 124.570  0.00  0.00    +0.000 C 
BRANCH   7   9
ATOM      8  C   UNL     1      -5.337  -2.522 125.309  0.00  0.00    +0.000 C 
ATOM      9  C   UNL     1      -5.861  -1.325 125.621  0.00  0.00    +0.000 C 
BRANCH   8  11
ATOM     10  C   UNL     1      -4.611  -4.384 123.805  0.00  0.00    +0.000 C 
ATOM     11  C   UNL     1      -5.043  -2.935 123.893  0.00  0.00    +0.000 C 
ENDBRANCH   8  11
ENDBRANCH   7   9
ENDBRANCH   5   7
ENDBRANCH   4   6
ENDBRANCH   2   4
ENDBRANCH   1   3
BRANCH   1  12
ATOM     12  C   UNL     1      -9.275  -3.041 126.280  0.00  0.00    +0.000 C 
BRANCH  12  13
ATOM     13  C   UNL     1      -8.806  -3.785 127.522  0.00  0.00    +0.000 C 
BRANCH  13  14
ATOM     14  C   UNL     1      -7.736  -2.977 128.228  0.00  0.00    +0.000 C 
BRANCH  14  15
ATOM     15  C   UNL     1      -7.756  -3.264 129.722  0.00  0.00    +0.000 C 
BRANCH  15  16
ATOM     16  C   UNL     1      -6.331  -3.438 130.216  0.00  0.00    +0.000 C 
BRANCH  16  17
ATOM     17  C   UNL     1      -5.321  -3.276 129.096  0.00  0.00    +0.000 C 
BRANCH  17  18
ATOM     18  C   UNL     1      -4.286  -2.196 129.313  0.00  0.00    +0.000 C 
ATOM     19  O   UNL     1      -3.200  -2.439 129.827  0.00  0.00    +0.000 OA
BRANCH  18  20
ATOM     20  O   UNL     1      -4.602  -0.947 128.920  0.00  0.00    +0.000 OA
ATOM     21  H   UNL     1      -5.280  -0.848 128.228  0.00  0.00    +0.000 HD
ENDBRANCH  18  20
ENDBRANCH  17  18
ENDBRANCH  16  17
ENDBRANCH  15  16
ENDBRANCH  14  15
ENDBRANCH  13  14
ENDBRANCH  12  13
ENDBRANCH   1  12
TORSDOF 14
ENDMDL
MODEL 5
REMARK VINA RESULT:      -5.5      8.604     11.699
REMARK  Name = alpha-Linolenic acid
REMARK  15 active torsions:
REMARK  status: ('A' for Active; 'I' for Inactive)
REMARK    1  A    between atoms: C_1  and  C_2
REMARK    2  A    between atoms: C_2  and  C_3
REMARK    3  A    between atoms: C_4  and  C_5
REMARK    4  A    between atoms: C_5  and  C_6
REMARK    5  A    between atoms: C_7  and  C_8
REMARK    6  A    between atoms: C_8  and  C_9
REMARK    7  A    between atoms: C_10  and  C_11
REMARK    8  A    between atoms: C_11  and  C_12
REMARK    9  A    between atoms: C_12  and  C_13
REMARK   10  A    between atoms: C_13  and  C_14
REMARK   11  A    between atoms: C_14  and  C_15
REMARK   12  A    between atoms: C_15  and  C_16
REMARK   13  A    between atoms: C_16  and  C_17
REMARK   14  A    between atoms: C_17  and  C_18
REMARK   15  A    between atoms: C_18  and  O_19
REMARK                            x       y       z     vdW  Elec       q    Type
REMARK                         _______ _______ _______ _____ _____    ______ ____
ROOT
ATOM      1  C   UNL     1      -7.908  -1.836 128.154  0.00  0.00    +0.000 C 
ENDROOT
BRANCH   1   3
ATOM      2  C   UNL     1      -8.912  -3.651 126.783  0.00  0.00    +0.000 C 
ATOM      3  C   UNL     1      -8.244  -3.272 127.881  0.00  0.00    +0.000 C 
BRANCH   2   4
ATOM      4  C   UNL     1      -9.365  -2.657 125.759  0.00  0.00    +0.000 C 
BRANCH   4   6
ATOM      5  C   UNL     1      -8.581  -2.826 123.408  0.00  0.00    +0.000 C 
ATOM      6  C   UNL     1      -9.433  -3.216 124.371  0.00  0.00    +0.000 C 
BRANCH   5   7
ATOM      7  C   UNL     1      -7.510  -1.810 123.664  0.00  0.00    +0.000 C 
BRANCH   7   9
ATOM      8  C   UNL     1      -5.317  -2.593 122.806  0.00  0.00    +0.000 C 
ATOM      9  C   UNL     1      -6.409  -1.828 122.651  0.00  0.00    +0.000 C 
BRANCH   8  11
ATOM     10  C   UNL     1      -4.363  -4.751 123.640  0.00  0.00    +0.000 C 
ATOM     11  C   UNL     1      -5.115  -3.486 124.000  0.00  0.00    +0.000 C 
ENDBRANCH   8  11
ENDBRANCH   7   9
ENDBRANCH   5   7
ENDBRANCH   4   6
ENDBRANCH   2   4
ENDBRANCH   1   3
BRANCH   1  12
ATOM     12  C   UNL     1      -7.699  -1.585 129.635  0.00  0.00    +0.000 C 
BRANCH  12  13
ATOM     13  C   UNL     1      -7.865  -2.886 130.404  0.00  0.00    +0.000 C 
BRANCH  13  14
ATOM     14  C   UNL     1      -6.596  -3.189 131.177  0.00  0.00    +0.000 C 
BRANCH  14  15
ATOM     15  C   UNL     1      -6.011  -4.520 130.732  0.00  0.00    +0.000 C 
BRANCH  15  16
ATOM     16  C   UNL     1      -4.543  -4.331 130.394  0.00  0.00    +0.000 C 
BRANCH  16  17
ATOM     17  C   UNL     1      -4.338  -3.241 129.359  0.00  0.00    +0.000 C 
BRANCH  17  18
ATOM     18  C   UNL     1      -3.569  -2.033 129.841  0.00  0.00    +0.000 C 
ATOM     19  O   UNL     1      -2.627  -2.137 130.619  0.00  0.00    +0.000 OA
BRANCH  18  20
ATOM     20  O   UNL     1      -3.959  -0.827 129.383  0.00  0.00    +0.000 OA
ATOM     21  H   UNL     1      -4.651  -0.805 128.698  0.00  0.00    +0.000 HD
ENDBRANCH  18  20
ENDBRANCH  17  18
ENDBRANCH  16  17
ENDBRANCH  15  16
ENDBRANCH  14  15
ENDBRANCH  13  14
ENDBRANCH  12  13
ENDBRANCH   1  12
TORSDOF 14
ENDMDL
MODEL 6
REMARK VINA RESULT:      -5.4      7.553      9.441
REMARK  Name = alpha-Linolenic acid
REMARK  15 active torsions:
REMARK  status: ('A' for Active; 'I' for Inactive)
REMARK    1  A    between atoms: C_1  and  C_2
REMARK    2  A    between atoms: C_2  and  C_3
REMARK    3  A    between atoms: C_4  and  C_5
REMARK    4  A    between atoms: C_5  and  C_6
REMARK    5  A    between atoms: C_7  and  C_8
REMARK    6  A    between atoms: C_8  and  C_9
REMARK    7  A    between atoms: C_10  and  C_11
REMARK    8  A    between atoms: C_11  and  C_12
REMARK    9  A    between atoms: C_12  and  C_13
REMARK   10  A    between atoms: C_13  and  C_14
REMARK   11  A    between atoms: C_14  and  C_15
REMARK   12  A    between atoms: C_15  and  C_16
REMARK   13  A    between atoms: C_16  and  C_17
REMARK   14  A    between atoms: C_17  and  C_18
REMARK   15  A    between atoms: C_18  and  O_19
REMARK                            x       y       z     vdW  Elec       q    Type
REMARK                         _______ _______ _______ _____ _____    ______ ____
ROOT
ATOM      1  C   UNL     1      -5.342  -2.174 126.014  0.00  0.00    +0.000 C 
ENDROOT
BRANCH   1   3
ATOM      2  C   UNL     1      -6.372  -2.530 123.779  0.00  0.00    +0.000 C 
ATOM      3  C   UNL     1      -5.516  -1.856 124.559  0.00  0.00    +0.000 C 
BRANCH   2   4
ATOM      4  C   UNL     1      -7.210  -3.647 124.318  0.00  0.00    +0.000 C 
BRANCH   4   6
ATOM      5  C   UNL     1      -9.432  -2.990 125.213  0.00  0.00    +0.000 C 
ATOM      6  C   UNL     1      -8.683  -3.412 124.181  0.00  0.00    +0.000 C 
BRANCH   5   7
ATOM      7  C   UNL     1      -8.839  -2.728 126.565  0.00  0.00    +0.000 C 
BRANCH   7   9
ATOM      8  C   UNL     1      -8.609  -3.768 128.806  0.00  0.00    +0.000 C 
ATOM      9  C   UNL     1      -9.062  -3.837 127.544  0.00  0.00    +0.000 C 
BRANCH   8  11
ATOM     10  C   UNL     1      -6.541  -2.989 129.980  0.00  0.00    +0.000 C 
ATOM     11  C   UNL     1      -7.848  -2.581 129.331  0.00  0.00    +0.000 C 
ENDBRANCH   8  11
ENDBRANCH   7   9
ENDBRANCH   5   7
ENDBRANCH   4   6
ENDBRANCH   2   4
ENDBRANCH   1   3
BRANCH   1  12
ATOM     12  C   UNL     1      -5.535  -0.946 126.880  0.00  0.00    +0.000 C 
BRANCH  12  13
ATOM     13  C   UNL     1      -5.254   0.306 126.064  0.00  0.00    +0.000 C 
BRANCH  13  14
ATOM     14  C   UNL     1      -6.215   1.407 126.466  0.00  0.00    +0.000 C 
BRANCH  14  15
ATOM     15  C   UNL     1      -7.188   1.700 125.335  0.00  0.00    +0.000 C 
BRANCH  15  16
ATOM     16  C   UNL     1      -8.252   0.617 125.298  0.00  0.00    +0.000 C 
BRANCH  16  17
ATOM     17  C   UNL     1      -8.783   0.396 123.894  0.00  0.00    +0.000 C 
BRANCH  17  18
ATOM     18  C   UNL     1      -9.749   1.448 123.399  0.00  0.00    +0.000 C 
ATOM     19  O   UNL     1      -9.420   2.280 122.561  0.00  0.00    +0.000 OA
BRANCH  18  20
ATOM     20  O   UNL     1     -10.993   1.439 123.914  0.00  0.00    +0.000 OA
ATOM     21  H   UNL     1     -11.082   1.450 124.885  0.00  0.00    +0.000 HD
ENDBRANCH  18  20
ENDBRANCH  17  18
ENDBRANCH  16  17
ENDBRANCH  15  16
ENDBRANCH  14  15
ENDBRANCH  13  14
ENDBRANCH  12  13
ENDBRANCH   1  12
TORSDOF 14
ENDMDL
MODEL 7
REMARK VINA RESULT:      -5.3      8.794     11.493
REMARK  Name = alpha-Linolenic acid
REMARK  15 active torsions:
REMARK  status: ('A' for Active; 'I' for Inactive)
REMARK    1  A    between atoms: C_1  and  C_2
REMARK    2  A    between atoms: C_2  and  C_3
REMARK    3  A    between atoms: C_4  and  C_5
REMARK    4  A    between atoms: C_5  and  C_6
REMARK    5  A    between atoms: C_7  and  C_8
REMARK    6  A    between atoms: C_8  and  C_9
REMARK    7  A    between atoms: C_10  and  C_11
REMARK    8  A    between atoms: C_11  and  C_12
REMARK    9  A    between atoms: C_12  and  C_13
REMARK   10  A    between atoms: C_13  and  C_14
REMARK   11  A    between atoms: C_14  and  C_15
REMARK   12  A    between atoms: C_15  and  C_16
REMARK   13  A    between atoms: C_16  and  C_17
REMARK   14  A    between atoms: C_17  and  C_18
REMARK   15  A    between atoms: C_18  and  O_19
REMARK                            x       y       z     vdW  Elec       q    Type
REMARK                         _______ _______ _______ _____ _____    ______ ____
ROOT
ATOM      1  C   UNL     1      -6.587  -1.715 127.704  0.00  0.00    +0.000 C 
ENDROOT
BRANCH   1   3
ATOM      2  C   UNL     1      -8.515  -3.168 128.301  0.00  0.00    +0.000 C 
ATOM      3  C   UNL     1      -7.616  -2.240 128.660  0.00  0.00    +0.000 C 
BRANCH   2   4
ATOM      4  C   UNL     1      -8.544  -3.736 126.917  0.00  0.00    +0.000 C 
BRANCH   4   6
ATOM      5  C   UNL     1      -9.196  -2.884 124.677  0.00  0.00    +0.000 C 
ATOM      6  C   UNL     1      -9.463  -3.005 125.988  0.00  0.00    +0.000 C 
BRANCH   5   7
ATOM      7  C   UNL     1      -7.963  -3.473 124.064  0.00  0.00    +0.000 C 
BRANCH   7   9
ATOM      8  C   UNL     1      -5.640  -2.646 123.785  0.00  0.00    +0.000 C 
ATOM      9  C   UNL     1      -6.959  -2.452 123.630  0.00  0.00    +0.000 C 
BRANCH   8  11
ATOM     10  C   UNL     1      -4.171  -4.642 123.438  0.00  0.00    +0.000 C 
ATOM     11  C   UNL     1      -5.071  -3.895 124.401  0.00  0.00    +0.000 C 
ENDBRANCH   8  11
ENDBRANCH   7   9
ENDBRANCH   5   7
ENDBRANCH   4   6
ENDBRANCH   2   4
ENDBRANCH   1   3
BRANCH   1  12
ATOM     12  C   UNL     1      -5.280  -2.476 127.819  0.00  0.00    +0.000 C 
BRANCH  12  13
ATOM     13  C   UNL     1      -4.763  -2.393 129.247  0.00  0.00    +0.000 C 
BRANCH  13  14
ATOM     14  C   UNL     1      -4.329  -3.768 129.714  0.00  0.00    +0.000 C 
BRANCH  14  15
ATOM     15  C   UNL     1      -5.447  -4.439 130.496  0.00  0.00    +0.000 C 
BRANCH  15  16
ATOM     16  C   UNL     1      -5.575  -3.774 131.855  0.00  0.00    +0.000 C 
BRANCH  16  17
ATOM     17  C   UNL     1      -6.992  -3.303 132.122  0.00  0.00    +0.000 C 
BRANCH  17  18
ATOM     18  C   UNL     1      -7.117  -1.874 132.597  0.00  0.00    +0.000 C 
ATOM     19  O   UNL     1      -7.642  -1.595 133.669  0.00  0.00    +0.000 OA
BRANCH  18  20
ATOM     20  O   UNL     1      -6.628  -0.910 131.794  0.00  0.00    +0.000 OA
ATOM     21  H   UNL     1      -6.084  -1.185 131.034  0.00  0.00    +0.000 HD
ENDBRANCH  18  20
ENDBRANCH  17  18
ENDBRANCH  16  17
ENDBRANCH  15  16
ENDBRANCH  14  15
ENDBRANCH  13  14
ENDBRANCH  12  13
ENDBRANCH   1  12
TORSDOF 14
ENDMDL
MODEL 8
REMARK VINA RESULT:      -5.0      9.483     12.173
REMARK  Name = alpha-Linolenic acid
REMARK  15 active torsions:
REMARK  status: ('A' for Active; 'I' for Inactive)
REMARK    1  A    between atoms: C_1  and  C_2
REMARK    2  A    between atoms: C_2  and  C_3
REMARK    3  A    between atoms: C_4  and  C_5
REMARK    4  A    between atoms: C_5  and  C_6
REMARK    5  A    between atoms: C_7  and  C_8
REMARK    6  A    between atoms: C_8  and  C_9
REMARK    7  A    between atoms: C_10  and  C_11
REMARK    8  A    between atoms: C_11  and  C_12
REMARK    9  A    between atoms: C_12  and  C_13
REMARK   10  A    between atoms: C_13  and  C_14
REMARK   11  A    between atoms: C_14  and  C_15
REMARK   12  A    between atoms: C_15  and  C_16
REMARK   13  A    between atoms: C_16  and  C_17
REMARK   14  A    between atoms: C_17  and  C_18
REMARK   15  A    between atoms: C_18  and  O_19
REMARK                            x       y       z     vdW  Elec       q    Type
REMARK                         _______ _______ _______ _____ _____    ______ ____
ROOT
ATOM      1  C   UNL     1      -7.762  -2.478 129.374  0.00  0.00    +0.000 C 
ENDROOT
BRANCH   1   3
ATOM      2  C   UNL     1      -8.809  -3.740 127.505  0.00  0.00    +0.000 C 
ATOM      3  C   UNL     1      -8.638  -3.563 128.822  0.00  0.00    +0.000 C 
BRANCH   2   4
ATOM      4  C   UNL     1      -8.133  -2.859 126.501  0.00  0.00    +0.000 C 
BRANCH   4   6
ATOM      5  C   UNL     1      -9.003  -2.208 124.268  0.00  0.00    +0.000 C 
ATOM      6  C   UNL     1      -9.086  -2.129 125.606  0.00  0.00    +0.000 C 
BRANCH   5   7
ATOM      7  C   UNL     1      -7.952  -3.032 123.588  0.00  0.00    +0.000 C 
BRANCH   7   9
ATOM      8  C   UNL     1      -5.553  -2.460 123.316  0.00  0.00    +0.000 C 
ATOM      9  C   UNL     1      -6.837  -2.223 123.005  0.00  0.00    +0.000 C 
BRANCH   8  11
ATOM     10  C   UNL     1      -4.363  -4.647 123.566  0.00  0.00    +0.000 C 
ATOM     11  C   UNL     1      -5.136  -3.549 124.267  0.00  0.00    +0.000 C 
ENDBRANCH   8  11
ENDBRANCH   7   9
ENDBRANCH   5   7
ENDBRANCH   4   6
ENDBRANCH   2   4
ENDBRANCH   1   3
BRANCH   1  12
ATOM     12  C   UNL     1      -6.391  -3.006 129.751  0.00  0.00    +0.000 C 
BRANCH  12  13
ATOM     13  C   UNL     1      -6.465  -3.706 131.099  0.00  0.00    +0.000 C 
BRANCH  13  14
ATOM     14  C   UNL     1      -5.450  -4.830 131.149  0.00  0.00    +0.000 C 
BRANCH  14  15
ATOM     15  C   UNL     1      -5.249  -5.299 132.582  0.00  0.00    +0.000 C 
BRANCH  15  16
ATOM     16  C   UNL     1      -5.378  -4.111 133.518  0.00  0.00    +0.000 C 
BRANCH  16  17
ATOM     17  C   UNL     1      -6.339  -4.393 134.659  0.00  0.00    +0.000 C 
BRANCH  17  18
ATOM     18  C   UNL     1      -7.537  -3.475 134.732  0.00  0.00    +0.000 C 
ATOM     19  O   UNL     1      -8.545  -3.678 134.064  0.00  0.00    +0.000 OA
BRANCH  18  20
ATOM     20  O   UNL     1      -7.459  -2.418 135.563  0.00  0.00    +0.000 OA
ATOM     21  H   UNL     1      -6.630  -1.906 135.568  0.00  0.00    +0.000 HD
ENDBRANCH  18  20
ENDBRANCH  17  18
ENDBRANCH  16  17
ENDBRANCH  15  16
ENDBRANCH  14  15
ENDBRANCH  13  14
ENDBRANCH  12  13
ENDBRANCH   1  12
TORSDOF 14
ENDMDL
MODEL 9
REMARK VINA RESULT:      -5.0     10.148     12.652
REMARK  Name = alpha-Linolenic acid
REMARK  15 active torsions:
REMARK  status: ('A' for Active; 'I' for Inactive)
REMARK    1  A    between atoms: C_1  and  C_2
REMARK    2  A    between atoms: C_2  and  C_3
REMARK    3  A    between atoms: C_4  and  C_5
REMARK    4  A    between atoms: C_5  and  C_6
REMARK    5  A    between atoms: C_7  and  C_8
REMARK    6  A    between atoms: C_8  and  C_9
REMARK    7  A    between atoms: C_10  and  C_11
REMARK    8  A    between atoms: C_11  and  C_12
REMARK    9  A    between atoms: C_12  and  C_13
REMARK   10  A    between atoms: C_13  and  C_14
REMARK   11  A    between atoms: C_14  and  C_15
REMARK   12  A    between atoms: C_15  and  C_16
REMARK   13  A    between atoms: C_16  and  C_17
REMARK   14  A    between atoms: C_17  and  C_18
REMARK   15  A    between atoms: C_18  and  O_19
REMARK                            x       y       z     vdW  Elec       q    Type
REMARK                         _______ _______ _______ _____ _____    ______ ____
ROOT
ATOM      1  C   UNL     1      -7.332  -2.367 128.526  0.00  0.00    +0.000 C 
ENDROOT
BRANCH   1   3
ATOM      2  C   UNL     1      -9.034  -3.934 127.617  0.00  0.00    +0.000 C 
ATOM      3  C   UNL     1      -8.497  -3.300 128.668  0.00  0.00    +0.000 C 
BRANCH   2   4
ATOM      4  C   UNL     1      -8.501  -3.746 126.232  0.00  0.00    +0.000 C 
BRANCH   4   6
ATOM      5  C   UNL     1      -8.738  -1.889 124.600  0.00  0.00    +0.000 C 
ATOM      6  C   UNL     1      -9.313  -2.803 125.399  0.00  0.00    +0.000 C 
BRANCH   5   7
ATOM      7  C   UNL     1      -7.250  -1.758 124.491  0.00  0.00    +0.000 C 
BRANCH   7   9
ATOM      8  C   UNL     1      -5.607  -2.601 122.833  0.00  0.00    +0.000 C 
ATOM      9  C   UNL     1      -6.732  -1.917 123.096  0.00  0.00    +0.000 C 
BRANCH   8  11
ATOM     10  C   UNL     1      -4.406  -4.677 123.547  0.00  0.00    +0.000 C 
ATOM     11  C   UNL     1      -4.785  -3.256 123.909  0.00  0.00    +0.000 C 
ENDBRANCH   8  11
ENDBRANCH   7   9
ENDBRANCH   5   7
ENDBRANCH   4   6
ENDBRANCH   2   4
ENDBRANCH   1   3
BRANCH   1  12
ATOM     12  C   UNL     1      -6.097  -2.907 129.222  0.00  0.00    +0.000 C 
BRANCH  12  13
ATOM     13  C   UNL     1      -6.499  -3.993 130.208  0.00  0.00    +0.000 C 
BRANCH  13  14
ATOM     14  C   UNL     1      -5.259  -4.626 130.806  0.00  0.00    +0.000 C 
BRANCH  14  15
ATOM     15  C   UNL     1      -4.069  -3.688 130.672  0.00  0.00    +0.000 C 
BRANCH  15  16
ATOM     16  C   UNL     1      -3.714  -3.133 132.040  0.00  0.00    +0.000 C 
BRANCH  16  17
ATOM     17  C   UNL     1      -4.024  -4.121 133.148  0.00  0.00    +0.000 C 
BRANCH  17  18
ATOM     18  C   UNL     1      -2.846  -4.510 134.011  0.00  0.00    +0.000 C 
ATOM     19  O   UNL     1      -2.727  -4.100 135.161  0.00  0.00    +0.000 OA
BRANCH  18  20
ATOM     20  O   UNL     1      -1.924  -5.329 133.469  0.00  0.00    +0.000 OA
ATOM     21  H   UNL     1      -1.394  -4.986 132.728  0.00  0.00    +0.000 HD
ENDBRANCH  18  20
ENDBRANCH  17  18
ENDBRANCH  16  17
ENDBRANCH  15  16
ENDBRANCH  14  15
ENDBRANCH  13  14
ENDBRANCH  12  13
ENDBRANCH   1  12
TORSDOF 14
ENDMDL
