MODEL 1
REMARK VINA RESULT:      -9.1      0.000      0.000
REMARK  Name = Alprazolam
REMARK  2 active torsions:
REMARK  status: ('A' for Active; 'I' for Inactive)
REMARK    1  A    between atoms: C_1  and  C_2
REMARK    2  A    between atoms: C_8  and  C_9
REMARK                            x       y       z     vdW  Elec       q    Type
REMARK                         _______ _______ _______ _____ _____    ______ ____
ROOT
ATOM      1  C   UNL     1      -6.441  -2.264 123.907  0.00  0.00    +0.000 C 
ATOM      2  C   UNL     1      -7.702  -1.517 123.667  0.00  0.00    +0.000 A 
ATOM      3  N   UNL     1      -8.802  -2.049 123.173  0.00  0.00    +0.000 NA
ATOM      4  N   UNL     1      -9.706  -1.045 122.953  0.00  0.00    +0.000 NA
ATOM      5  C   UNL     1      -9.143   0.092 123.302  0.00  0.00    +0.000 A 
ATOM      6  C   UNL     1      -9.754   1.443 123.284  0.00  0.00    +0.000 C 
ATOM      7  N   UNL     1      -8.996   2.337 122.418  0.00  0.00    +0.000 NA
ATOM      8  C   UNL     1      -7.766   2.619 122.695  0.00  0.00    +0.000 C 
ATOM      9  C   UNL     1      -6.999   2.148 123.896  0.00  0.00    +0.000 A 
ATOM     10  C   UNL     1      -7.016   0.821 124.360  0.00  0.00    +0.000 A 
ATOM     11  C   UNL     1      -6.191   0.455 125.436  0.00  0.00    +0.000 A 
ATOM     12  C   UNL     1      -5.337   1.380 126.033  0.00  0.00    +0.000 A 
ATOM     13  C   UNL     1      -5.324   2.691 125.580  0.00  0.00    +0.000 A 
ATOM     14 CL   UNL     1      -4.294   3.837 126.341  0.00  0.00    +0.000 Cl
ATOM     15  C   UNL     1      -6.148   3.079 124.525  0.00  0.00    +0.000 A 
ATOM     16  N   UNL     1      -7.880  -0.148 123.797  0.00  0.00    +0.000 N 
ENDROOT
BRANCH   8  17
ATOM     17  C   UNL     1      -7.036   3.492 121.739  0.00  0.00    +0.000 A 
ATOM     18  C   UNL     1      -7.647   3.854 120.534  0.00  0.00    +0.000 A 
ATOM     19  C   UNL     1      -6.893   4.484 119.546  0.00  0.00    +0.000 A 
ATOM     20  C   UNL     1      -5.567   4.832 119.800  0.00  0.00    +0.000 A 
ATOM     21  C   UNL     1      -4.997   4.572 121.049  0.00  0.00    +0.000 A 
ATOM     22  C   UNL     1      -5.720   3.870 122.013  0.00  0.00    +0.000 A 
ENDBRANCH   8  17
TORSDOF 1
ENDMDL
MODEL 2
REMARK VINA RESULT:      -8.4      3.623      7.042
REMARK  Name = Alprazolam
REMARK  2 active torsions:
REMARK  status: ('A' for Active; 'I' for Inactive)
REMARK    1  A    between atoms: C_1  and  C_2
REMARK    2  A    between atoms: C_8  and  C_9
REMARK                            x       y       z     vdW  Elec       q    Type
REMARK                         _______ _______ _______ _____ _____    ______ ____
ROOT
ATOM      1  C   UNL     1      -7.002   1.530 123.220  0.00  0.00    +0.000 C 
ATOM      2  C   UNL     1      -8.114   0.807 123.886  0.00  0.00    +0.000 A 
ATOM      3  N   UNL     1      -9.280   1.345 124.187  0.00  0.00    +0.000 NA
ATOM      4  N   UNL     1      -9.997   0.437 124.919  0.00  0.00    +0.000 NA
ATOM      5  C   UNL     1      -9.256  -0.640 125.070  0.00  0.00    +0.000 A 
ATOM      6  C   UNL     1      -9.631  -1.902 125.751  0.00  0.00    +0.000 C 
ATOM      7  N   UNL     1      -8.718  -2.181 126.852  0.00  0.00    +0.000 NA
ATOM      8  C   UNL     1      -7.464  -2.381 126.619  0.00  0.00    +0.000 C 
ATOM      9  C   UNL     1      -6.807  -2.411 125.269  0.00  0.00    +0.000 A 
ATOM     10  C   UNL     1      -7.056  -1.464 124.261  0.00  0.00    +0.000 A 
ATOM     11  C   UNL     1      -6.324  -1.521 123.064  0.00  0.00    +0.000 A 
ATOM     12  C   UNL     1      -5.337  -2.485 122.872  0.00  0.00    +0.000 A 
ATOM     13  C   UNL     1      -5.095  -3.424 123.863  0.00  0.00    +0.000 A 
ATOM     14 CL   UNL     1      -3.900  -4.633 123.609  0.00  0.00    +0.000 Cl
ATOM     15  C   UNL     1      -5.823  -3.396 125.051  0.00  0.00    +0.000 A 
ATOM     16  N   UNL     1      -8.061  -0.478 124.405  0.00  0.00    +0.000 N 
ENDROOT
BRANCH   8  17
ATOM     17  C   UNL     1      -6.580  -2.603 127.795  0.00  0.00    +0.000 A 
ATOM     18  C   UNL     1      -5.260  -2.144 127.759  0.00  0.00    +0.000 A 
ATOM     19  C   UNL     1      -4.370  -2.539 128.756  0.00  0.00    +0.000 A 
ATOM     20  C   UNL     1      -4.825  -3.306 129.829  0.00  0.00    +0.000 A 
ATOM     21  C   UNL     1      -6.173  -3.664 129.918  0.00  0.00    +0.000 A 
ATOM     22  C   UNL     1      -7.050  -3.342 128.883  0.00  0.00    +0.000 A 
ENDBRANCH   8  17
TORSDOF 1
ENDMDL
MODEL 3
REMARK VINA RESULT:      -8.4      2.675      6.263
REMARK  Name = Alprazolam
REMARK  2 active torsions:
REMARK  status: ('A' for Active; 'I' for Inactive)
REMARK    1  A    between atoms: C_1  and  C_2
REMARK    2  A    between atoms: C_8  and  C_9
REMARK                            x       y       z     vdW  Elec       q    Type
REMARK                         _______ _______ _______ _____ _____    ______ ____
ROOT
ATOM      1  C   UNL     1      -9.909   1.563 123.901  0.00  0.00    +0.000 C 
ATOM      2  C   UNL     1      -9.287   0.274 123.506  0.00  0.00    +0.000 A 
ATOM      3  N   UNL     1      -9.863  -0.629 122.738  0.00  0.00    +0.000 NA
ATOM      4  N   UNL     1      -9.066  -1.742 122.708  0.00  0.00    +0.000 NA
ATOM      5  C   UNL     1      -8.019  -1.512 123.471  0.00  0.00    +0.000 A 
ATOM      6  C   UNL     1      -6.863  -2.409 123.707  0.00  0.00    +0.000 C 
ATOM      7  N   UNL     1      -6.737  -2.720 125.125  0.00  0.00    +0.000 NA
ATOM      8  C   UNL     1      -6.504  -1.777 125.976  0.00  0.00    +0.000 C 
ATOM      9  C   UNL     1      -6.287  -0.327 125.655  0.00  0.00    +0.000 A 
ATOM     10  C   UNL     1      -7.087   0.400 124.756  0.00  0.00    +0.000 A 
ATOM     11  C   UNL     1      -6.864   1.776 124.590  0.00  0.00    +0.000 A 
ATOM     12  C   UNL     1      -5.881   2.437 125.323  0.00  0.00    +0.000 A 
ATOM     13  C   UNL     1      -5.087   1.720 126.206  0.00  0.00    +0.000 A 
ATOM     14 CL   UNL     1      -3.852   2.532 127.083  0.00  0.00    +0.000 Cl
ATOM     15  C   UNL     1      -5.279   0.350 126.371  0.00  0.00    +0.000 A 
ATOM     16  N   UNL     1      -8.085  -0.233 123.977  0.00  0.00    +0.000 N 
ENDROOT
BRANCH   8  17
ATOM     17  C   UNL     1      -6.443  -2.157 127.413  0.00  0.00    +0.000 A 
ATOM     18  C   UNL     1      -5.213  -2.497 127.983  0.00  0.00    +0.000 A 
ATOM     19  C   UNL     1      -5.180  -3.061 129.257  0.00  0.00    +0.000 A 
ATOM     20  C   UNL     1      -6.360  -3.194 129.988  0.00  0.00    +0.000 A 
ATOM     21  C   UNL     1      -7.572  -2.744 129.458  0.00  0.00    +0.000 A 
ATOM     22  C   UNL     1      -7.624  -2.254 128.154  0.00  0.00    +0.000 A 
ENDBRANCH   8  17
TORSDOF 1
ENDMDL
MODEL 4
REMARK VINA RESULT:      -8.3      2.808      5.367
REMARK  Name = Alprazolam
REMARK  2 active torsions:
REMARK  status: ('A' for Active; 'I' for Inactive)
REMARK    1  A    between atoms: C_1  and  C_2
REMARK    2  A    between atoms: C_8  and  C_9
REMARK                            x       y       z     vdW  Elec       q    Type
REMARK                         _______ _______ _______ _____ _____    ______ ____
ROOT
ATOM      1  C   UNL     1      -3.116   3.370 126.249  0.00  0.00    +0.000 C 
ATOM      2  C   UNL     1      -4.484   3.208 126.802  0.00  0.00    +0.000 A 
ATOM      3  N   UNL     1      -4.758   3.050 128.081  0.00  0.00    +0.000 NA
ATOM      4  N   UNL     1      -6.096   2.785 128.206  0.00  0.00    +0.000 NA
ATOM      5  C   UNL     1      -6.621   2.770 127.000  0.00  0.00    +0.000 A 
ATOM      6  C   UNL     1      -8.046   2.571 126.640  0.00  0.00    +0.000 C 
ATOM      7  N   UNL     1      -8.199   1.408 125.775  0.00  0.00    +0.000 NA
ATOM      8  C   UNL     1      -7.639   1.389 124.612  0.00  0.00    +0.000 C 
ATOM      9  C   UNL     1      -6.847   2.504 123.991  0.00  0.00    +0.000 A 
ATOM     10  C   UNL     1      -5.867   3.240 124.679  0.00  0.00    +0.000 A 
ATOM     11  C   UNL     1      -5.113   4.201 123.987  0.00  0.00    +0.000 A 
ATOM     12  C   UNL     1      -5.302   4.417 122.624  0.00  0.00    +0.000 A 
ATOM     13  C   UNL     1      -6.273   3.696 121.945  0.00  0.00    +0.000 A 
ATOM     14 CL   UNL     1      -6.528   3.988 120.271  0.00  0.00    +0.000 Cl
ATOM     15  C   UNL     1      -7.045   2.750 122.617  0.00  0.00    +0.000 A 
ATOM     16  N   UNL     1      -5.653   3.067 126.068  0.00  0.00    +0.000 N 
ENDROOT
BRANCH   8  17
ATOM     17  C   UNL     1      -7.789   0.149 123.805  0.00  0.00    +0.000 A 
ATOM     18  C   UNL     1      -9.065  -0.261 123.404  0.00  0.00    +0.000 A 
ATOM     19  C   UNL     1      -9.233  -1.525 122.843  0.00  0.00    +0.000 A 
ATOM     20  C   UNL     1      -8.122  -2.330 122.598  0.00  0.00    +0.000 A 
ATOM     21  C   UNL     1      -6.837  -1.867 122.894  0.00  0.00    +0.000 A 
ATOM     22  C   UNL     1      -6.668  -0.638 123.529  0.00  0.00    +0.000 A 
ENDBRANCH   8  17
TORSDOF 1
ENDMDL
MODEL 5
REMARK VINA RESULT:      -8.3      8.639      9.600
REMARK  Name = Alprazolam
REMARK  2 active torsions:
REMARK  status: ('A' for Active; 'I' for Inactive)
REMARK    1  A    between atoms: C_1  and  C_2
REMARK    2  A    between atoms: C_8  and  C_9
REMARK                            x       y       z     vdW  Elec       q    Type
REMARK                         _______ _______ _______ _____ _____    ______ ____
ROOT
ATOM      1  C   UNL     1      -9.906   2.005 131.783  0.00  0.00    +0.000 C 
ATOM      2  C   UNL     1     -10.107   3.348 131.183  0.00  0.00    +0.000 A 
ATOM      3  N   UNL     1     -10.920   3.603 130.178  0.00  0.00    +0.000 NA
ATOM      4  N   UNL     1     -10.740   4.905 129.795  0.00  0.00    +0.000 NA
ATOM      5  C   UNL     1      -9.807   5.428 130.562  0.00  0.00    +0.000 A 
ATOM      6  C   UNL     1      -9.309   6.824 130.550  0.00  0.00    +0.000 C 
ATOM      7  N   UNL     1      -7.878   6.856 130.276  0.00  0.00    +0.000 NA
ATOM      8  C   UNL     1      -7.050   6.299 131.096  0.00  0.00    +0.000 C 
ATOM      9  C   UNL     1      -7.402   5.629 132.392  0.00  0.00    +0.000 A 
ATOM     10  C   UNL     1      -8.473   4.730 132.539  0.00  0.00    +0.000 A 
ATOM     11  C   UNL     1      -8.667   4.081 133.769  0.00  0.00    +0.000 A 
ATOM     12  C   UNL     1      -7.799   4.294 134.838  0.00  0.00    +0.000 A 
ATOM     13  C   UNL     1      -6.745   5.186 134.696  0.00  0.00    +0.000 A 
ATOM     14 CL   UNL     1      -5.696   5.472 136.026  0.00  0.00    +0.000 Cl
ATOM     15  C   UNL     1      -6.545   5.853 133.489  0.00  0.00    +0.000 A 
ATOM     16  N   UNL     1      -9.391   4.496 131.487  0.00  0.00    +0.000 N 
ENDROOT
BRANCH   8  17
ATOM     17  C   UNL     1      -5.609   6.320 130.726  0.00  0.00    +0.000 A 
ATOM     18  C   UNL     1      -4.940   5.113 130.499  0.00  0.00    +0.000 A 
ATOM     19  C   UNL     1      -3.553   5.113 130.370  0.00  0.00    +0.000 A 
ATOM     20  C   UNL     1      -2.855   6.320 130.374  0.00  0.00    +0.000 A 
ATOM     21  C   UNL     1      -3.542   7.532 130.486  0.00  0.00    +0.000 A 
ATOM     22  C   UNL     1      -4.921   7.534 130.696  0.00  0.00    +0.000 A 
ENDBRANCH   8  17
TORSDOF 1
ENDMDL
MODEL 6
REMARK VINA RESULT:      -7.9      5.096      6.874
REMARK  Name = Alprazolam
REMARK  2 active torsions:
REMARK  status: ('A' for Active; 'I' for Inactive)
REMARK    1  A    between atoms: C_1  and  C_2
REMARK    2  A    between atoms: C_8  and  C_9
REMARK                            x       y       z     vdW  Elec       q    Type
REMARK                         _______ _______ _______ _____ _____    ______ ____
ROOT
ATOM      1  C   UNL     1      -3.266  -2.516 129.627  0.00  0.00    +0.000 C 
ATOM      2  C   UNL     1      -4.616  -3.079 129.879  0.00  0.00    +0.000 A 
ATOM      3  N   UNL     1      -4.850  -4.176 130.572  0.00  0.00    +0.000 NA
ATOM      4  N   UNL     1      -6.183  -4.473 130.474  0.00  0.00    +0.000 NA
ATOM      5  C   UNL     1      -6.747  -3.562 129.710  0.00  0.00    +0.000 A 
ATOM      6  C   UNL     1      -8.182  -3.444 129.358  0.00  0.00    +0.000 C 
ATOM      7  N   UNL     1      -8.363  -3.514 127.914  0.00  0.00    +0.000 NA
ATOM      8  C   UNL     1      -7.841  -2.612 127.152  0.00  0.00    +0.000 C 
ATOM      9  C   UNL     1      -7.068  -1.407 127.605  0.00  0.00    +0.000 A 
ATOM     10  C   UNL     1      -6.066  -1.450 128.590  0.00  0.00    +0.000 A 
ATOM     11  C   UNL     1      -5.334  -0.288 128.881  0.00  0.00    +0.000 A 
ATOM     12  C   UNL     1      -5.566   0.899 128.190  0.00  0.00    +0.000 A 
ATOM     13  C   UNL     1      -6.559   0.944 127.222  0.00  0.00    +0.000 A 
ATOM     14 CL   UNL     1      -6.867   2.419 126.396  0.00  0.00    +0.000 Cl
ATOM     15  C   UNL     1      -7.310  -0.193 126.931  0.00  0.00    +0.000 A 
ATOM     16  N   UNL     1      -5.808  -2.629 129.330  0.00  0.00    +0.000 N 
ENDROOT
BRANCH   8  17
ATOM     17  C   UNL     1      -8.018  -2.776 125.684  0.00  0.00    +0.000 A 
ATOM     18  C   UNL     1      -6.924  -2.584 124.834  0.00  0.00    +0.000 A 
ATOM     19  C   UNL     1      -7.130  -2.520 123.457  0.00  0.00    +0.000 A 
ATOM     20  C   UNL     1      -8.403  -2.741 122.934  0.00  0.00    +0.000 A 
ATOM     21  C   UNL     1      -9.471  -3.047 123.783  0.00  0.00    +0.000 A 
ATOM     22  C   UNL     1      -9.289  -3.033 125.165  0.00  0.00    +0.000 A 
ENDBRANCH   8  17
TORSDOF 1
ENDMDL
MODEL 7
REMARK VINA RESULT:      -7.7      7.188      9.729
REMARK  Name = Alprazolam
REMARK  2 active torsions:
REMARK  status: ('A' for Active; 'I' for Inactive)
REMARK    1  A    between atoms: C_1  and  C_2
REMARK    2  A    between atoms: C_8  and  C_9
REMARK                            x       y       z     vdW  Elec       q    Type
REMARK                         _______ _______ _______ _____ _____    ______ ____
ROOT
ATOM      1  C   UNL     1      -2.965  -0.435 132.881  0.00  0.00    +0.000 C 
ATOM      2  C   UNL     1      -3.425  -1.846 132.839  0.00  0.00    +0.000 A 
ATOM      3  N   UNL     1      -2.641  -2.892 133.008  0.00  0.00    +0.000 NA
ATOM      4  N   UNL     1      -3.371  -4.023 132.758  0.00  0.00    +0.000 NA
ATOM      5  C   UNL     1      -4.590  -3.654 132.425  0.00  0.00    +0.000 A 
ATOM      6  C   UNL     1      -5.743  -4.533 132.114  0.00  0.00    +0.000 C 
ATOM      7  N   UNL     1      -6.233  -4.275 130.766  0.00  0.00    +0.000 NA
ATOM      8  C   UNL     1      -6.710  -3.114 130.461  0.00  0.00    +0.000 C 
ATOM      9  C   UNL     1      -6.872  -1.950 131.394  0.00  0.00    +0.000 A 
ATOM     10  C   UNL     1      -5.881  -1.535 132.301  0.00  0.00    +0.000 A 
ATOM     11  C   UNL     1      -6.088  -0.377 133.068  0.00  0.00    +0.000 A 
ATOM     12  C   UNL     1      -7.249   0.381 132.925  0.00  0.00    +0.000 A 
ATOM     13  C   UNL     1      -8.230  -0.032 132.035  0.00  0.00    +0.000 A 
ATOM     14 CL   UNL     1      -9.675   0.887 131.885  0.00  0.00    +0.000 Cl
ATOM     15  C   UNL     1      -8.052  -1.188 131.277  0.00  0.00    +0.000 A 
ATOM     16  N   UNL     1      -4.695  -2.283 132.493  0.00  0.00    +0.000 N 
ENDROOT
BRANCH   8  17
ATOM     17  C   UNL     1      -7.140  -2.904 129.053  0.00  0.00    +0.000 A 
ATOM     18  C   UNL     1      -8.362  -3.431 128.621  0.00  0.00    +0.000 A 
ATOM     19  C   UNL     1      -8.667  -3.428 127.262  0.00  0.00    +0.000 A 
ATOM     20  C   UNL     1      -7.800  -2.818 126.356  0.00  0.00    +0.000 A 
ATOM     21  C   UNL     1      -6.636  -2.191 126.809  0.00  0.00    +0.000 A 
ATOM     22  C   UNL     1      -6.285  -2.260 128.156  0.00  0.00    +0.000 A 
ENDBRANCH   8  17
TORSDOF 1
ENDMDL
MODEL 8
REMARK VINA RESULT:      -7.5      4.087      7.333
REMARK  Name = Alprazolam
REMARK  2 active torsions:
REMARK  status: ('A' for Active; 'I' for Inactive)
REMARK    1  A    between atoms: C_1  and  C_2
REMARK    2  A    between atoms: C_8  and  C_9
REMARK                            x       y       z     vdW  Elec       q    Type
REMARK                         _______ _______ _______ _____ _____    ______ ____
ROOT
ATOM      1  C   UNL     1      -6.147   3.010 124.290  0.00  0.00    +0.000 C 
ATOM      2  C   UNL     1      -6.855   3.094 125.593  0.00  0.00    +0.000 A 
ATOM      3  N   UNL     1      -6.799   4.129 126.407  0.00  0.00    +0.000 NA
ATOM      4  N   UNL     1      -7.446   3.800 127.568  0.00  0.00    +0.000 NA
ATOM      5  C   UNL     1      -7.877   2.562 127.456  0.00  0.00    +0.000 A 
ATOM      6  C   UNL     1      -8.672   1.793 128.442  0.00  0.00    +0.000 C 
ATOM      7  N   UNL     1      -7.960   0.586 128.845  0.00  0.00    +0.000 NA
ATOM      8  C   UNL     1      -7.687  -0.326 127.973  0.00  0.00    +0.000 C 
ATOM      9  C   UNL     1      -8.081  -0.313 126.524  0.00  0.00    +0.000 A 
ATOM     10  C   UNL     1      -7.952   0.813 125.692  0.00  0.00    +0.000 A 
ATOM     11  C   UNL     1      -8.260   0.702 124.327  0.00  0.00    +0.000 A 
ATOM     12  C   UNL     1      -8.665  -0.513 123.779  0.00  0.00    +0.000 A 
ATOM     13  C   UNL     1      -8.799  -1.624 124.600  0.00  0.00    +0.000 A 
ATOM     14 CL   UNL     1      -9.331  -3.113 123.928  0.00  0.00    +0.000 Cl
ATOM     15  C   UNL     1      -8.516  -1.530 125.961  0.00  0.00    +0.000 A 
ATOM     16  N   UNL     1      -7.562   2.072 126.208  0.00  0.00    +0.000 N 
ENDROOT
BRANCH   8  17
ATOM     17  C   UNL     1      -6.910  -1.504 128.441  0.00  0.00    +0.000 A 
ATOM     18  C   UNL     1      -7.510  -2.424 129.306  0.00  0.00    +0.000 A 
ATOM     19  C   UNL     1      -6.727  -3.401 129.918  0.00  0.00    +0.000 A 
ATOM     20  C   UNL     1      -5.376  -3.514 129.591  0.00  0.00    +0.000 A 
ATOM     21  C   UNL     1      -4.809  -2.664 128.637  0.00  0.00    +0.000 A 
ATOM     22  C   UNL     1      -5.566  -1.634 128.082  0.00  0.00    +0.000 A 
ENDBRANCH   8  17
TORSDOF 1
ENDMDL
MODEL 9
REMARK VINA RESULT:      -7.4      8.157     10.351
REMARK  Name = Alprazolam
REMARK  2 active torsions:
REMARK  status: ('A' for Active; 'I' for Inactive)
REMARK    1  A    between atoms: C_1  and  C_2
REMARK    2  A    between atoms: C_8  and  C_9
REMARK                            x       y       z     vdW  Elec       q    Type
REMARK                         _______ _______ _______ _____ _____    ______ ____
ROOT
ATOM      1  C   UNL     1      -2.229   6.872 128.104  0.00  0.00    +0.000 C 
ATOM      2  C   UNL     1      -2.623   5.499 128.510  0.00  0.00    +0.000 A 
ATOM      3  N   UNL     1      -2.700   4.471 127.689  0.00  0.00    +0.000 NA
ATOM      4  N   UNL     1      -3.232   3.411 128.374  0.00  0.00    +0.000 NA
ATOM      5  C   UNL     1      -3.489   3.808 129.602  0.00  0.00    +0.000 A 
ATOM      6  C   UNL     1      -4.027   2.994 130.718  0.00  0.00    +0.000 C 
ATOM      7  N   UNL     1      -5.281   3.557 131.204  0.00  0.00    +0.000 NA
ATOM      8  C   UNL     1      -5.302   4.740 131.720  0.00  0.00    +0.000 C 
ATOM      9  C   UNL     1      -4.115   5.634 131.936  0.00  0.00    +0.000 A 
ATOM     10  C   UNL     1      -3.116   5.848 130.970  0.00  0.00    +0.000 A 
ATOM     11  C   UNL     1      -2.094   6.776 131.229  0.00  0.00    +0.000 A 
ATOM     12  C   UNL     1      -2.070   7.506 132.415  0.00  0.00    +0.000 A 
ATOM     13  C   UNL     1      -3.051   7.291 133.371  0.00  0.00    +0.000 A 
ATOM     14 CL   UNL     1      -3.000   8.168 134.848  0.00  0.00    +0.000 Cl
ATOM     15  C   UNL     1      -4.065   6.362 133.142  0.00  0.00    +0.000 A 
ATOM     16  N   UNL     1      -3.090   5.117 129.759  0.00  0.00    +0.000 N 
ENDROOT
BRANCH   8  17
ATOM     17  C   UNL     1      -6.624   5.274 132.144  0.00  0.00    +0.000 A 
ATOM     18  C   UNL     1      -7.206   4.808 133.327  0.00  0.00    +0.000 A 
ATOM     19  C   UNL     1      -8.530   5.135 133.614  0.00  0.00    +0.000 A 
ATOM     20  C   UNL     1      -9.230   5.999 132.773  0.00  0.00    +0.000 A 
ATOM     21  C   UNL     1      -8.604   6.554 131.653  0.00  0.00    +0.000 A 
ATOM     22  C   UNL     1      -7.308   6.167 131.316  0.00  0.00    +0.000 A 
ENDBRANCH   8  17
TORSDOF 1
ENDMDL
