MODEL 1
REMARK VINA RESULT:      -4.9      0.000      0.000
REMARK  Name = Altretamine
REMARK  6 active torsions:
REMARK  status: ('A' for Active; 'I' for Inactive)
REMARK    1  A    between atoms: C_1  and  N_2
REMARK    2  A    between atoms: N_2  and  C_3
REMARK    3  A    between atoms: N_10  and  C_11
REMARK    4  A    between atoms: N_10  and  C_12
REMARK    5  A    between atoms: N_13  and  C_14
REMARK    6  A    between atoms: N_13  and  C_15
REMARK                            x       y       z     vdW  Elec       q    Type
REMARK                         _______ _______ _______ _____ _____    ______ ____
ROOT
ATOM      1  C   UNL     1      -4.735   1.937 126.625  0.00  0.00    +0.000 C 
ATOM      2  N   UNL     1      -5.207   3.116 125.938  0.00  0.00    +0.000 N 
ATOM      3  C   UNL     1      -4.604   4.406 126.187  0.00  0.00    +0.000 C 
ATOM      4  C   UNL     1      -6.020   2.952 124.833  0.00  0.00    +0.000 A 
ATOM      5  N   UNL     1      -7.080   2.154 124.933  0.00  0.00    +0.000 NA
ATOM      6  C   UNL     1      -7.885   2.080 123.878  0.00  0.00    +0.000 A 
ATOM      7  N   UNL     1      -7.605   2.689 122.728  0.00  0.00    +0.000 NA
ATOM      8  C   UNL     1      -6.497   3.417 122.667  0.00  0.00    +0.000 A 
ATOM      9  N   UNL     1      -5.715   3.609 123.721  0.00  0.00    +0.000 NA
ATOM     10  N   UNL     1      -6.147   3.999 121.464  0.00  0.00    +0.000 N 
ATOM     11  C   UNL     1      -6.969   3.837 120.282  0.00  0.00    +0.000 C 
ATOM     12  C   UNL     1      -4.888   4.704 121.327  0.00  0.00    +0.000 C 
ATOM     13  N   UNL     1      -9.053   1.346 123.961  0.00  0.00    +0.000 N 
ATOM     14  C   UNL     1      -9.939   1.208 122.820  0.00  0.00    +0.000 C 
ATOM     15  C   UNL     1      -9.408   0.642 125.176  0.00  0.00    +0.000 C 
ENDROOT
TORSDOF 0
ENDMDL
MODEL 2
REMARK VINA RESULT:      -4.8      1.110      4.751
REMARK  Name = Altretamine
REMARK  6 active torsions:
REMARK  status: ('A' for Active; 'I' for Inactive)
REMARK    1  A    between atoms: C_1  and  N_2
REMARK    2  A    between atoms: N_2  and  C_3
REMARK    3  A    between atoms: N_10  and  C_11
REMARK    4  A    between atoms: N_10  and  C_12
REMARK    5  A    between atoms: N_13  and  C_14
REMARK    6  A    between atoms: N_13  and  C_15
REMARK                            x       y       z     vdW  Elec       q    Type
REMARK                         _______ _______ _______ _____ _____    ______ ____
ROOT
ATOM      1  C   UNL     1      -5.177   3.671 120.961  0.00  0.00    +0.000 C 
ATOM      2  N   UNL     1      -6.588   3.810 121.237  0.00  0.00    +0.000 N 
ATOM      3  C   UNL     1      -7.529   4.050 120.167  0.00  0.00    +0.000 C 
ATOM      4  C   UNL     1      -7.057   3.413 122.474  0.00  0.00    +0.000 A 
ATOM      5  N   UNL     1      -6.438   3.857 123.565  0.00  0.00    +0.000 NA
ATOM      6  C   UNL     1      -6.963   3.520 124.739  0.00  0.00    +0.000 A 
ATOM      7  N   UNL     1      -8.000   2.692 124.842  0.00  0.00    +0.000 NA
ATOM      8  C   UNL     1      -8.533   2.227 123.719  0.00  0.00    +0.000 A 
ATOM      9  N   UNL     1      -8.116   2.613 122.521  0.00  0.00    +0.000 NA
ATOM     10  N   UNL     1      -9.564   1.310 123.801  0.00  0.00    +0.000 N 
ATOM     11  C   UNL     1     -10.073   0.861 125.081  0.00  0.00    +0.000 C 
ATOM     12  C   UNL     1     -10.094   0.692 122.602  0.00  0.00    +0.000 C 
ATOM     13  N   UNL     1      -6.421   4.036 125.901  0.00  0.00    +0.000 N 
ATOM     14  C   UNL     1      -6.940   3.662 127.205  0.00  0.00    +0.000 C 
ATOM     15  C   UNL     1      -5.279   4.926 125.863  0.00  0.00    +0.000 C 
ENDROOT
TORSDOF 0
ENDMDL
MODEL 3
REMARK VINA RESULT:      -4.8      0.217      3.880
REMARK  Name = Altretamine
REMARK  6 active torsions:
REMARK  status: ('A' for Active; 'I' for Inactive)
REMARK    1  A    between atoms: C_1  and  N_2
REMARK    2  A    between atoms: N_2  and  C_3
REMARK    3  A    between atoms: N_10  and  C_11
REMARK    4  A    between atoms: N_10  and  C_12
REMARK    5  A    between atoms: N_13  and  C_14
REMARK    6  A    between atoms: N_13  and  C_15
REMARK                            x       y       z     vdW  Elec       q    Type
REMARK                         _______ _______ _______ _____ _____    ______ ____
ROOT
ATOM      1  C   UNL     1      -4.812   4.564 126.326  0.00  0.00    +0.000 C 
ATOM      2  N   UNL     1      -5.184   3.232 125.908  0.00  0.00    +0.000 N 
ATOM      3  C   UNL     1      -5.005   2.104 126.794  0.00  0.00    +0.000 C 
ATOM      4  C   UNL     1      -5.982   3.094 124.789  0.00  0.00    +0.000 A 
ATOM      5  N   UNL     1      -5.634   3.729 123.674  0.00  0.00    +0.000 NA
ATOM      6  C   UNL     1      -6.379   3.512 122.595  0.00  0.00    +0.000 A 
ATOM      7  N   UNL     1      -7.487   2.776 122.633  0.00  0.00    +0.000 NA
ATOM      8  C   UNL     1      -7.821   2.222 123.792  0.00  0.00    +0.000 A 
ATOM      9  N   UNL     1      -7.058   2.320 124.873  0.00  0.00    +0.000 NA
ATOM     10  N   UNL     1      -9.005   1.513 123.876  0.00  0.00    +0.000 N 
ATOM     11  C   UNL     1      -9.873   1.359 122.727  0.00  0.00    +0.000 C 
ATOM     12  C   UNL     1      -9.461   0.993 125.150  0.00  0.00    +0.000 C 
ATOM     13  N   UNL     1      -6.005   4.066 121.385  0.00  0.00    +0.000 N 
ATOM     14  C   UNL     1      -6.812   3.885 120.192  0.00  0.00    +0.000 C 
ATOM     15  C   UNL     1      -4.822   4.895 121.276  0.00  0.00    +0.000 C 
ENDROOT
TORSDOF 0
ENDMDL
MODEL 4
REMARK VINA RESULT:      -4.8      1.174      3.903
REMARK  Name = Altretamine
REMARK  6 active torsions:
REMARK  status: ('A' for Active; 'I' for Inactive)
REMARK    1  A    between atoms: C_1  and  N_2
REMARK    2  A    between atoms: N_2  and  C_3
REMARK    3  A    between atoms: N_10  and  C_11
REMARK    4  A    between atoms: N_10  and  C_12
REMARK    5  A    between atoms: N_13  and  C_14
REMARK    6  A    between atoms: N_13  and  C_15
REMARK                            x       y       z     vdW  Elec       q    Type
REMARK                         _______ _______ _______ _____ _____    ______ ____
ROOT
ATOM      1  C   UNL     1      -7.458   4.091 120.117  0.00  0.00    +0.000 C 
ATOM      2  N   UNL     1      -6.549   3.629 121.140  0.00  0.00    +0.000 N 
ATOM      3  C   UNL     1      -5.122   3.799 120.990  0.00  0.00    +0.000 C 
ATOM      4  C   UNL     1      -7.066   3.306 122.380  0.00  0.00    +0.000 A 
ATOM      5  N   UNL     1      -8.112   2.489 122.443  0.00  0.00    +0.000 NA
ATOM      6  C   UNL     1      -8.535   2.136 123.653  0.00  0.00    +0.000 A 
ATOM      7  N   UNL     1      -8.011   2.648 124.765  0.00  0.00    +0.000 NA
ATOM      8  C   UNL     1      -7.013   3.512 124.637  0.00  0.00    +0.000 A 
ATOM      9  N   UNL     1      -6.485   3.818 123.459  0.00  0.00    +0.000 NA
ATOM     10  N   UNL     1      -6.501   4.113 125.771  0.00  0.00    +0.000 N 
ATOM     11  C   UNL     1      -7.026   3.808 127.086  0.00  0.00    +0.000 C 
ATOM     12  C   UNL     1      -5.490   5.147 125.663  0.00  0.00    +0.000 C 
ATOM     13  N   UNL     1      -9.553   1.210 123.777  0.00  0.00    +0.000 N 
ATOM     14  C   UNL     1     -10.069   0.827 125.079  0.00  0.00    +0.000 C 
ATOM     15  C   UNL     1     -10.181   0.628 122.609  0.00  0.00    +0.000 C 
ENDROOT
TORSDOF 0
ENDMDL
MODEL 5
REMARK VINA RESULT:      -4.6      1.479      4.085
REMARK  Name = Altretamine
REMARK  6 active torsions:
REMARK  status: ('A' for Active; 'I' for Inactive)
REMARK    1  A    between atoms: C_1  and  N_2
REMARK    2  A    between atoms: N_2  and  C_3
REMARK    3  A    between atoms: N_10  and  C_11
REMARK    4  A    between atoms: N_10  and  C_12
REMARK    5  A    between atoms: N_13  and  C_14
REMARK    6  A    between atoms: N_13  and  C_15
REMARK                            x       y       z     vdW  Elec       q    Type
REMARK                         _______ _______ _______ _____ _____    ______ ____
ROOT
ATOM      1  C   UNL     1      -8.605   3.527 121.319  0.00  0.00    +0.000 C 
ATOM      2  N   UNL     1      -7.258   3.259 121.767  0.00  0.00    +0.000 N 
ATOM      3  C   UNL     1      -6.137   3.975 121.203  0.00  0.00    +0.000 C 
ATOM      4  C   UNL     1      -7.085   2.543 122.936  0.00  0.00    +0.000 A 
ATOM      5  N   UNL     1      -7.741   1.397 123.086  0.00  0.00    +0.000 NA
ATOM      6  C   UNL     1      -7.491   0.694 124.187  0.00  0.00    +0.000 A 
ATOM      7  N   UNL     1      -6.700   1.150 125.155  0.00  0.00    +0.000 NA
ATOM      8  C   UNL     1      -6.126   2.334 124.979  0.00  0.00    +0.000 A 
ATOM      9  N   UNL     1      -6.258   3.027 123.856  0.00  0.00    +0.000 NA
ATOM     10  N   UNL     1      -5.359   2.862 126.000  0.00  0.00    +0.000 N 
ATOM     11  C   UNL     1      -5.166   2.146 127.244  0.00  0.00    +0.000 C 
ATOM     12  C   UNL     1      -4.811   4.199 125.891  0.00  0.00    +0.000 C 
ATOM     13  N   UNL     1      -8.068  -0.551 124.348  0.00  0.00    +0.000 N 
ATOM     14  C   UNL     1      -7.852  -1.332 125.552  0.00  0.00    +0.000 C 
ATOM     15  C   UNL     1      -8.955  -1.099 123.342  0.00  0.00    +0.000 C 
ENDROOT
TORSDOF 0
ENDMDL
MODEL 6
REMARK VINA RESULT:      -4.6      3.008      6.186
REMARK  Name = Altretamine
REMARK  6 active torsions:
REMARK  status: ('A' for Active; 'I' for Inactive)
REMARK    1  A    between atoms: C_1  and  N_2
REMARK    2  A    between atoms: N_2  and  C_3
REMARK    3  A    between atoms: N_10  and  C_11
REMARK    4  A    between atoms: N_10  and  C_12
REMARK    5  A    between atoms: N_13  and  C_14
REMARK    6  A    between atoms: N_13  and  C_15
REMARK                            x       y       z     vdW  Elec       q    Type
REMARK                         _______ _______ _______ _____ _____    ______ ____
ROOT
ATOM      1  C   UNL     1      -8.208   2.327 122.994  0.00  0.00    +0.000 C 
ATOM      2  N   UNL     1      -9.210   1.395 123.456  0.00  0.00    +0.000 N 
ATOM      3  C   UNL     1     -10.282   0.975 122.583  0.00  0.00    +0.000 C 
ATOM      4  C   UNL     1      -8.965   0.687 124.616  0.00  0.00    +0.000 A 
ATOM      5  N   UNL     1      -8.576   1.352 125.700  0.00  0.00    +0.000 NA
ATOM      6  C   UNL     1      -8.426   0.652 126.820  0.00  0.00    +0.000 A 
ATOM      7  N   UNL     1      -8.553  -0.672 126.851  0.00  0.00    +0.000 NA
ATOM      8  C   UNL     1      -8.876  -1.289 125.721  0.00  0.00    +0.000 A 
ATOM      9  N   UNL     1      -9.140  -0.629 124.602  0.00  0.00    +0.000 NA
ATOM     10  N   UNL     1      -8.943  -2.670 125.711  0.00  0.00    +0.000 N 
ATOM     11  C   UNL     1      -8.680  -3.445 126.905  0.00  0.00    +0.000 C 
ATOM     12  C   UNL     1      -9.178  -3.385 124.472  0.00  0.00    +0.000 C 
ATOM     13  N   UNL     1      -8.122   1.306 127.998  0.00  0.00    +0.000 N 
ATOM     14  C   UNL     1      -7.911   0.575 129.234  0.00  0.00    +0.000 C 
ATOM     15  C   UNL     1      -7.949   2.744 128.032  0.00  0.00    +0.000 C 
ENDROOT
TORSDOF 0
ENDMDL
MODEL 7
REMARK VINA RESULT:      -4.5      3.360      5.878
REMARK  Name = Altretamine
REMARK  6 active torsions:
REMARK  status: ('A' for Active; 'I' for Inactive)
REMARK    1  A    between atoms: C_1  and  N_2
REMARK    2  A    between atoms: N_2  and  C_3
REMARK    3  A    between atoms: N_10  and  C_11
REMARK    4  A    between atoms: N_10  and  C_12
REMARK    5  A    between atoms: N_13  and  C_14
REMARK    6  A    between atoms: N_13  and  C_15
REMARK                            x       y       z     vdW  Elec       q    Type
REMARK                         _______ _______ _______ _____ _____    ______ ____
ROOT
ATOM      1  C   UNL     1      -8.165  -4.045 124.965  0.00  0.00    +0.000 C 
ATOM      2  N   UNL     1      -8.710  -3.206 126.007  0.00  0.00    +0.000 N 
ATOM      3  C   UNL     1      -9.048  -3.759 127.298  0.00  0.00    +0.000 C 
ATOM      4  C   UNL     1      -8.621  -1.835 125.861  0.00  0.00    +0.000 A 
ATOM      5  N   UNL     1      -9.025  -1.287 124.719  0.00  0.00    +0.000 NA
ATOM      6  C   UNL     1      -9.000   0.040 124.640  0.00  0.00    +0.000 A 
ATOM      7  N   UNL     1      -8.500   0.799 125.613  0.00  0.00    +0.000 NA
ATOM      8  C   UNL     1      -8.048   0.190 126.702  0.00  0.00    +0.000 A 
ATOM      9  N   UNL     1      -8.146  -1.121 126.875  0.00  0.00    +0.000 NA
ATOM     10  N   UNL     1      -7.458   0.950 127.694  0.00  0.00    +0.000 N 
ATOM     11  C   UNL     1      -7.335   2.387 127.569  0.00  0.00    +0.000 C 
ATOM     12  C   UNL     1      -6.849   0.311 128.844  0.00  0.00    +0.000 C 
ATOM     13  N   UNL     1      -9.503   0.667 123.516  0.00  0.00    +0.000 N 
ATOM     14  C   UNL     1      -9.458   2.111 123.375  0.00  0.00    +0.000 C 
ATOM     15  C   UNL     1     -10.044  -0.099 122.412  0.00  0.00    +0.000 C 
ENDROOT
TORSDOF 0
ENDMDL
MODEL 8
REMARK VINA RESULT:      -4.5      6.791      8.840
REMARK  Name = Altretamine
REMARK  6 active torsions:
REMARK  status: ('A' for Active; 'I' for Inactive)
REMARK    1  A    between atoms: C_1  and  N_2
REMARK    2  A    between atoms: N_2  and  C_3
REMARK    3  A    between atoms: N_10  and  C_11
REMARK    4  A    between atoms: N_10  and  C_12
REMARK    5  A    between atoms: N_13  and  C_14
REMARK    6  A    between atoms: N_13  and  C_15
REMARK                            x       y       z     vdW  Elec       q    Type
REMARK                         _______ _______ _______ _____ _____    ______ ____
ROOT
ATOM      1  C   UNL     1      -7.892   3.323 127.570  0.00  0.00    +0.000 C 
ATOM      2  N   UNL     1      -8.364   2.579 128.715  0.00  0.00    +0.000 N 
ATOM      3  C   UNL     1      -8.097   1.164 128.836  0.00  0.00    +0.000 C 
ATOM      4  C   UNL     1      -8.799   3.283 129.821  0.00  0.00    +0.000 A 
ATOM      5  N   UNL     1      -9.682   4.262 129.648  0.00  0.00    +0.000 NA
ATOM      6  C   UNL     1     -10.139   4.866 130.741  0.00  0.00    +0.000 A 
ATOM      7  N   UNL     1      -9.671   4.587 131.955  0.00  0.00    +0.000 NA
ATOM      8  C   UNL     1      -8.740   3.646 132.057  0.00  0.00    +0.000 A 
ATOM      9  N   UNL     1      -8.325   2.941 131.014  0.00  0.00    +0.000 NA
ATOM     10  N   UNL     1      -8.186   3.389 133.297  0.00  0.00    +0.000 N 
ATOM     11  C   UNL     1      -8.608   4.116 134.476  0.00  0.00    +0.000 C 
ATOM     12  C   UNL     1      -7.087   2.453 133.430  0.00  0.00    +0.000 C 
ATOM     13  N   UNL     1     -11.132   5.821 130.628  0.00  0.00    +0.000 N 
ATOM     14  C   UNL     1     -11.631   6.531 131.791  0.00  0.00    +0.000 C 
ATOM     15  C   UNL     1     -11.673   6.188 129.335  0.00  0.00    +0.000 C 
ENDROOT
TORSDOF 0
ENDMDL
MODEL 9
REMARK VINA RESULT:      -4.5      6.031      7.931
REMARK  Name = Altretamine
REMARK  6 active torsions:
REMARK  status: ('A' for Active; 'I' for Inactive)
REMARK    1  A    between atoms: C_1  and  N_2
REMARK    2  A    between atoms: N_2  and  C_3
REMARK    3  A    between atoms: N_10  and  C_11
REMARK    4  A    between atoms: N_10  and  C_12
REMARK    5  A    between atoms: N_13  and  C_14
REMARK    6  A    between atoms: N_13  and  C_15
REMARK                            x       y       z     vdW  Elec       q    Type
REMARK                         _______ _______ _______ _____ _____    ______ ____
ROOT
ATOM      1  C   UNL     1      -6.828   4.136 126.677  0.00  0.00    +0.000 C 
ATOM      2  N   UNL     1      -7.594   3.553 127.754  0.00  0.00    +0.000 N 
ATOM      3  C   UNL     1      -7.450   2.155 128.089  0.00  0.00    +0.000 C 
ATOM      4  C   UNL     1      -8.226   4.401 128.643  0.00  0.00    +0.000 A 
ATOM      5  N   UNL     1      -8.984   5.382 128.161  0.00  0.00    +0.000 NA
ATOM      6  C   UNL     1      -9.641   6.129 129.043  0.00  0.00    +0.000 A 
ATOM      7  N   UNL     1      -9.481   5.984 130.356  0.00  0.00    +0.000 NA
ATOM      8  C   UNL     1      -8.658   5.031 130.777  0.00  0.00    +0.000 A 
ATOM      9  N   UNL     1      -8.060   4.190 129.944  0.00  0.00    +0.000 NA
ATOM     10  N   UNL     1      -8.419   4.907 132.132  0.00  0.00    +0.000 N 
ATOM     11  C   UNL     1      -9.055   5.786 133.092  0.00  0.00    +0.000 C 
ATOM     12  C   UNL     1      -7.440   3.957 132.622  0.00  0.00    +0.000 C 
ATOM     13  N   UNL     1     -10.520   7.097 128.596  0.00  0.00    +0.000 N 
ATOM     14  C   UNL     1     -11.228   7.960 129.524  0.00  0.00    +0.000 C 
ATOM     15  C   UNL     1     -10.727   7.322 127.180  0.00  0.00    +0.000 C 
ENDROOT
TORSDOF 0
ENDMDL
