MODEL 1
REMARK VINA RESULT:      -9.0      0.000      0.000
REMARK  Name = Alvimopan
REMARK  12 active torsions:
REMARK  status: ('A' for Active; 'I' for Inactive)
REMARK    1  A    between atoms: C_1  and  C_2
REMARK    2  A    between atoms: N_4  and  C_5
REMARK    3  A    between atoms: C_5  and  C_6
REMARK    4  A    between atoms: C_6  and  C_7
REMARK    5  A    between atoms: C_6  and  C_14
REMARK    6  A    between atoms: C_7  and  C_8
REMARK    7  A    between atoms: N_16  and  C_17
REMARK    8  A    between atoms: C_17  and  C_18
REMARK    9  A    between atoms: C_18  and  O_19
REMARK   10  A    between atoms: C_23  and  C_24
REMARK   11  A    between atoms: C_23  and  C_25
REMARK   12  A    between atoms: C_27  and  O_28
REMARK                            x       y       z     vdW  Elec       q    Type
REMARK                         _______ _______ _______ _____ _____    ______ ____
ROOT
ATOM      1  C   UNL     1      -9.051   1.587 125.038  0.00  0.00    +0.000 C 
ENDROOT
BRANCH   1   5
ATOM      2  C   UNL     1      -9.102  -3.229 123.647  0.00  0.00    +0.000 C 
ATOM      3  C   UNL     1      -8.223  -2.002 123.900  0.00  0.00    +0.000 C 
ATOM      4  C   UNL     1      -9.094  -0.832 124.385  0.00  0.00    +0.000 C 
ATOM      5  N   UNL     1      -8.303   0.378 124.721  0.00  0.00    +0.000 NA
ATOM      6  C   UNL     1      -7.030   0.270 125.443  0.00  0.00    +0.000 C 
ATOM      7  C   UNL     1      -6.210  -0.937 125.008  0.00  0.00    +0.000 C 
ATOM      8  C   UNL     1      -7.047  -2.234 124.870  0.00  0.00    +0.000 C 
ATOM      9  C   UNL     1      -6.085  -3.278 124.239  0.00  0.00    +0.000 C 
BRANCH   8  10
ATOM     10  C   UNL     1      -7.590  -2.634 126.255  0.00  0.00    +0.000 A 
ATOM     11  C   UNL     1      -7.078  -2.110 127.466  0.00  0.00    +0.000 A 
ATOM     12  C   UNL     1      -7.463  -2.532 128.714  0.00  0.00    +0.000 A 
ATOM     13  C   UNL     1      -8.478  -3.446 128.803  0.00  0.00    +0.000 A 
ATOM     14  C   UNL     1      -9.049  -3.958 127.635  0.00  0.00    +0.000 A 
ATOM     15  C   UNL     1      -8.612  -3.560 126.374  0.00  0.00    +0.000 A 
BRANCH  12  16
ATOM     16  O   UNL     1      -6.821  -2.065 129.819  0.00  0.00    +0.000 OA
ATOM     17  H   UNL     1      -7.468  -1.615 130.393  0.00  0.00    +0.000 HD
ENDBRANCH  12  16
ENDBRANCH   8  10
ENDBRANCH   1   5
BRANCH   1  18
ATOM     18  C   UNL     1      -8.724   2.768 124.094  0.00  0.00    +0.000 C 
BRANCH  18  19
ATOM     19  C   UNL     1      -8.058   3.877 124.911  0.00  0.00    +0.000 C 
ATOM     20  O   UNL     1      -8.685   4.768 125.482  0.00  0.00    +0.000 OA
ATOM     21  N   UNL     1      -6.678   3.763 125.009  0.00  0.00    +0.000 N 
ATOM     22  H   UNL     1      -6.248   2.951 124.598  0.00  0.00    +0.000 HD
BRANCH  21  23
ATOM     23  C   UNL     1      -5.908   4.733 125.782  0.00  0.00    +0.000 C 
BRANCH  23  24
ATOM     24  C   UNL     1      -4.576   4.296 126.391  0.00  0.00    +0.000 C 
ATOM     25  O   UNL     1      -3.873   5.060 127.060  0.00  0.00    +0.000 OA
BRANCH  24  26
ATOM     26  O   UNL     1      -4.180   3.029 126.171  0.00  0.00    +0.000 OA
ATOM     27  H   UNL     1      -4.499   2.340 126.774  0.00  0.00    +0.000 HD
ENDBRANCH  24  26
ENDBRANCH  23  24
ENDBRANCH  21  23
ENDBRANCH  18  19
BRANCH  18  28
ATOM     28  C   UNL     1      -7.873   2.351 122.850  0.00  0.00    +0.000 C 
BRANCH  28  29
ATOM     29  C   UNL     1      -7.735   3.264 121.636  0.00  0.00    +0.000 A 
ATOM     30  C   UNL     1      -8.796   3.660 120.851  0.00  0.00    +0.000 A 
ATOM     31  C   UNL     1      -8.722   4.101 119.538  0.00  0.00    +0.000 A 
ATOM     32  C   UNL     1      -7.506   4.504 119.079  0.00  0.00    +0.000 A 
ATOM     33  C   UNL     1      -6.420   4.402 119.944  0.00  0.00    +0.000 A 
ATOM     34  C   UNL     1      -6.521   3.756 121.197  0.00  0.00    +0.000 A 
ENDBRANCH  28  29
ENDBRANCH  18  28
ENDBRANCH   1  18
TORSDOF 10
ENDMDL
MODEL 2
REMARK VINA RESULT:      -8.4      2.639      4.917
REMARK  Name = Alvimopan
REMARK  12 active torsions:
REMARK  status: ('A' for Active; 'I' for Inactive)
REMARK    1  A    between atoms: C_1  and  C_2
REMARK    2  A    between atoms: N_4  and  C_5
REMARK    3  A    between atoms: C_5  and  C_6
REMARK    4  A    between atoms: C_6  and  C_7
REMARK    5  A    between atoms: C_6  and  C_14
REMARK    6  A    between atoms: C_7  and  C_8
REMARK    7  A    between atoms: N_16  and  C_17
REMARK    8  A    between atoms: C_17  and  C_18
REMARK    9  A    between atoms: C_18  and  O_19
REMARK   10  A    between atoms: C_23  and  C_24
REMARK   11  A    between atoms: C_23  and  C_25
REMARK   12  A    between atoms: C_27  and  O_28
REMARK                            x       y       z     vdW  Elec       q    Type
REMARK                         _______ _______ _______ _____ _____    ______ ____
ROOT
ATOM      1  C   UNL     1      -8.706   2.863 125.037  0.00  0.00    +0.000 C 
ENDROOT
BRANCH   1   5
ATOM      2  C   UNL     1      -3.851   2.547 126.246  0.00  0.00    +0.000 C 
ATOM      3  C   UNL     1      -5.275   2.699 126.787  0.00  0.00    +0.000 C 
ATOM      4  C   UNL     1      -6.278   2.663 125.623  0.00  0.00    +0.000 C 
ATOM      5  N   UNL     1      -7.690   2.733 126.073  0.00  0.00    +0.000 NA
ATOM      6  C   UNL     1      -8.145   1.982 127.249  0.00  0.00    +0.000 C 
ATOM      7  C   UNL     1      -7.111   1.961 128.366  0.00  0.00    +0.000 C 
ATOM      8  C   UNL     1      -5.671   1.676 127.870  0.00  0.00    +0.000 C 
ATOM      9  C   UNL     1      -4.759   1.890 129.109  0.00  0.00    +0.000 C 
BRANCH   8  10
ATOM     10  C   UNL     1      -5.612   0.253 127.283  0.00  0.00    +0.000 A 
ATOM     11  C   UNL     1      -5.607  -0.010 125.892  0.00  0.00    +0.000 A 
ATOM     12  C   UNL     1      -5.669  -1.266 125.343  0.00  0.00    +0.000 A 
ATOM     13  C   UNL     1      -5.633  -2.343 126.186  0.00  0.00    +0.000 A 
ATOM     14  C   UNL     1      -5.590  -2.136 127.568  0.00  0.00    +0.000 A 
ATOM     15  C   UNL     1      -5.580  -0.855 128.113  0.00  0.00    +0.000 A 
BRANCH  12  16
ATOM     16  O   UNL     1      -5.793  -1.415 123.996  0.00  0.00    +0.000 OA
ATOM     17  H   UNL     1      -5.752  -2.364 123.779  0.00  0.00    +0.000 HD
ENDBRANCH  12  16
ENDBRANCH   8  10
ENDBRANCH   1   5
BRANCH   1  18
ATOM     18  C   UNL     1      -8.350   2.098 123.741  0.00  0.00    +0.000 C 
BRANCH  18  19
ATOM     19  C   UNL     1      -9.145   0.791 123.711  0.00  0.00    +0.000 C 
ATOM     20  O   UNL     1     -10.307   0.696 124.103  0.00  0.00    +0.000 OA
ATOM     21  N   UNL     1      -8.464  -0.278 123.146  0.00  0.00    +0.000 N 
ATOM     22  H   UNL     1      -7.554  -0.098 122.758  0.00  0.00    +0.000 HD
BRANCH  21  23
ATOM     23  C   UNL     1      -9.107  -1.584 123.023  0.00  0.00    +0.000 C 
BRANCH  23  24
ATOM     24  C   UNL     1      -8.994  -2.571 124.184  0.00  0.00    +0.000 C 
ATOM     25  O   UNL     1      -9.677  -2.468 125.207  0.00  0.00    +0.000 OA
BRANCH  24  26
ATOM     26  O   UNL     1      -8.108  -3.576 124.058  0.00  0.00    +0.000 OA
ATOM     27  H   UNL     1      -7.987  -4.174 124.810  0.00  0.00    +0.000 HD
ENDBRANCH  24  26
ENDBRANCH  23  24
ENDBRANCH  21  23
ENDBRANCH  18  19
BRANCH  18  28
ATOM     28  C   UNL     1      -8.553   2.947 122.443  0.00  0.00    +0.000 C 
BRANCH  28  29
ATOM     29  C   UNL     1      -7.368   3.444 121.622  0.00  0.00    +0.000 A 
ATOM     30  C   UNL     1      -6.078   3.512 122.101  0.00  0.00    +0.000 A 
ATOM     31  C   UNL     1      -5.064   4.322 121.611  0.00  0.00    +0.000 A 
ATOM     32  C   UNL     1      -5.225   4.841 120.363  0.00  0.00    +0.000 A 
ATOM     33  C   UNL     1      -6.412   4.559 119.690  0.00  0.00    +0.000 A 
ATOM     34  C   UNL     1      -7.490   3.900 120.323  0.00  0.00    +0.000 A 
ENDBRANCH  28  29
ENDBRANCH  18  28
ENDBRANCH   1  18
TORSDOF 10
ENDMDL
MODEL 3
REMARK VINA RESULT:      -8.4      7.085      9.771
REMARK  Name = Alvimopan
REMARK  12 active torsions:
REMARK  status: ('A' for Active; 'I' for Inactive)
REMARK    1  A    between atoms: C_1  and  C_2
REMARK    2  A    between atoms: N_4  and  C_5
REMARK    3  A    between atoms: C_5  and  C_6
REMARK    4  A    between atoms: C_6  and  C_7
REMARK    5  A    between atoms: C_6  and  C_14
REMARK    6  A    between atoms: C_7  and  C_8
REMARK    7  A    between atoms: N_16  and  C_17
REMARK    8  A    between atoms: C_17  and  C_18
REMARK    9  A    between atoms: C_18  and  O_19
REMARK   10  A    between atoms: C_23  and  C_24
REMARK   11  A    between atoms: C_23  and  C_25
REMARK   12  A    between atoms: C_27  and  O_28
REMARK                            x       y       z     vdW  Elec       q    Type
REMARK                         _______ _______ _______ _____ _____    ______ ____
ROOT
ATOM      1  C   UNL     1      -7.072   5.975 131.108  0.00  0.00    +0.000 C 
ENDROOT
BRANCH   1   5
ATOM      2  C   UNL     1      -3.316   3.985 128.451  0.00  0.00    +0.000 C 
ATOM      3  C   UNL     1      -4.063   5.274 128.803  0.00  0.00    +0.000 C 
ATOM      4  C   UNL     1      -5.174   4.967 129.819  0.00  0.00    +0.000 C 
ATOM      5  N   UNL     1      -5.901   6.181 130.266  0.00  0.00    +0.000 NA
ATOM      6  C   UNL     1      -5.182   7.426 130.558  0.00  0.00    +0.000 C 
ATOM      7  C   UNL     1      -4.034   7.680 129.590  0.00  0.00    +0.000 C 
ATOM      8  C   UNL     1      -3.171   6.423 129.312  0.00  0.00    +0.000 C 
ATOM      9  C   UNL     1      -2.199   6.836 128.173  0.00  0.00    +0.000 C 
BRANCH   8  10
ATOM     10  C   UNL     1      -2.469   5.995 130.615  0.00  0.00    +0.000 A 
ATOM     11  C   UNL     1      -1.516   6.803 131.281  0.00  0.00    +0.000 A 
ATOM     12  C   UNL     1      -0.794   6.402 132.376  0.00  0.00    +0.000 A 
ATOM     13  C   UNL     1      -1.077   5.181 132.926  0.00  0.00    +0.000 A 
ATOM     14  C   UNL     1      -2.044   4.365 132.333  0.00  0.00    +0.000 A 
ATOM     15  C   UNL     1      -2.733   4.764 131.190  0.00  0.00    +0.000 A 
BRANCH  12  16
ATOM     16  O   UNL     1       0.194   7.197 132.869  0.00  0.00    +0.000 OA
ATOM     17  H   UNL     1       1.031   6.972 132.423  0.00  0.00    +0.000 HD
ENDBRANCH  12  16
ENDBRANCH   8  10
ENDBRANCH   1   5
BRANCH   1  18
ATOM     18  C   UNL     1      -8.391   5.897 130.303  0.00  0.00    +0.000 C 
BRANCH  18  19
ATOM     19  C   UNL     1      -8.804   4.429 130.182  0.00  0.00    +0.000 C 
ATOM     20  O   UNL     1      -9.618   4.020 129.356  0.00  0.00    +0.000 OA
ATOM     21  N   UNL     1      -8.135   3.575 131.048  0.00  0.00    +0.000 N 
ATOM     22  H   UNL     1      -7.412   3.970 131.625  0.00  0.00    +0.000 HD
BRANCH  21  23
ATOM     23  C   UNL     1      -8.403   2.139 131.026  0.00  0.00    +0.000 C 
BRANCH  23  24
ATOM     24  C   UNL     1      -9.477   1.579 131.958  0.00  0.00    +0.000 C 
ATOM     25  O   UNL     1      -9.804   0.388 131.947  0.00  0.00    +0.000 OA
BRANCH  24  26
ATOM     26  O   UNL     1     -10.072   2.437 132.805  0.00  0.00    +0.000 OA
ATOM     27  H   UNL     1     -10.353   3.298 132.461  0.00  0.00    +0.000 HD
ENDBRANCH  24  26
ENDBRANCH  23  24
ENDBRANCH  21  23
ENDBRANCH  18  19
BRANCH  18  28
ATOM     28  C   UNL     1      -9.532   6.789 130.892  0.00  0.00    +0.000 C 
BRANCH  28  29
ATOM     29  C   UNL     1     -10.735   7.204 130.052  0.00  0.00    +0.000 A 
ATOM     30  C   UNL     1     -10.642   7.950 128.897  0.00  0.00    +0.000 A 
ATOM     31  C   UNL     1     -11.653   8.715 128.333  0.00  0.00    +0.000 A 
ATOM     32  C   UNL     1     -12.928   8.463 128.735  0.00  0.00    +0.000 A 
ATOM     33  C   UNL     1     -13.121   7.489 129.712  0.00  0.00    +0.000 A 
ATOM     34  C   UNL     1     -12.036   6.890 130.392  0.00  0.00    +0.000 A 
ENDBRANCH  28  29
ENDBRANCH  18  28
ENDBRANCH   1  18
TORSDOF 10
ENDMDL
MODEL 4
REMARK VINA RESULT:      -8.2      1.833      2.272
REMARK  Name = Alvimopan
REMARK  12 active torsions:
REMARK  status: ('A' for Active; 'I' for Inactive)
REMARK    1  A    between atoms: C_1  and  C_2
REMARK    2  A    between atoms: N_4  and  C_5
REMARK    3  A    between atoms: C_5  and  C_6
REMARK    4  A    between atoms: C_6  and  C_7
REMARK    5  A    between atoms: C_6  and  C_14
REMARK    6  A    between atoms: C_7  and  C_8
REMARK    7  A    between atoms: N_16  and  C_17
REMARK    8  A    between atoms: C_17  and  C_18
REMARK    9  A    between atoms: C_18  and  O_19
REMARK   10  A    between atoms: C_23  and  C_24
REMARK   11  A    between atoms: C_23  and  C_25
REMARK   12  A    between atoms: C_27  and  O_28
REMARK                            x       y       z     vdW  Elec       q    Type
REMARK                         _______ _______ _______ _____ _____    ______ ____
ROOT
ATOM      1  C   UNL     1      -6.229   1.826 125.849  0.00  0.00    +0.000 C 
ENDROOT
BRANCH   1   5
ATOM      2  C   UNL     1      -8.924  -1.819 123.709  0.00  0.00    +0.000 C 
ATOM      3  C   UNL     1      -7.514  -1.337 124.057  0.00  0.00    +0.000 C 
ATOM      4  C   UNL     1      -7.596  -0.004 124.821  0.00  0.00    +0.000 C 
ATOM      5  N   UNL     1      -6.269   0.495 125.257  0.00  0.00    +0.000 NA
ATOM      6  C   UNL     1      -5.261  -0.420 125.804  0.00  0.00    +0.000 C 
ATOM      7  C   UNL     1      -5.241  -1.764 125.089  0.00  0.00    +0.000 C 
ATOM      8  C   UNL     1      -6.654  -2.350 124.838  0.00  0.00    +0.000 C 
ATOM      9  C   UNL     1      -6.427  -3.598 123.941  0.00  0.00    +0.000 C 
BRANCH   8  10
ATOM     10  C   UNL     1      -7.320  -2.660 126.192  0.00  0.00    +0.000 A 
ATOM     11  C   UNL     1      -6.774  -2.252 127.432  0.00  0.00    +0.000 A 
ATOM     12  C   UNL     1      -7.284  -2.610 128.655  0.00  0.00    +0.000 A 
ATOM     13  C   UNL     1      -8.451  -3.325 128.686  0.00  0.00    +0.000 A 
ATOM     14  C   UNL     1      -9.054  -3.711 127.486  0.00  0.00    +0.000 A 
ATOM     15  C   UNL     1      -8.498  -3.385 126.252  0.00  0.00    +0.000 A 
BRANCH  12  16
ATOM     16  O   UNL     1      -6.617  -2.280 129.794  0.00  0.00    +0.000 OA
ATOM     17  H   UNL     1      -7.192  -2.461 130.560  0.00  0.00    +0.000 HD
ENDBRANCH  12  16
ENDBRANCH   8  10
ENDBRANCH   1   5
BRANCH   1  18
ATOM     18  C   UNL     1      -6.954   2.892 124.994  0.00  0.00    +0.000 C 
BRANCH  18  19
ATOM     19  C   UNL     1      -7.779   3.784 125.924  0.00  0.00    +0.000 C 
ATOM     20  O   UNL     1      -8.649   4.557 125.524  0.00  0.00    +0.000 OA
ATOM     21  N   UNL     1      -7.507   3.609 127.273  0.00  0.00    +0.000 N 
ATOM     22  H   UNL     1      -6.853   2.888 127.526  0.00  0.00    +0.000 HD
BRANCH  21  23
ATOM     23  C   UNL     1      -8.238   4.372 128.281  0.00  0.00    +0.000 C 
BRANCH  23  24
ATOM     24  C   UNL     1      -7.520   4.762 129.572  0.00  0.00    +0.000 C 
ATOM     25  O   UNL     1      -6.424   5.332 129.572  0.00  0.00    +0.000 OA
BRANCH  24  26
ATOM     26  O   UNL     1      -8.125   4.458 130.734  0.00  0.00    +0.000 OA
ATOM     27  H   UNL     1      -8.934   4.938 130.967  0.00  0.00    +0.000 HD
ENDBRANCH  24  26
ENDBRANCH  23  24
ENDBRANCH  21  23
ENDBRANCH  18  19
BRANCH  18  28
ATOM     28  C   UNL     1      -5.990   3.715 124.079  0.00  0.00    +0.000 C 
BRANCH  28  29
ATOM     29  C   UNL     1      -6.174   3.764 122.566  0.00  0.00    +0.000 A 
ATOM     30  C   UNL     1      -5.192   4.165 121.687  0.00  0.00    +0.000 A 
ATOM     31  C   UNL     1      -5.391   4.643 120.400  0.00  0.00    +0.000 A 
ATOM     32  C   UNL     1      -6.594   4.393 119.817  0.00  0.00    +0.000 A 
ATOM     33  C   UNL     1      -7.552   3.715 120.569  0.00  0.00    +0.000 A 
ATOM     34  C   UNL     1      -7.361   3.435 121.941  0.00  0.00    +0.000 A 
ENDBRANCH  28  29
ENDBRANCH  18  28
ENDBRANCH   1  18
TORSDOF 10
ENDMDL
MODEL 5
REMARK VINA RESULT:      -8.1      3.251      8.473
REMARK  Name = Alvimopan
REMARK  12 active torsions:
REMARK  status: ('A' for Active; 'I' for Inactive)
REMARK    1  A    between atoms: C_1  and  C_2
REMARK    2  A    between atoms: N_4  and  C_5
REMARK    3  A    between atoms: C_5  and  C_6
REMARK    4  A    between atoms: C_6  and  C_7
REMARK    5  A    between atoms: C_6  and  C_14
REMARK    6  A    between atoms: C_7  and  C_8
REMARK    7  A    between atoms: N_16  and  C_17
REMARK    8  A    between atoms: C_17  and  C_18
REMARK    9  A    between atoms: C_18  and  O_19
REMARK   10  A    between atoms: C_23  and  C_24
REMARK   11  A    between atoms: C_23  and  C_25
REMARK   12  A    between atoms: C_27  and  O_28
REMARK                            x       y       z     vdW  Elec       q    Type
REMARK                         _______ _______ _______ _____ _____    ______ ____
ROOT
ATOM      1  C   UNL     1      -6.181  -1.864 127.520  0.00  0.00    +0.000 C 
ENDROOT
BRANCH   1   5
ATOM      2  C   UNL     1      -8.326   2.370 129.132  0.00  0.00    +0.000 C 
ATOM      3  C   UNL     1      -7.048   1.742 128.570  0.00  0.00    +0.000 C 
ATOM      4  C   UNL     1      -7.284   0.249 128.292  0.00  0.00    +0.000 C 
ATOM      5  N   UNL     1      -6.110  -0.417 127.676  0.00  0.00    +0.000 NA
ATOM      6  C   UNL     1      -5.329   0.248 126.627  0.00  0.00    +0.000 C 
ATOM      7  C   UNL     1      -5.168   1.741 126.875  0.00  0.00    +0.000 C 
ATOM      8  C   UNL     1      -6.479   2.438 127.318  0.00  0.00    +0.000 C 
ATOM      9  C   UNL     1      -6.064   3.885 127.703  0.00  0.00    +0.000 C 
BRANCH   8  10
ATOM     10  C   UNL     1      -7.505   2.362 126.172  0.00  0.00    +0.000 A 
ATOM     11  C   UNL     1      -8.621   1.492 126.191  0.00  0.00    +0.000 A 
ATOM     12  C   UNL     1      -9.485   1.321 125.139  0.00  0.00    +0.000 A 
ATOM     13  C   UNL     1      -9.322   2.110 124.033  0.00  0.00    +0.000 A 
ATOM     14  C   UNL     1      -8.262   3.019 123.985  0.00  0.00    +0.000 A 
ATOM     15  C   UNL     1      -7.361   3.145 125.039  0.00  0.00    +0.000 A 
BRANCH  12  16
ATOM     16  O   UNL     1     -10.453   0.366 125.200  0.00  0.00    +0.000 OA
ATOM     17  H   UNL     1     -10.514   0.038 126.116  0.00  0.00    +0.000 HD
ENDBRANCH  12  16
ENDBRANCH   8  10
ENDBRANCH   1   5
BRANCH   1  18
ATOM     18  C   UNL     1      -7.630  -2.404 127.525  0.00  0.00    +0.000 C 
BRANCH  18  19
ATOM     19  C   UNL     1      -7.977  -2.884 126.114  0.00  0.00    +0.000 C 
ATOM     20  O   UNL     1      -8.555  -3.944 125.882  0.00  0.00    +0.000 OA
ATOM     21  N   UNL     1      -7.638  -1.990 125.108  0.00  0.00    +0.000 N 
ATOM     22  H   UNL     1      -7.259  -1.100 125.384  0.00  0.00    +0.000 HD
BRANCH  21  23
ATOM     23  C   UNL     1      -7.936  -2.298 123.712  0.00  0.00    +0.000 C 
BRANCH  23  24
ATOM     24  C   UNL     1      -9.392  -2.276 123.249  0.00  0.00    +0.000 C 
ATOM     25  O   UNL     1      -9.922  -1.260 122.788  0.00  0.00    +0.000 OA
BRANCH  24  26
ATOM     26  O   UNL     1     -10.096  -3.417 123.363  0.00  0.00    +0.000 OA
ATOM     27  H   UNL     1     -10.157  -3.830 124.237  0.00  0.00    +0.000 HD
ENDBRANCH  24  26
ENDBRANCH  23  24
ENDBRANCH  21  23
ENDBRANCH  18  19
BRANCH  18  28
ATOM     28  C   UNL     1      -7.879  -3.506 128.606  0.00  0.00    +0.000 C 
BRANCH  28  29
ATOM     29  C   UNL     1      -7.131  -3.503 129.935  0.00  0.00    +0.000 A 
ATOM     30  C   UNL     1      -6.054  -4.318 130.209  0.00  0.00    +0.000 A 
ATOM     31  C   UNL     1      -5.609  -4.688 131.470  0.00  0.00    +0.000 A 
ATOM     32  C   UNL     1      -6.031  -3.944 132.528  0.00  0.00    +0.000 A 
ATOM     33  C   UNL     1      -6.912  -2.895 132.274  0.00  0.00    +0.000 A 
ATOM     34  C   UNL     1      -7.487  -2.696 130.998  0.00  0.00    +0.000 A 
ENDBRANCH  28  29
ENDBRANCH  18  28
ENDBRANCH   1  18
TORSDOF 10
ENDMDL
MODEL 6
REMARK VINA RESULT:      -8.1      6.563      9.539
REMARK  Name = Alvimopan
REMARK  12 active torsions:
REMARK  status: ('A' for Active; 'I' for Inactive)
REMARK    1  A    between atoms: C_1  and  C_2
REMARK    2  A    between atoms: N_4  and  C_5
REMARK    3  A    between atoms: C_5  and  C_6
REMARK    4  A    between atoms: C_6  and  C_7
REMARK    5  A    between atoms: C_6  and  C_14
REMARK    6  A    between atoms: C_7  and  C_8
REMARK    7  A    between atoms: N_16  and  C_17
REMARK    8  A    between atoms: C_17  and  C_18
REMARK    9  A    between atoms: C_18  and  O_19
REMARK   10  A    between atoms: C_23  and  C_24
REMARK   11  A    between atoms: C_23  and  C_25
REMARK   12  A    between atoms: C_27  and  O_28
REMARK                            x       y       z     vdW  Elec       q    Type
REMARK                         _______ _______ _______ _____ _____    ______ ____
ROOT
ATOM      1  C   UNL     1      -9.810   3.420 131.198  0.00  0.00    +0.000 C 
ENDROOT
BRANCH   1   5
ATOM      2  C   UNL     1      -8.086   5.834 135.239  0.00  0.00    +0.000 C 
ATOM      3  C   UNL     1      -8.042   4.530 134.439  0.00  0.00    +0.000 C 
ATOM      4  C   UNL     1      -8.929   4.659 133.190  0.00  0.00    +0.000 C 
ATOM      5  N   UNL     1      -8.883   3.456 132.322  0.00  0.00    +0.000 NA
ATOM      6  C   UNL     1      -7.617   2.763 132.060  0.00  0.00    +0.000 C 
ATOM      7  C   UNL     1      -6.714   2.710 133.284  0.00  0.00    +0.000 C 
ATOM      8  C   UNL     1      -6.629   4.056 134.047  0.00  0.00    +0.000 C 
ATOM      9  C   UNL     1      -5.836   3.742 135.346  0.00  0.00    +0.000 C 
BRANCH   8  10
ATOM     10  C   UNL     1      -5.962   5.108 133.141  0.00  0.00    +0.000 A 
ATOM     11  C   UNL     1      -6.694   5.957 132.276  0.00  0.00    +0.000 A 
ATOM     12  C   UNL     1      -6.121   6.822 131.377  0.00  0.00    +0.000 A 
ATOM     13  C   UNL     1      -4.759   6.951 131.381  0.00  0.00    +0.000 A 
ATOM     14  C   UNL     1      -3.995   6.169 132.252  0.00  0.00    +0.000 A 
ATOM     15  C   UNL     1      -4.586   5.257 133.122  0.00  0.00    +0.000 A 
BRANCH  12  16
ATOM     16  O   UNL     1      -6.902   7.501 130.494  0.00  0.00    +0.000 OA
ATOM     17  H   UNL     1      -6.573   8.415 130.421  0.00  0.00    +0.000 HD
ENDBRANCH  12  16
ENDBRANCH   8  10
ENDBRANCH   1   5
BRANCH   1  18
ATOM     18  C   UNL     1     -10.162   4.826 130.657  0.00  0.00    +0.000 C 
BRANCH  18  19
ATOM     19  C   UNL     1      -9.243   5.139 129.474  0.00  0.00    +0.000 C 
ATOM     20  O   UNL     1      -9.059   6.275 129.041  0.00  0.00    +0.000 OA
ATOM     21  N   UNL     1      -8.580   4.034 128.960  0.00  0.00    +0.000 N 
ATOM     22  H   UNL     1      -8.706   3.154 129.431  0.00  0.00    +0.000 HD
BRANCH  21  23
ATOM     23  C   UNL     1      -7.646   4.183 127.847  0.00  0.00    +0.000 C 
BRANCH  23  24
ATOM     24  C   UNL     1      -8.205   4.315 126.431  0.00  0.00    +0.000 C 
ATOM     25  O   UNL     1      -8.436   3.334 125.718  0.00  0.00    +0.000 OA
BRANCH  24  26
ATOM     26  O   UNL     1      -8.441   5.558 125.972  0.00  0.00    +0.000 OA
ATOM     27  H   UNL     1      -8.496   5.688 125.014  0.00  0.00    +0.000 HD
ENDBRANCH  24  26
ENDBRANCH  23  24
ENDBRANCH  21  23
ENDBRANCH  18  19
BRANCH  18  28
ATOM     28  C   UNL     1     -11.674   4.992 130.296  0.00  0.00    +0.000 C 
BRANCH  28  29
ATOM     29  C   UNL     1     -12.259   6.348 129.914  0.00  0.00    +0.000 A 
ATOM     30  C   UNL     1     -12.634   6.686 128.632  0.00  0.00    +0.000 A 
ATOM     31  C   UNL     1     -12.753   7.973 128.127  0.00  0.00    +0.000 A 
ATOM     32  C   UNL     1     -12.844   8.993 129.024  0.00  0.00    +0.000 A 
ATOM     33  C   UNL     1     -12.766   8.675 130.378  0.00  0.00    +0.000 A 
ATOM     34  C   UNL     1     -12.440   7.373 130.822  0.00  0.00    +0.000 A 
ENDBRANCH  28  29
ENDBRANCH  18  28
ENDBRANCH   1  18
TORSDOF 10
ENDMDL
MODEL 7
REMARK VINA RESULT:      -8.1      5.698      8.852
REMARK  Name = Alvimopan
REMARK  12 active torsions:
REMARK  status: ('A' for Active; 'I' for Inactive)
REMARK    1  A    between atoms: C_1  and  C_2
REMARK    2  A    between atoms: N_4  and  C_5
REMARK    3  A    between atoms: C_5  and  C_6
REMARK    4  A    between atoms: C_6  and  C_7
REMARK    5  A    between atoms: C_6  and  C_14
REMARK    6  A    between atoms: C_7  and  C_8
REMARK    7  A    between atoms: N_16  and  C_17
REMARK    8  A    between atoms: C_17  and  C_18
REMARK    9  A    between atoms: C_18  and  O_19
REMARK   10  A    between atoms: C_23  and  C_24
REMARK   11  A    between atoms: C_23  and  C_25
REMARK   12  A    between atoms: C_27  and  O_28
REMARK                            x       y       z     vdW  Elec       q    Type
REMARK                         _______ _______ _______ _____ _____    ______ ____
ROOT
ATOM      1  C   UNL     1      -7.439   5.314 131.708  0.00  0.00    +0.000 C 
ENDROOT
BRANCH   1   5
ATOM      2  C   UNL     1      -3.747   8.024 129.671  0.00  0.00    +0.000 C 
ATOM      3  C   UNL     1      -4.142   7.109 130.832  0.00  0.00    +0.000 C 
ATOM      4  C   UNL     1      -5.595   6.642 130.652  0.00  0.00    +0.000 C 
ATOM      5  N   UNL     1      -6.032   5.691 131.704  0.00  0.00    +0.000 NA
ATOM      6  C   UNL     1      -5.140   4.626 132.175  0.00  0.00    +0.000 C 
ATOM      7  C   UNL     1      -3.690   5.079 132.277  0.00  0.00    +0.000 C 
ATOM      8  C   UNL     1      -3.212   5.899 131.051  0.00  0.00    +0.000 C 
ATOM      9  C   UNL     1      -1.801   6.423 131.433  0.00  0.00    +0.000 C 
BRANCH   8  10
ATOM     10  C   UNL     1      -3.232   4.998 129.802  0.00  0.00    +0.000 A 
ATOM     11  C   UNL     1      -3.776   3.691 129.801  0.00  0.00    +0.000 A 
ATOM     12  C   UNL     1      -3.706   2.826 128.738  0.00  0.00    +0.000 A 
ATOM     13  C   UNL     1      -3.166   3.283 127.566  0.00  0.00    +0.000 A 
ATOM     14  C   UNL     1      -2.658   4.584 127.503  0.00  0.00    +0.000 A 
ATOM     15  C   UNL     1      -2.688   5.433 128.606  0.00  0.00    +0.000 A 
BRANCH  12  16
ATOM     16  O   UNL     1      -4.140   1.544 128.873  0.00  0.00    +0.000 OA
ATOM     17  H   UNL     1      -5.043   1.553 129.238  0.00  0.00    +0.000 HD
ENDBRANCH  12  16
ENDBRANCH   8  10
ENDBRANCH   1   5
BRANCH   1  18
ATOM     18  C   UNL     1      -8.227   5.899 130.511  0.00  0.00    +0.000 C 
BRANCH  18  19
ATOM     19  C   UNL     1      -8.463   4.785 129.490  0.00  0.00    +0.000 C 
ATOM     20  O   UNL     1      -8.518   4.979 128.276  0.00  0.00    +0.000 OA
ATOM     21  N   UNL     1      -8.551   3.515 130.041  0.00  0.00    +0.000 N 
ATOM     22  H   UNL     1      -8.397   3.425 131.031  0.00  0.00    +0.000 HD
BRANCH  21  23
ATOM     23  C   UNL     1      -8.746   2.348 129.185  0.00  0.00    +0.000 C 
BRANCH  23  24
ATOM     24  C   UNL     1      -7.520   1.682 128.561  0.00  0.00    +0.000 C 
ATOM     25  O   UNL     1      -7.076   0.604 128.967  0.00  0.00    +0.000 OA
BRANCH  24  26
ATOM     26  O   UNL     1      -6.925   2.318 127.535  0.00  0.00    +0.000 OA
ATOM     27  H   UNL     1      -6.191   2.918 127.735  0.00  0.00    +0.000 HD
ENDBRANCH  24  26
ENDBRANCH  23  24
ENDBRANCH  21  23
ENDBRANCH  18  19
BRANCH  18  28
ATOM     28  C   UNL     1      -9.553   6.613 130.931  0.00  0.00    +0.000 C 
BRANCH  28  29
ATOM     29  C   UNL     1     -10.544   7.129 129.892  0.00  0.00    +0.000 A 
ATOM     30  C   UNL     1     -11.850   6.700 129.800  0.00  0.00    +0.000 A 
ATOM     31  C   UNL     1     -12.658   6.774 128.674  0.00  0.00    +0.000 A 
ATOM     32  C   UNL     1     -12.279   7.628 127.685  0.00  0.00    +0.000 A 
ATOM     33  C   UNL     1     -11.087   8.330 127.854  0.00  0.00    +0.000 A 
ATOM     34  C   UNL     1     -10.208   8.059 128.927  0.00  0.00    +0.000 A 
ENDBRANCH  28  29
ENDBRANCH  18  28
ENDBRANCH   1  18
TORSDOF 10
ENDMDL
MODEL 8
REMARK VINA RESULT:      -8.1      2.741      6.994
REMARK  Name = Alvimopan
REMARK  12 active torsions:
REMARK  status: ('A' for Active; 'I' for Inactive)
REMARK    1  A    between atoms: C_1  and  C_2
REMARK    2  A    between atoms: N_4  and  C_5
REMARK    3  A    between atoms: C_5  and  C_6
REMARK    4  A    between atoms: C_6  and  C_7
REMARK    5  A    between atoms: C_6  and  C_14
REMARK    6  A    between atoms: C_7  and  C_8
REMARK    7  A    between atoms: N_16  and  C_17
REMARK    8  A    between atoms: C_17  and  C_18
REMARK    9  A    between atoms: C_18  and  O_19
REMARK   10  A    between atoms: C_23  and  C_24
REMARK   11  A    between atoms: C_23  and  C_25
REMARK   12  A    between atoms: C_27  and  O_28
REMARK                            x       y       z     vdW  Elec       q    Type
REMARK                         _______ _______ _______ _____ _____    ______ ____
ROOT
ATOM      1  C   UNL     1      -6.918   0.962 127.862  0.00  0.00    +0.000 C 
ENDROOT
BRANCH   1   5
ATOM      2  C   UNL     1     -10.562   1.380 124.445  0.00  0.00    +0.000 C 
ATOM      3  C   UNL     1      -9.154   1.828 124.844  0.00  0.00    +0.000 C 
ATOM      4  C   UNL     1      -8.735   1.125 126.145  0.00  0.00    +0.000 C 
ATOM      5  N   UNL     1      -7.349   1.455 126.561  0.00  0.00    +0.000 NA
ATOM      6  C   UNL     1      -6.265   1.535 125.575  0.00  0.00    +0.000 C 
ATOM      7  C   UNL     1      -6.712   2.164 124.263  0.00  0.00    +0.000 C 
ATOM      8  C   UNL     1      -8.077   1.633 123.758  0.00  0.00    +0.000 C 
ATOM      9  C   UNL     1      -8.439   2.525 122.538  0.00  0.00    +0.000 C 
BRANCH   8  10
ATOM     10  C   UNL     1      -7.945   0.135 123.424  0.00  0.00    +0.000 A 
ATOM     11  C   UNL     1      -9.055  -0.739 123.340  0.00  0.00    +0.000 A 
ATOM     12  C   UNL     1      -8.958  -2.095 123.157  0.00  0.00    +0.000 A 
ATOM     13  C   UNL     1      -7.718  -2.633 122.943  0.00  0.00    +0.000 A 
ATOM     14  C   UNL     1      -6.594  -1.803 122.970  0.00  0.00    +0.000 A 
ATOM     15  C   UNL     1      -6.702  -0.435 123.208  0.00  0.00    +0.000 A 
BRANCH  12  16
ATOM     16  O   UNL     1     -10.073  -2.872 123.221  0.00  0.00    +0.000 OA
ATOM     17  H   UNL     1     -10.133  -3.267 124.110  0.00  0.00    +0.000 HD
ENDBRANCH  12  16
ENDBRANCH   8  10
ENDBRANCH   1   5
BRANCH   1  18
ATOM     18  C   UNL     1      -5.646   0.084 127.786  0.00  0.00    +0.000 C 
BRANCH  18  19
ATOM     19  C   UNL     1      -5.032  -0.009 129.185  0.00  0.00    +0.000 C 
ATOM     20  O   UNL     1      -5.297   0.776 130.094  0.00  0.00    +0.000 OA
ATOM     21  N   UNL     1      -4.188  -1.096 129.366  0.00  0.00    +0.000 N 
ATOM     22  H   UNL     1      -4.099  -1.748 128.606  0.00  0.00    +0.000 HD
BRANCH  21  23
ATOM     23  C   UNL     1      -3.552  -1.331 130.660  0.00  0.00    +0.000 C 
BRANCH  23  24
ATOM     24  C   UNL     1      -3.881  -2.616 131.417  0.00  0.00    +0.000 C 
ATOM     25  O   UNL     1      -3.102  -3.121 132.231  0.00  0.00    +0.000 OA
BRANCH  24  26
ATOM     26  O   UNL     1      -5.069  -3.197 131.165  0.00  0.00    +0.000 OA
ATOM     27  H   UNL     1      -5.797  -2.634 130.863  0.00  0.00    +0.000 HD
ENDBRANCH  24  26
ENDBRANCH  23  24
ENDBRANCH  21  23
ENDBRANCH  18  19
BRANCH  18  28
ATOM     28  C   UNL     1      -5.900  -1.323 127.153  0.00  0.00    +0.000 C 
BRANCH  28  29
ATOM     29  C   UNL     1      -7.165  -2.119 127.458  0.00  0.00    +0.000 A 
ATOM     30  C   UNL     1      -7.530  -2.522 128.724  0.00  0.00    +0.000 A 
ATOM     31  C   UNL     1      -8.381  -3.573 129.034  0.00  0.00    +0.000 A 
ATOM     32  C   UNL     1      -9.191  -4.037 128.045  0.00  0.00    +0.000 A 
ATOM     33  C   UNL     1      -9.075  -3.455 126.784  0.00  0.00    +0.000 A 
ATOM     34  C   UNL     1      -8.049  -2.532 126.480  0.00  0.00    +0.000 A 
ENDBRANCH  28  29
ENDBRANCH  18  28
ENDBRANCH   1  18
TORSDOF 10
ENDMDL
MODEL 9
REMARK VINA RESULT:      -8.0      5.541      8.946
REMARK  Name = Alvimopan
REMARK  12 active torsions:
REMARK  status: ('A' for Active; 'I' for Inactive)
REMARK    1  A    between atoms: C_1  and  C_2
REMARK    2  A    between atoms: N_4  and  C_5
REMARK    3  A    between atoms: C_5  and  C_6
REMARK    4  A    between atoms: C_6  and  C_7
REMARK    5  A    between atoms: C_6  and  C_14
REMARK    6  A    between atoms: C_7  and  C_8
REMARK    7  A    between atoms: N_16  and  C_17
REMARK    8  A    between atoms: C_17  and  C_18
REMARK    9  A    between atoms: C_18  and  O_19
REMARK   10  A    between atoms: C_23  and  C_24
REMARK   11  A    between atoms: C_23  and  C_25
REMARK   12  A    between atoms: C_27  and  O_28
REMARK                            x       y       z     vdW  Elec       q    Type
REMARK                         _______ _______ _______ _____ _____    ______ ____
ROOT
ATOM      1  C   UNL     1      -7.488   4.372 131.699  0.00  0.00    +0.000 C 
ENDROOT
BRANCH   1   5
ATOM      2  C   UNL     1      -3.463   7.358 131.723  0.00  0.00    +0.000 C 
ATOM      3  C   UNL     1      -4.031   6.010 132.171  0.00  0.00    +0.000 C 
ATOM      4  C   UNL     1      -5.475   5.862 131.664  0.00  0.00    +0.000 C 
ATOM      5  N   UNL     1      -6.073   4.546 131.999  0.00  0.00    +0.000 NA
ATOM      6  C   UNL     1      -5.292   3.310 131.879  0.00  0.00    +0.000 C 
ATOM      7  C   UNL     1      -3.844   3.489 132.312  0.00  0.00    +0.000 C 
ATOM      8  C   UNL     1      -3.191   4.783 131.764  0.00  0.00    +0.000 C 
ATOM      9  C   UNL     1      -1.809   4.875 132.468  0.00  0.00    +0.000 C 
BRANCH   8  10
ATOM     10  C   UNL     1      -3.111   4.697 130.228  0.00  0.00    +0.000 A 
ATOM     11  C   UNL     1      -3.499   3.548 129.498  0.00  0.00    +0.000 A 
ATOM     12  C   UNL     1      -3.333   3.402 128.143  0.00  0.00    +0.000 A 
ATOM     13  C   UNL     1      -2.854   4.468 127.431  0.00  0.00    +0.000 A 
ATOM     14  C   UNL     1      -2.501   5.642 128.102  0.00  0.00    +0.000 A 
ATOM     15  C   UNL     1      -2.626   5.759 129.484  0.00  0.00    +0.000 A 
BRANCH  12  16
ATOM     16  O   UNL     1      -3.614   2.211 127.547  0.00  0.00    +0.000 OA
ATOM     17  H   UNL     1      -4.229   2.366 126.808  0.00  0.00    +0.000 HD
ENDBRANCH  12  16
ENDBRANCH   8  10
ENDBRANCH   1   5
BRANCH   1  18
ATOM     18  C   UNL     1      -8.000   5.338 130.605  0.00  0.00    +0.000 C 
BRANCH  18  19
ATOM     19  C   UNL     1      -8.318   4.528 129.347  0.00  0.00    +0.000 C 
ATOM     20  O   UNL     1      -9.315   3.817 129.233  0.00  0.00    +0.000 OA
ATOM     21  N   UNL     1      -7.413   4.706 128.309  0.00  0.00    +0.000 N 
ATOM     22  H   UNL     1      -6.679   5.380 128.443  0.00  0.00    +0.000 HD
BRANCH  21  23
ATOM     23  C   UNL     1      -7.604   4.019 127.035  0.00  0.00    +0.000 C 
BRANCH  23  24
ATOM     24  C   UNL     1      -8.337   4.749 125.910  0.00  0.00    +0.000 C 
ATOM     25  O   UNL     1      -9.010   5.764 126.110  0.00  0.00    +0.000 OA
BRANCH  24  26
ATOM     26  O   UNL     1      -8.229   4.241 124.668  0.00  0.00    +0.000 OA
ATOM     27  H   UNL     1      -9.027   3.890 124.248  0.00  0.00    +0.000 HD
ENDBRANCH  24  26
ENDBRANCH  23  24
ENDBRANCH  21  23
ENDBRANCH  18  19
BRANCH  18  28
ATOM     28  C   UNL     1      -9.208   6.217 131.068  0.00  0.00    +0.000 C 
BRANCH  28  29
ATOM     29  C   UNL     1     -10.223   6.767 130.071  0.00  0.00    +0.000 A 
ATOM     30  C   UNL     1      -9.922   7.712 129.115  0.00  0.00    +0.000 A 
ATOM     31  C   UNL     1     -10.826   8.558 128.488  0.00  0.00    +0.000 A 
ATOM     32  C   UNL     1     -12.144   8.224 128.549  0.00  0.00    +0.000 A 
ATOM     33  C   UNL     1     -12.492   7.085 129.272  0.00  0.00    +0.000 A 
ATOM     34  C   UNL     1     -11.550   6.383 130.057  0.00  0.00    +0.000 A 
ENDBRANCH  28  29
ENDBRANCH  18  28
ENDBRANCH   1  18
TORSDOF 10
ENDMDL
