MODEL 1
REMARK VINA RESULT:      -5.8      0.000      0.000
REMARK  Name = Amantadine
REMARK  1 active torsions:
REMARK  status: ('A' for Active; 'I' for Inactive)
REMARK    1  A    between atoms: N_1  and  C_2
REMARK                            x       y       z     vdW  Elec       q    Type
REMARK                         _______ _______ _______ _____ _____    ______ ____
ROOT
ATOM      1  C   UNL     1     -11.108   7.204 127.965  0.00  0.00    +0.000 C 
ATOM      2  C   UNL     1     -10.971   8.650 128.493  0.00  0.00    +0.000 C 
ATOM      3  C   UNL     1     -12.280   9.092 129.170  0.00  0.00    +0.000 C 
ATOM      4  C   UNL     1     -13.426   9.026 128.148  0.00  0.00    +0.000 C 
ATOM      5  C   UNL     1     -13.583   7.588 127.622  0.00  0.00    +0.000 C 
ATOM      6  C   UNL     1     -13.886   6.648 128.800  0.00  0.00    +0.000 C 
ATOM      7  C   UNL     1     -12.741   6.702 129.827  0.00  0.00    +0.000 C 
ATOM      8  C   UNL     1     -12.590   8.143 130.341  0.00  0.00    +0.000 C 
ATOM      9  C   UNL     1     -11.431   6.265 129.148  0.00  0.00    +0.000 C 
ATOM     10  C   UNL     1     -12.270   7.150 126.948  0.00  0.00    +0.000 C 
ENDROOT
BRANCH   1  11
ATOM     11  N   UNL     1      -9.868   6.777 127.319  0.00  0.00    +0.000 NA
ATOM     12  H   UNL     1      -9.091   7.345 127.654  0.00  0.00    +0.000 HD
ATOM     13  H   UNL     1      -9.926   6.943 126.314  0.00  0.00    +0.000 HD
ENDBRANCH   1  11
TORSDOF 1
ENDMDL
MODEL 2
REMARK VINA RESULT:      -5.7      0.017      2.268
REMARK  Name = Amantadine
REMARK  1 active torsions:
REMARK  status: ('A' for Active; 'I' for Inactive)
REMARK    1  A    between atoms: N_1  and  C_2
REMARK                            x       y       z     vdW  Elec       q    Type
REMARK                         _______ _______ _______ _____ _____    ______ ____
ROOT
ATOM      1  C   UNL     1     -11.112   7.201 127.975  0.00  0.00    +0.000 C 
ATOM      2  C   UNL     1     -11.431   6.274 129.170  0.00  0.00    +0.000 C 
ATOM      3  C   UNL     1     -12.741   6.715 129.846  0.00  0.00    +0.000 C 
ATOM      4  C   UNL     1     -12.590   8.162 130.345  0.00  0.00    +0.000 C 
ATOM      5  C   UNL     1     -12.284   9.099 129.164  0.00  0.00    +0.000 C 
ATOM      6  C   UNL     1     -13.433   9.021 128.144  0.00  0.00    +0.000 C 
ATOM      7  C   UNL     1     -13.588   7.578 127.634  0.00  0.00    +0.000 C 
ATOM      8  C   UNL     1     -13.887   6.650 128.823  0.00  0.00    +0.000 C 
ATOM      9  C   UNL     1     -12.276   7.134 126.962  0.00  0.00    +0.000 C 
ATOM     10  C   UNL     1     -10.975   8.651 128.489  0.00  0.00    +0.000 C 
ENDROOT
BRANCH   1  11
ATOM     11  N   UNL     1      -9.869   6.788 127.328  0.00  0.00    +0.000 NA
ATOM     12  H   UNL     1      -9.079   6.975 127.944  0.00  0.00    +0.000 HD
ATOM     13  H   UNL     1      -9.712   7.348 126.490  0.00  0.00    +0.000 HD
ENDBRANCH   1  11
TORSDOF 1
ENDMDL
MODEL 3
REMARK VINA RESULT:      -5.7      0.046      2.290
REMARK  Name = Amantadine
REMARK  1 active torsions:
REMARK  status: ('A' for Active; 'I' for Inactive)
REMARK    1  A    between atoms: N_1  and  C_2
REMARK                            x       y       z     vdW  Elec       q    Type
REMARK                         _______ _______ _______ _____ _____    ______ ____
ROOT
ATOM      1  C   UNL     1     -11.116   7.230 127.972  0.00  0.00    +0.000 C 
ATOM      2  C   UNL     1     -12.282   7.145 126.962  0.00  0.00    +0.000 C 
ATOM      3  C   UNL     1     -13.595   7.590 127.630  0.00  0.00    +0.000 C 
ATOM      4  C   UNL     1     -13.887   6.675 128.830  0.00  0.00    +0.000 C 
ATOM      5  C   UNL     1     -12.739   6.759 129.851  0.00  0.00    +0.000 C 
ATOM      6  C   UNL     1     -12.595   8.212 130.332  0.00  0.00    +0.000 C 
ATOM      7  C   UNL     1     -12.295   9.136 129.139  0.00  0.00    +0.000 C 
ATOM      8  C   UNL     1     -13.445   9.040 128.123  0.00  0.00    +0.000 C 
ATOM      9  C   UNL     1     -10.985   8.687 128.467  0.00  0.00    +0.000 C 
ATOM     10  C   UNL     1     -11.428   6.315 129.176  0.00  0.00    +0.000 C 
ENDROOT
BRANCH   1  11
ATOM     11  N   UNL     1      -9.865   6.808 127.344  0.00  0.00    +0.000 NA
ATOM     12  H   UNL     1     -10.046   6.047 126.690  0.00  0.00    +0.000 HD
ATOM     13  H   UNL     1      -9.234   6.429 128.049  0.00  0.00    +0.000 HD
ENDBRANCH   1  11
TORSDOF 1
ENDMDL
MODEL 4
REMARK VINA RESULT:      -5.6     10.707     12.049
REMARK  Name = Amantadine
REMARK  1 active torsions:
REMARK  status: ('A' for Active; 'I' for Inactive)
REMARK    1  A    between atoms: N_1  and  C_2
REMARK                            x       y       z     vdW  Elec       q    Type
REMARK                         _______ _______ _______ _____ _____    ______ ____
ROOT
ATOM      1  C   UNL     1      -8.636  -2.708 123.850  0.00  0.00    +0.000 C 
ATOM      2  C   UNL     1      -7.636  -3.749 124.400  0.00  0.00    +0.000 C 
ATOM      3  C   UNL     1      -6.264  -3.093 124.633  0.00  0.00    +0.000 C 
ATOM      4  C   UNL     1      -5.739  -2.532 123.301  0.00  0.00    +0.000 C 
ATOM      5  C   UNL     1      -6.720  -1.483 122.747  0.00  0.00    +0.000 C 
ATOM      6  C   UNL     1      -6.870  -0.342 123.766  0.00  0.00    +0.000 C 
ATOM      7  C   UNL     1      -7.401  -0.893 125.101  0.00  0.00    +0.000 C 
ATOM      8  C   UNL     1      -6.417  -1.943 125.642  0.00  0.00    +0.000 C 
ATOM      9  C   UNL     1      -8.771  -1.554 124.867  0.00  0.00    +0.000 C 
ATOM     10  C   UNL     1      -8.092  -2.144 122.519  0.00  0.00    +0.000 C 
ENDROOT
BRANCH   1  11
ATOM     11  N   UNL     1      -9.943  -3.324 123.626  0.00  0.00    +0.000 NA
ATOM     12  H   UNL     1      -9.843  -4.132 123.012  0.00  0.00    +0.000 HD
ATOM     13  H   UNL     1     -10.554  -2.672 123.136  0.00  0.00    +0.000 HD
ENDBRANCH   1  11
TORSDOF 1
ENDMDL
MODEL 5
REMARK VINA RESULT:      -5.6     10.704     12.028
REMARK  Name = Amantadine
REMARK  1 active torsions:
REMARK  status: ('A' for Active; 'I' for Inactive)
REMARK    1  A    between atoms: N_1  and  C_2
REMARK                            x       y       z     vdW  Elec       q    Type
REMARK                         _______ _______ _______ _____ _____    ______ ____
ROOT
ATOM      1  C   UNL     1      -8.639  -2.702 123.843  0.00  0.00    +0.000 C 
ATOM      2  C   UNL     1      -8.086  -2.139 122.514  0.00  0.00    +0.000 C 
ATOM      3  C   UNL     1      -6.714  -1.483 122.749  0.00  0.00    +0.000 C 
ATOM      4  C   UNL     1      -6.867  -0.340 123.766  0.00  0.00    +0.000 C 
ATOM      5  C   UNL     1      -7.405  -0.888 125.099  0.00  0.00    +0.000 C 
ATOM      6  C   UNL     1      -6.427  -1.940 125.647  0.00  0.00    +0.000 C 
ATOM      7  C   UNL     1      -6.273  -3.093 124.639  0.00  0.00    +0.000 C 
ATOM      8  C   UNL     1      -5.739  -2.533 123.309  0.00  0.00    +0.000 C 
ATOM      9  C   UNL     1      -7.646  -3.745 124.400  0.00  0.00    +0.000 C 
ATOM     10  C   UNL     1      -8.777  -1.546 124.858  0.00  0.00    +0.000 C 
ENDROOT
BRANCH   1  11
ATOM     11  N   UNL     1      -9.943  -3.327 123.628  0.00  0.00    +0.000 NA
ATOM     12  H   UNL     1     -10.005  -4.190 124.166  0.00  0.00    +0.000 HD
ATOM     13  H   UNL     1     -10.041  -3.596 122.650  0.00  0.00    +0.000 HD
ENDBRANCH   1  11
TORSDOF 1
ENDMDL
MODEL 6
REMARK VINA RESULT:      -5.6     10.702     12.078
REMARK  Name = Amantadine
REMARK  1 active torsions:
REMARK  status: ('A' for Active; 'I' for Inactive)
REMARK    1  A    between atoms: N_1  and  C_2
REMARK                            x       y       z     vdW  Elec       q    Type
REMARK                         _______ _______ _______ _____ _____    ______ ____
ROOT
ATOM      1  C   UNL     1      -8.656  -2.702 123.840  0.00  0.00    +0.000 C 
ATOM      2  C   UNL     1      -8.792  -1.542 124.851  0.00  0.00    +0.000 C 
ATOM      3  C   UNL     1      -7.421  -0.883 125.088  0.00  0.00    +0.000 C 
ATOM      4  C   UNL     1      -6.445  -1.934 125.642  0.00  0.00    +0.000 C 
ATOM      5  C   UNL     1      -6.289  -3.090 124.639  0.00  0.00    +0.000 C 
ATOM      6  C   UNL     1      -5.755  -2.539 123.307  0.00  0.00    +0.000 C 
ATOM      7  C   UNL     1      -6.729  -1.491 122.741  0.00  0.00    +0.000 C 
ATOM      8  C   UNL     1      -6.881  -0.343 123.753  0.00  0.00    +0.000 C 
ATOM      9  C   UNL     1      -8.102  -2.148 122.510  0.00  0.00    +0.000 C 
ATOM     10  C   UNL     1      -7.663  -3.744 124.404  0.00  0.00    +0.000 C 
ENDROOT
BRANCH   1  11
ATOM     11  N   UNL     1      -9.954  -3.334 123.610  0.00  0.00    +0.000 NA
ATOM     12  H   UNL     1      -9.987  -4.237 124.082  0.00  0.00    +0.000 HD
ATOM     13  H   UNL     1     -10.073  -3.529 122.617  0.00  0.00    +0.000 HD
ENDBRANCH   1  11
TORSDOF 1
ENDMDL
MODEL 7
REMARK VINA RESULT:      -5.4     10.346     11.693
REMARK  Name = Amantadine
REMARK  1 active torsions:
REMARK  status: ('A' for Active; 'I' for Inactive)
REMARK    1  A    between atoms: N_1  and  C_2
REMARK                            x       y       z     vdW  Elec       q    Type
REMARK                         _______ _______ _______ _____ _____    ______ ____
ROOT
ATOM      1  C   UNL     1      -8.866  -1.620 123.691  0.00  0.00    +0.000 C 
ATOM      2  C   UNL     1      -7.407  -1.484 123.201  0.00  0.00    +0.000 C 
ATOM      3  C   UNL     1      -6.455  -2.218 124.162  0.00  0.00    +0.000 C 
ATOM      4  C   UNL     1      -6.583  -1.604 125.566  0.00  0.00    +0.000 C 
ATOM      5  C   UNL     1      -8.029  -1.744 126.074  0.00  0.00    +0.000 C 
ATOM      6  C   UNL     1      -8.408  -3.233 126.123  0.00  0.00    +0.000 C 
ATOM      7  C   UNL     1      -8.290  -3.855 124.721  0.00  0.00    +0.000 C 
ATOM      8  C   UNL     1      -6.843  -3.705 124.222  0.00  0.00    +0.000 C 
ATOM      9  C   UNL     1      -9.237  -3.117 123.758  0.00  0.00    +0.000 C 
ATOM     10  C   UNL     1      -8.977  -1.010 125.107  0.00  0.00    +0.000 C 
ENDROOT
BRANCH   1  11
ATOM     11  N   UNL     1      -9.776  -0.925 122.783  0.00  0.00    +0.000 NA
ATOM     12  H   UNL     1     -10.142  -0.088 123.234  0.00  0.00    +0.000 HD
ATOM     13  H   UNL     1     -10.584  -1.515 122.584  0.00  0.00    +0.000 HD
ENDBRANCH   1  11
TORSDOF 1
ENDMDL
MODEL 8
REMARK VINA RESULT:      -5.4     10.345     11.682
REMARK  Name = Amantadine
REMARK  1 active torsions:
REMARK  status: ('A' for Active; 'I' for Inactive)
REMARK    1  A    between atoms: N_1  and  C_2
REMARK                            x       y       z     vdW  Elec       q    Type
REMARK                         _______ _______ _______ _____ _____    ______ ____
ROOT
ATOM      1  C   UNL     1      -8.878  -1.630 123.706  0.00  0.00    +0.000 C 
ATOM      2  C   UNL     1      -8.979  -1.014 125.119  0.00  0.00    +0.000 C 
ATOM      3  C   UNL     1      -8.026  -1.742 126.083  0.00  0.00    +0.000 C 
ATOM      4  C   UNL     1      -8.406  -3.230 126.144  0.00  0.00    +0.000 C 
ATOM      5  C   UNL     1      -8.297  -3.861 124.745  0.00  0.00    +0.000 C 
ATOM      6  C   UNL     1      -6.854  -3.716 124.235  0.00  0.00    +0.000 C 
ATOM      7  C   UNL     1      -6.466  -2.229 124.164  0.00  0.00    +0.000 C 
ATOM      8  C   UNL     1      -6.583  -1.608 125.566  0.00  0.00    +0.000 C 
ATOM      9  C   UNL     1      -7.423  -1.500 123.204  0.00  0.00    +0.000 C 
ATOM     10  C   UNL     1      -9.251  -3.127 123.784  0.00  0.00    +0.000 C 
ENDROOT
BRANCH   1  11
ATOM     11  N   UNL     1      -9.782  -0.944 122.784  0.00  0.00    +0.000 NA
ATOM     12  H   UNL     1      -9.260  -0.266 122.230  0.00  0.00    +0.000 HD
ATOM     13  H   UNL     1     -10.471  -0.408 123.310  0.00  0.00    +0.000 HD
ENDBRANCH   1  11
TORSDOF 1
ENDMDL
MODEL 9
REMARK VINA RESULT:      -5.2     10.225     11.577
REMARK  Name = Amantadine
REMARK  1 active torsions:
REMARK  status: ('A' for Active; 'I' for Inactive)
REMARK    1  A    between atoms: N_1  and  C_2
REMARK                            x       y       z     vdW  Elec       q    Type
REMARK                         _______ _______ _______ _____ _____    ______ ____
ROOT
ATOM      1  C   UNL     1      -8.386  -1.141 125.269  0.00  0.00    +0.000 C 
ATOM      2  C   UNL     1      -9.070  -2.471 125.656  0.00  0.00    +0.000 C 
ATOM      3  C   UNL     1      -8.810  -3.534 124.574  0.00  0.00    +0.000 C 
ATOM      4  C   UNL     1      -9.375  -3.038 123.233  0.00  0.00    +0.000 C 
ATOM      5  C   UNL     1      -8.693  -1.719 122.828  0.00  0.00    +0.000 C 
ATOM      6  C   UNL     1      -7.179  -1.951 122.698  0.00  0.00    +0.000 C 
ATOM      7  C   UNL     1      -6.603  -2.441 124.038  0.00  0.00    +0.000 C 
ATOM      8  C   UNL     1      -7.294  -3.755 124.435  0.00  0.00    +0.000 C 
ATOM      9  C   UNL     1      -6.868  -1.380 125.122  0.00  0.00    +0.000 C 
ATOM     10  C   UNL     1      -8.954  -0.661 123.915  0.00  0.00    +0.000 C 
ENDROOT
BRANCH   1  11
ATOM     11  N   UNL     1      -8.629  -0.126 126.293  0.00  0.00    +0.000 NA
ATOM     12  H   UNL     1      -9.138  -0.538 127.074  0.00  0.00    +0.000 HD
ATOM     13  H   UNL     1      -9.231   0.607 125.918  0.00  0.00    +0.000 HD
ENDBRANCH   1  11
TORSDOF 1
ENDMDL
