MODEL 1
REMARK VINA RESULT:      -8.3      0.000      0.000
REMARK  Name = Ambrisentan
REMARK  11 active torsions:
REMARK  status: ('A' for Active; 'I' for Inactive)
REMARK    1  A    between atoms: C_1  and  O_2
REMARK    2  A    between atoms: O_2  and  C_3
REMARK    3  A    between atoms: C_3  and  C_4
REMARK    4  A    between atoms: C_3  and  C_17
REMARK    5  A    between atoms: C_3  and  C_23
REMARK    6  A    between atoms: C_4  and  O_5
REMARK    7  A    between atoms: C_4  and  C_14
REMARK    8  A    between atoms: O_5  and  C_6
REMARK    9  A    between atoms: C_8  and  C_9
REMARK   10  A    between atoms: C_11  and  C_12
REMARK   11  A    between atoms: C_14  and  O_15
REMARK                            x       y       z     vdW  Elec       q    Type
REMARK                         _______ _______ _______ _____ _____    ______ ____
ROOT
ATOM      1  C   UNL     1      -8.064   0.439 124.781  0.00  0.00    +0.000 C 
ENDROOT
BRANCH   1   2
ATOM      2  C   UNL     1      -7.210   1.524 125.522  0.00  0.00    +0.000 A 
ATOM      3  C   UNL     1      -5.894   1.865 125.190  0.00  0.00    +0.000 A 
ATOM      4  C   UNL     1      -5.046   2.541 126.055  0.00  0.00    +0.000 A 
ATOM      5  C   UNL     1      -5.572   3.130 127.183  0.00  0.00    +0.000 A 
ATOM      6  C   UNL     1      -6.918   2.961 127.477  0.00  0.00    +0.000 A 
ATOM      7  C   UNL     1      -7.717   2.139 126.683  0.00  0.00    +0.000 A 
ENDBRANCH   1   2
BRANCH   1   8
ATOM      8  C   UNL     1      -7.063  -0.740 124.372  0.00  0.00    +0.000 A 
ATOM      9  C   UNL     1      -6.800  -1.137 123.041  0.00  0.00    +0.000 A 
ATOM     10  C   UNL     1      -5.926  -2.180 122.715  0.00  0.00    +0.000 A 
ATOM     11  C   UNL     1      -5.201  -2.805 123.713  0.00  0.00    +0.000 A 
ATOM     12  C   UNL     1      -5.375  -2.399 125.034  0.00  0.00    +0.000 A 
ATOM     13  C   UNL     1      -6.296  -1.389 125.361  0.00  0.00    +0.000 A 
ENDBRANCH   1   8
BRANCH   1  15
ATOM     14  C   UNL     1      -9.347  -1.601 125.507  0.00  0.00    +0.000 C 
ATOM     15  O   UNL     1      -9.017  -0.226 125.655  0.00  0.00    +0.000 OA
ENDBRANCH   1  15
BRANCH   1  16
ATOM     16  C   UNL     1      -8.730   1.056 123.465  0.00  0.00    +0.000 C 
BRANCH  16  17
ATOM     17  C   UNL     1     -10.215   0.869 123.249  0.00  0.00    +0.000 C 
ATOM     18  O   UNL     1     -10.692   0.190 122.335  0.00  0.00    +0.000 OA
BRANCH  17  19
ATOM     19  O   UNL     1     -11.019   1.481 124.154  0.00  0.00    +0.000 OA
ATOM     20  H   UNL     1     -11.933   1.121 124.125  0.00  0.00    +0.000 HD
ENDBRANCH  17  19
ENDBRANCH  16  17
BRANCH  16  21
ATOM     21  O   UNL     1      -8.561   2.486 123.423  0.00  0.00    +0.000 OA
BRANCH  21  22
ATOM     22  C   UNL     1      -8.123   3.013 122.241  0.00  0.00    +0.000 A 
ATOM     23  N   UNL     1      -9.009   3.412 121.327  0.00  0.00    +0.000 NA
ATOM     24  C   UNL     1      -8.519   3.952 120.200  0.00  0.00    +0.000 A 
ATOM     25  C   UNL     1      -9.521   4.343 119.160  0.00  0.00    +0.000 C 
ATOM     26  C   UNL     1      -7.166   4.154 120.018  0.00  0.00    +0.000 A 
ATOM     27  C   UNL     1      -6.334   3.735 121.040  0.00  0.00    +0.000 A 
ATOM     28  C   UNL     1      -4.855   3.955 120.985  0.00  0.00    +0.000 C 
ATOM     29  N   UNL     1      -6.801   3.146 122.156  0.00  0.00    +0.000 NA
ENDBRANCH  21  22
ENDBRANCH  16  21
ENDBRANCH   1  16
TORSDOF 8
ENDMDL
MODEL 2
REMARK VINA RESULT:      -8.2      1.923      5.458
REMARK  Name = Ambrisentan
REMARK  11 active torsions:
REMARK  status: ('A' for Active; 'I' for Inactive)
REMARK    1  A    between atoms: C_1  and  O_2
REMARK    2  A    between atoms: O_2  and  C_3
REMARK    3  A    between atoms: C_3  and  C_4
REMARK    4  A    between atoms: C_3  and  C_17
REMARK    5  A    between atoms: C_3  and  C_23
REMARK    6  A    between atoms: C_4  and  O_5
REMARK    7  A    between atoms: C_4  and  C_14
REMARK    8  A    between atoms: O_5  and  C_6
REMARK    9  A    between atoms: C_8  and  C_9
REMARK   10  A    between atoms: C_11  and  C_12
REMARK   11  A    between atoms: C_14  and  O_15
REMARK                            x       y       z     vdW  Elec       q    Type
REMARK                         _______ _______ _______ _____ _____    ______ ____
ROOT
ATOM      1  C   UNL     1      -7.833   2.740 123.809  0.00  0.00    +0.000 C 
ENDROOT
BRANCH   1   2
ATOM      2  C   UNL     1      -7.421   3.053 122.330  0.00  0.00    +0.000 A 
ATOM      3  C   UNL     1      -6.111   2.995 121.840  0.00  0.00    +0.000 A 
ATOM      4  C   UNL     1      -5.717   3.612 120.661  0.00  0.00    +0.000 A 
ATOM      5  C   UNL     1      -6.681   4.085 119.799  0.00  0.00    +0.000 A 
ATOM      6  C   UNL     1      -8.019   4.016 120.165  0.00  0.00    +0.000 A 
ATOM      7  C   UNL     1      -8.381   3.545 121.427  0.00  0.00    +0.000 A 
ENDBRANCH   1   2
BRANCH   1   8
ATOM      8  C   UNL     1      -6.485   2.720 124.673  0.00  0.00    +0.000 A 
ATOM      9  C   UNL     1      -5.599   3.814 124.794  0.00  0.00    +0.000 A 
ATOM     10  C   UNL     1      -4.422   3.762 125.548  0.00  0.00    +0.000 A 
ATOM     11  C   UNL     1      -4.136   2.634 126.297  0.00  0.00    +0.000 A 
ATOM     12  C   UNL     1      -5.018   1.557 126.265  0.00  0.00    +0.000 A 
ATOM     13  C   UNL     1      -6.170   1.593 125.460  0.00  0.00    +0.000 A 
ENDBRANCH   1   8
BRANCH   1  15
ATOM     14  C   UNL     1      -8.592   4.042 125.825  0.00  0.00    +0.000 C 
ATOM     15  O   UNL     1      -8.600   3.813 124.422  0.00  0.00    +0.000 OA
ENDBRANCH   1  15
BRANCH   1  16
ATOM     16  C   UNL     1      -8.548   1.313 123.900  0.00  0.00    +0.000 C 
BRANCH  16  17
ATOM     17  C   UNL     1      -9.995   1.201 123.475  0.00  0.00    +0.000 C 
ATOM     18  O   UNL     1     -10.353   0.749 122.383  0.00  0.00    +0.000 OA
BRANCH  17  19
ATOM     19  O   UNL     1     -10.908   1.609 124.393  0.00  0.00    +0.000 OA
ATOM     20  H   UNL     1     -11.521   0.882 124.638  0.00  0.00    +0.000 HD
ENDBRANCH  17  19
ENDBRANCH  16  17
BRANCH  16  21
ATOM     21  O   UNL     1      -7.878   0.346 123.070  0.00  0.00    +0.000 OA
BRANCH  21  22
ATOM     22  C   UNL     1      -7.575  -0.852 123.653  0.00  0.00    +0.000 A 
ATOM     23  N   UNL     1      -8.464  -1.440 124.454  0.00  0.00    +0.000 NA
ATOM     24  C   UNL     1      -8.123  -2.631 124.971  0.00  0.00    +0.000 A 
ATOM     25  C   UNL     1      -9.107  -3.253 125.912  0.00  0.00    +0.000 C 
ATOM     26  C   UNL     1      -6.940  -3.257 124.638  0.00  0.00    +0.000 A 
ATOM     27  C   UNL     1      -6.101  -2.577 123.773  0.00  0.00    +0.000 A 
ATOM     28  C   UNL     1      -4.819  -3.179 123.292  0.00  0.00    +0.000 C 
ATOM     29  N   UNL     1      -6.401  -1.360 123.284  0.00  0.00    +0.000 NA
ENDBRANCH  21  22
ENDBRANCH  16  21
ENDBRANCH   1  16
TORSDOF 8
ENDMDL
MODEL 3
REMARK VINA RESULT:      -7.9      2.099      3.958
REMARK  Name = Ambrisentan
REMARK  11 active torsions:
REMARK  status: ('A' for Active; 'I' for Inactive)
REMARK    1  A    between atoms: C_1  and  O_2
REMARK    2  A    between atoms: O_2  and  C_3
REMARK    3  A    between atoms: C_3  and  C_4
REMARK    4  A    between atoms: C_3  and  C_17
REMARK    5  A    between atoms: C_3  and  C_23
REMARK    6  A    between atoms: C_4  and  O_5
REMARK    7  A    between atoms: C_4  and  C_14
REMARK    8  A    between atoms: O_5  and  C_6
REMARK    9  A    between atoms: C_8  and  C_9
REMARK   10  A    between atoms: C_11  and  C_12
REMARK   11  A    between atoms: C_14  and  O_15
REMARK                            x       y       z     vdW  Elec       q    Type
REMARK                         _______ _______ _______ _____ _____    ______ ____
ROOT
ATOM      1  C   UNL     1      -8.474  -1.558 125.002  0.00  0.00    +0.000 C 
ENDROOT
BRANCH   1   2
ATOM      2  C   UNL     1      -8.472  -2.145 126.455  0.00  0.00    +0.000 A 
ATOM      3  C   UNL     1      -7.703  -1.647 127.513  0.00  0.00    +0.000 A 
ATOM      4  C   UNL     1      -7.435  -2.376 128.662  0.00  0.00    +0.000 A 
ATOM      5  C   UNL     1      -8.148  -3.529 128.904  0.00  0.00    +0.000 A 
ATOM      6  C   UNL     1      -9.053  -3.984 127.955  0.00  0.00    +0.000 A 
ATOM      7  C   UNL     1      -9.184  -3.326 126.732  0.00  0.00    +0.000 A 
ENDBRANCH   1   2
BRANCH   1   8
ATOM      8  C   UNL     1      -7.149  -2.095 124.282  0.00  0.00    +0.000 A 
ATOM      9  C   UNL     1      -6.294  -3.083 124.820  0.00  0.00    +0.000 A 
ATOM     10  C   UNL     1      -5.136  -3.526 124.171  0.00  0.00    +0.000 A 
ATOM     11  C   UNL     1      -4.842  -3.061 122.902  0.00  0.00    +0.000 A 
ATOM     12  C   UNL     1      -5.694  -2.139 122.302  0.00  0.00    +0.000 A 
ATOM     13  C   UNL     1      -6.826  -1.655 122.982  0.00  0.00    +0.000 A 
ENDBRANCH   1   8
BRANCH   1  15
ATOM     14  C   UNL     1      -9.420  -3.348 123.507  0.00  0.00    +0.000 C 
ATOM     15  O   UNL     1      -9.541  -2.098 124.174  0.00  0.00    +0.000 OA
ENDBRANCH   1  15
BRANCH   1  16
ATOM     16  C   UNL     1      -8.448   0.040 125.045  0.00  0.00    +0.000 C 
BRANCH  16  17
ATOM     17  C   UNL     1      -9.491   0.758 125.874  0.00  0.00    +0.000 C 
ATOM     18  O   UNL     1      -9.217   1.499 126.822  0.00  0.00    +0.000 OA
BRANCH  17  19
ATOM     19  O   UNL     1     -10.778   0.562 125.492  0.00  0.00    +0.000 OA
ATOM     20  H   UNL     1     -11.395   0.647 126.253  0.00  0.00    +0.000 HD
ENDBRANCH  17  19
ENDBRANCH  16  17
BRANCH  16  21
ATOM     21  O   UNL     1      -7.202   0.523 125.582  0.00  0.00    +0.000 OA
BRANCH  21  22
ATOM     22  C   UNL     1      -6.678   1.639 124.995  0.00  0.00    +0.000 A 
ATOM     23  N   UNL     1      -6.973   1.919 123.725  0.00  0.00    +0.000 NA
ATOM     24  C   UNL     1      -6.455   3.047 123.214  0.00  0.00    +0.000 A 
ATOM     25  C   UNL     1      -6.749   3.320 121.772  0.00  0.00    +0.000 C 
ATOM     26  C   UNL     1      -5.710   3.918 123.981  0.00  0.00    +0.000 A 
ATOM     27  C   UNL     1      -5.487   3.552 125.296  0.00  0.00    +0.000 A 
ATOM     28  C   UNL     1      -4.745   4.442 126.242  0.00  0.00    +0.000 C 
ATOM     29  N   UNL     1      -5.954   2.401 125.814  0.00  0.00    +0.000 NA
ENDBRANCH  21  22
ENDBRANCH  16  21
ENDBRANCH   1  16
TORSDOF 8
ENDMDL
MODEL 4
REMARK VINA RESULT:      -7.9      2.576      6.125
REMARK  Name = Ambrisentan
REMARK  11 active torsions:
REMARK  status: ('A' for Active; 'I' for Inactive)
REMARK    1  A    between atoms: C_1  and  O_2
REMARK    2  A    between atoms: O_2  and  C_3
REMARK    3  A    between atoms: C_3  and  C_4
REMARK    4  A    between atoms: C_3  and  C_17
REMARK    5  A    between atoms: C_3  and  C_23
REMARK    6  A    between atoms: C_4  and  O_5
REMARK    7  A    between atoms: C_4  and  C_14
REMARK    8  A    between atoms: O_5  and  C_6
REMARK    9  A    between atoms: C_8  and  C_9
REMARK   10  A    between atoms: C_11  and  C_12
REMARK   11  A    between atoms: C_14  and  O_15
REMARK                            x       y       z     vdW  Elec       q    Type
REMARK                         _______ _______ _______ _____ _____    ______ ____
ROOT
ATOM      1  C   UNL     1      -7.427   2.538 124.131  0.00  0.00    +0.000 C 
ENDROOT
BRANCH   1   2
ATOM      2  C   UNL     1      -6.805   1.100 124.117  0.00  0.00    +0.000 A 
ATOM      3  C   UNL     1      -6.942   0.183 123.068  0.00  0.00    +0.000 A 
ATOM      4  C   UNL     1      -6.709  -1.176 123.216  0.00  0.00    +0.000 A 
ATOM      5  C   UNL     1      -6.076  -1.627 124.352  0.00  0.00    +0.000 A 
ATOM      6  C   UNL     1      -5.764  -0.727 125.363  0.00  0.00    +0.000 A 
ATOM      7  C   UNL     1      -6.158   0.608 125.266  0.00  0.00    +0.000 A 
ENDBRANCH   1   2
BRANCH   1   8
ATOM      8  C   UNL     1      -7.414   3.065 122.619  0.00  0.00    +0.000 A 
ATOM      9  C   UNL     1      -8.574   3.317 121.853  0.00  0.00    +0.000 A 
ATOM     10  C   UNL     1      -8.530   3.769 120.529  0.00  0.00    +0.000 A 
ATOM     11  C   UNL     1      -7.312   4.081 119.951  0.00  0.00    +0.000 A 
ATOM     12  C   UNL     1      -6.146   3.915 120.693  0.00  0.00    +0.000 A 
ATOM     13  C   UNL     1      -6.193   3.407 122.003  0.00  0.00    +0.000 A 
ENDBRANCH   1   8
BRANCH   1  15
ATOM     14  C   UNL     1      -9.462   1.447 125.134  0.00  0.00    +0.000 C 
ATOM     15  O   UNL     1      -8.842   2.540 124.468  0.00  0.00    +0.000 OA
ENDBRANCH   1  15
BRANCH   1  16
ATOM     16  C   UNL     1      -6.553   3.515 125.046  0.00  0.00    +0.000 C 
BRANCH  16  17
ATOM     17  C   UNL     1      -6.966   4.966 125.155  0.00  0.00    +0.000 C 
ATOM     18  O   UNL     1      -6.181   5.911 125.029  0.00  0.00    +0.000 OA
BRANCH  17  19
ATOM     19  O   UNL     1      -8.287   5.183 125.379  0.00  0.00    +0.000 OA
ATOM     20  H   UNL     1      -8.776   5.321 124.539  0.00  0.00    +0.000 HD
ENDBRANCH  17  19
ENDBRANCH  16  17
BRANCH  16  21
ATOM     21  O   UNL     1      -6.538   3.065 126.414  0.00  0.00    +0.000 OA
BRANCH  21  22
ATOM     22  C   UNL     1      -5.444   3.410 127.156  0.00  0.00    +0.000 A 
ATOM     23  N   UNL     1      -5.607   3.871 128.397  0.00  0.00    +0.000 NA
ATOM     24  C   UNL     1      -4.494   4.161 129.089  0.00  0.00    +0.000 A 
ATOM     25  C   UNL     1      -4.692   4.729 130.460  0.00  0.00    +0.000 C 
ATOM     26  C   UNL     1      -3.235   3.929 128.574  0.00  0.00    +0.000 A 
ATOM     27  C   UNL     1      -3.176   3.419 127.290  0.00  0.00    +0.000 A 
ATOM     28  C   UNL     1      -1.871   3.070 126.645  0.00  0.00    +0.000 C 
ATOM     29  N   UNL     1      -4.278   3.169 126.560  0.00  0.00    +0.000 NA
ENDBRANCH  21  22
ENDBRANCH  16  21
ENDBRANCH   1  16
TORSDOF 8
ENDMDL
MODEL 5
REMARK VINA RESULT:      -7.6      2.748      6.244
REMARK  Name = Ambrisentan
REMARK  11 active torsions:
REMARK  status: ('A' for Active; 'I' for Inactive)
REMARK    1  A    between atoms: C_1  and  O_2
REMARK    2  A    between atoms: O_2  and  C_3
REMARK    3  A    between atoms: C_3  and  C_4
REMARK    4  A    between atoms: C_3  and  C_17
REMARK    5  A    between atoms: C_3  and  C_23
REMARK    6  A    between atoms: C_4  and  O_5
REMARK    7  A    between atoms: C_4  and  C_14
REMARK    8  A    between atoms: O_5  and  C_6
REMARK    9  A    between atoms: C_8  and  C_9
REMARK   10  A    between atoms: C_11  and  C_12
REMARK   11  A    between atoms: C_14  and  O_15
REMARK                            x       y       z     vdW  Elec       q    Type
REMARK                         _______ _______ _______ _____ _____    ______ ____
ROOT
ATOM      1  C   UNL     1      -7.908   2.416 124.363  0.00  0.00    +0.000 C 
ENDROOT
BRANCH   1   2
ATOM      2  C   UNL     1      -7.280   0.984 124.479  0.00  0.00    +0.000 A 
ATOM      3  C   UNL     1      -6.558   0.519 125.583  0.00  0.00    +0.000 A 
ATOM      4  C   UNL     1      -5.717  -0.582 125.528  0.00  0.00    +0.000 A 
ATOM      5  C   UNL     1      -5.774  -1.414 124.432  0.00  0.00    +0.000 A 
ATOM      6  C   UNL     1      -6.605  -1.086 123.369  0.00  0.00    +0.000 A 
ATOM      7  C   UNL     1      -7.316   0.114 123.373  0.00  0.00    +0.000 A 
ENDBRANCH   1   2
BRANCH   1   8
ATOM      8  C   UNL     1      -7.358   3.055 123.002  0.00  0.00    +0.000 A 
ATOM      9  C   UNL     1      -6.000   3.356 122.754  0.00  0.00    +0.000 A 
ATOM     10  C   UNL     1      -5.551   3.924 121.557  0.00  0.00    +0.000 A 
ATOM     11  C   UNL     1      -6.441   4.125 120.517  0.00  0.00    +0.000 A 
ATOM     12  C   UNL     1      -7.778   3.778 120.691  0.00  0.00    +0.000 A 
ATOM     13  C   UNL     1      -8.233   3.259 121.916  0.00  0.00    +0.000 A 
ENDBRANCH   1   8
BRANCH   1  15
ATOM     14  C   UNL     1     -10.146   1.280 124.552  0.00  0.00    +0.000 C 
ATOM     15  O   UNL     1      -9.347   2.388 124.157  0.00  0.00    +0.000 OA
ENDBRANCH   1  15
BRANCH   1  16
ATOM     16  C   UNL     1      -7.459   3.323 125.600  0.00  0.00    +0.000 C 
BRANCH  16  17
ATOM     17  C   UNL     1      -7.594   4.825 125.483  0.00  0.00    +0.000 C 
ATOM     18  O   UNL     1      -6.633   5.589 125.349  0.00  0.00    +0.000 OA
BRANCH  17  19
ATOM     19  O   UNL     1      -8.864   5.302 125.506  0.00  0.00    +0.000 OA
ATOM     20  H   UNL     1      -9.515   4.602 125.279  0.00  0.00    +0.000 HD
ENDBRANCH  17  19
ENDBRANCH  16  17
BRANCH  16  21
ATOM     21  O   UNL     1      -8.226   3.007 126.777  0.00  0.00    +0.000 OA
BRANCH  21  22
ATOM     22  C   UNL     1      -7.751   3.493 127.963  0.00  0.00    +0.000 A 
ATOM     23  N   UNL     1      -8.481   4.367 128.658  0.00  0.00    +0.000 NA
ATOM     24  C   UNL     1      -7.977   4.782 129.831  0.00  0.00    +0.000 A 
ATOM     25  C   UNL     1      -8.779   5.804 130.574  0.00  0.00    +0.000 C 
ATOM     26  C   UNL     1      -6.794   4.281 130.334  0.00  0.00    +0.000 A 
ATOM     27  C   UNL     1      -6.130   3.355 129.549  0.00  0.00    +0.000 A 
ATOM     28  C   UNL     1      -4.870   2.696 130.013  0.00  0.00    +0.000 C 
ATOM     29  N   UNL     1      -6.592   2.963 128.348  0.00  0.00    +0.000 NA
ENDBRANCH  21  22
ENDBRANCH  16  21
ENDBRANCH   1  16
TORSDOF 8
ENDMDL
MODEL 6
REMARK VINA RESULT:      -7.4      3.686      6.447
REMARK  Name = Ambrisentan
REMARK  11 active torsions:
REMARK  status: ('A' for Active; 'I' for Inactive)
REMARK    1  A    between atoms: C_1  and  O_2
REMARK    2  A    between atoms: O_2  and  C_3
REMARK    3  A    between atoms: C_3  and  C_4
REMARK    4  A    between atoms: C_3  and  C_17
REMARK    5  A    between atoms: C_3  and  C_23
REMARK    6  A    between atoms: C_4  and  O_5
REMARK    7  A    between atoms: C_4  and  C_14
REMARK    8  A    between atoms: O_5  and  C_6
REMARK    9  A    between atoms: C_8  and  C_9
REMARK   10  A    between atoms: C_11  and  C_12
REMARK   11  A    between atoms: C_14  and  O_15
REMARK                            x       y       z     vdW  Elec       q    Type
REMARK                         _______ _______ _______ _____ _____    ______ ____
ROOT
ATOM      1  C   UNL     1      -5.977   3.219 126.084  0.00  0.00    +0.000 C 
ENDROOT
BRANCH   1   2
ATOM      2  C   UNL     1      -4.564   3.696 126.568  0.00  0.00    +0.000 A 
ATOM      3  C   UNL     1      -3.381   2.965 126.413  0.00  0.00    +0.000 A 
ATOM      4  C   UNL     1      -2.233   3.218 127.149  0.00  0.00    +0.000 A 
ATOM      5  C   UNL     1      -2.150   4.383 127.878  0.00  0.00    +0.000 A 
ATOM      6  C   UNL     1      -3.245   5.235 127.933  0.00  0.00    +0.000 A 
ATOM      7  C   UNL     1      -4.447   4.879 127.322  0.00  0.00    +0.000 A 
ENDBRANCH   1   2
BRANCH   1   8
ATOM      8  C   UNL     1      -5.977   3.312 124.486  0.00  0.00    +0.000 A 
ATOM      9  C   UNL     1      -5.319   4.321 123.746  0.00  0.00    +0.000 A 
ATOM     10  C   UNL     1      -5.345   4.382 122.349  0.00  0.00    +0.000 A 
ATOM     11  C   UNL     1      -5.955   3.369 121.630  0.00  0.00    +0.000 A 
ATOM     12  C   UNL     1      -6.555   2.316 122.316  0.00  0.00    +0.000 A 
ATOM     13  C   UNL     1      -6.574   2.291 123.721  0.00  0.00    +0.000 A 
ENDBRANCH   1   8
BRANCH   1  15
ATOM     14  C   UNL     1      -5.881   1.191 127.571  0.00  0.00    +0.000 C 
ATOM     15  O   UNL     1      -6.213   1.806 126.332  0.00  0.00    +0.000 OA
ENDBRANCH   1  15
BRANCH   1  16
ATOM     16  C   UNL     1      -7.119   4.169 126.675  0.00  0.00    +0.000 C 
BRANCH  16  17
ATOM     17  C   UNL     1      -8.269   4.564 125.776  0.00  0.00    +0.000 C 
ATOM     18  O   UNL     1      -9.079   3.757 125.310  0.00  0.00    +0.000 OA
BRANCH  17  19
ATOM     19  O   UNL     1      -8.385   5.892 125.522  0.00  0.00    +0.000 OA
ATOM     20  H   UNL     1      -7.755   6.181 124.825  0.00  0.00    +0.000 HD
ENDBRANCH  17  19
ENDBRANCH  16  17
BRANCH  16  21
ATOM     21  O   UNL     1      -7.769   3.554 127.804  0.00  0.00    +0.000 OA
BRANCH  21  22
ATOM     22  C   UNL     1      -8.197   4.394 128.792  0.00  0.00    +0.000 A 
ATOM     23  N   UNL     1      -9.485   4.405 129.138  0.00  0.00    +0.000 NA
ATOM     24  C   UNL     1      -9.840   5.227 130.138  0.00  0.00    +0.000 A 
ATOM     25  C   UNL     1     -11.297   5.269 130.479  0.00  0.00    +0.000 C 
ATOM     26  C   UNL     1      -8.910   5.976 130.829  0.00  0.00    +0.000 A 
ATOM     27  C   UNL     1      -7.595   5.869 130.412  0.00  0.00    +0.000 A 
ATOM     28  C   UNL     1      -6.489   6.586 131.120  0.00  0.00    +0.000 C 
ATOM     29  N   UNL     1      -7.226   5.090 129.379  0.00  0.00    +0.000 NA
ENDBRANCH  21  22
ENDBRANCH  16  21
ENDBRANCH   1  16
TORSDOF 8
ENDMDL
MODEL 7
REMARK VINA RESULT:      -7.4      3.021      4.984
REMARK  Name = Ambrisentan
REMARK  11 active torsions:
REMARK  status: ('A' for Active; 'I' for Inactive)
REMARK    1  A    between atoms: C_1  and  O_2
REMARK    2  A    between atoms: O_2  and  C_3
REMARK    3  A    between atoms: C_3  and  C_4
REMARK    4  A    between atoms: C_3  and  C_17
REMARK    5  A    between atoms: C_3  and  C_23
REMARK    6  A    between atoms: C_4  and  O_5
REMARK    7  A    between atoms: C_4  and  C_14
REMARK    8  A    between atoms: O_5  and  C_6
REMARK    9  A    between atoms: C_8  and  C_9
REMARK   10  A    between atoms: C_11  and  C_12
REMARK   11  A    between atoms: C_14  and  O_15
REMARK                            x       y       z     vdW  Elec       q    Type
REMARK                         _______ _______ _______ _____ _____    ______ ____
ROOT
ATOM      1  C   UNL     1      -8.518  -1.594 125.108  0.00  0.00    +0.000 C 
ENDROOT
BRANCH   1   2
ATOM      2  C   UNL     1      -8.459  -2.203 126.551  0.00  0.00    +0.000 A 
ATOM      3  C   UNL     1      -7.570  -1.794 127.551  0.00  0.00    +0.000 A 
ATOM      4  C   UNL     1      -7.282  -2.563 128.669  0.00  0.00    +0.000 A 
ATOM      5  C   UNL     1      -8.075  -3.653 128.953  0.00  0.00    +0.000 A 
ATOM      6  C   UNL     1      -9.087  -4.010 128.072  0.00  0.00    +0.000 A 
ATOM      7  C   UNL     1      -9.251  -3.322 126.870  0.00  0.00    +0.000 A 
ENDBRANCH   1   2
BRANCH   1   8
ATOM      8  C   UNL     1      -7.216  -2.108 124.332  0.00  0.00    +0.000 A 
ATOM      9  C   UNL     1      -6.384  -3.159 124.780  0.00  0.00    +0.000 A 
ATOM     10  C   UNL     1      -5.245  -3.579 124.084  0.00  0.00    +0.000 A 
ATOM     11  C   UNL     1      -4.951  -3.024 122.852  0.00  0.00    +0.000 A 
ATOM     12  C   UNL     1      -5.783  -2.034 122.337  0.00  0.00    +0.000 A 
ATOM     13  C   UNL     1      -6.894  -1.576 123.067  0.00  0.00    +0.000 A 
ENDBRANCH   1   8
BRANCH   1  15
ATOM     14  C   UNL     1      -9.458  -3.292 123.506  0.00  0.00    +0.000 C 
ATOM     15  O   UNL     1      -9.610  -2.131 124.311  0.00  0.00    +0.000 OA
ENDBRANCH   1  15
BRANCH   1  16
ATOM     16  C   UNL     1      -8.505   0.003 125.176  0.00  0.00    +0.000 C 
BRANCH  16  17
ATOM     17  C   UNL     1      -9.365   0.777 124.202  0.00  0.00    +0.000 C 
ATOM     18  O   UNL     1      -8.915   1.367 123.214  0.00  0.00    +0.000 OA
BRANCH  17  19
ATOM     19  O   UNL     1     -10.696   0.766 124.460  0.00  0.00    +0.000 OA
ATOM     20  H   UNL     1     -11.214   1.103 123.695  0.00  0.00    +0.000 HD
ENDBRANCH  17  19
ENDBRANCH  16  17
BRANCH  16  21
ATOM     21  O   UNL     1      -8.953   0.469 126.464  0.00  0.00    +0.000 OA
BRANCH  21  22
ATOM     22  C   UNL     1      -8.260   1.512 127.010  0.00  0.00    +0.000 A 
ATOM     23  N   UNL     1      -8.817   2.240 127.979  0.00  0.00    +0.000 NA
ATOM     24  C   UNL     1      -8.074   3.229 128.499  0.00  0.00    +0.000 A 
ATOM     25  C   UNL     1      -8.731   4.073 129.547  0.00  0.00    +0.000 C 
ATOM     26  C   UNL     1      -6.770   3.446 128.105  0.00  0.00    +0.000 A 
ATOM     27  C   UNL     1      -6.276   2.615 127.115  0.00  0.00    +0.000 A 
ATOM     28  C   UNL     1      -4.859   2.713 126.646  0.00  0.00    +0.000 C 
ATOM     29  N   UNL     1      -7.020   1.650 126.545  0.00  0.00    +0.000 NA
ENDBRANCH  21  22
ENDBRANCH  16  21
ENDBRANCH   1  16
TORSDOF 8
ENDMDL
MODEL 8
REMARK VINA RESULT:      -7.3      3.730      6.634
REMARK  Name = Ambrisentan
REMARK  11 active torsions:
REMARK  status: ('A' for Active; 'I' for Inactive)
REMARK    1  A    between atoms: C_1  and  O_2
REMARK    2  A    between atoms: O_2  and  C_3
REMARK    3  A    between atoms: C_3  and  C_4
REMARK    4  A    between atoms: C_3  and  C_17
REMARK    5  A    between atoms: C_3  and  C_23
REMARK    6  A    between atoms: C_4  and  O_5
REMARK    7  A    between atoms: C_4  and  C_14
REMARK    8  A    between atoms: O_5  and  C_6
REMARK    9  A    between atoms: C_8  and  C_9
REMARK   10  A    between atoms: C_11  and  C_12
REMARK   11  A    between atoms: C_14  and  O_15
REMARK                            x       y       z     vdW  Elec       q    Type
REMARK                         _______ _______ _______ _____ _____    ______ ____
ROOT
ATOM      1  C   UNL     1      -6.294   3.196 126.242  0.00  0.00    +0.000 C 
ENDROOT
BRANCH   1   2
ATOM      2  C   UNL     1      -4.869   3.494 126.821  0.00  0.00    +0.000 A 
ATOM      3  C   UNL     1      -4.544   4.610 127.600  0.00  0.00    +0.000 A 
ATOM      4  C   UNL     1      -3.241   5.045 127.792  0.00  0.00    +0.000 A 
ATOM      5  C   UNL     1      -2.200   4.223 127.427  0.00  0.00    +0.000 A 
ATOM      6  C   UNL     1      -2.472   3.017 126.794  0.00  0.00    +0.000 A 
ATOM      7  C   UNL     1      -3.783   2.675 126.459  0.00  0.00    +0.000 A 
ENDBRANCH   1   2
BRANCH   1   8
ATOM      8  C   UNL     1      -6.169   3.252 124.647  0.00  0.00    +0.000 A 
ATOM      9  C   UNL     1      -5.484   4.263 123.937  0.00  0.00    +0.000 A 
ATOM     10  C   UNL     1      -5.401   4.291 122.540  0.00  0.00    +0.000 A 
ATOM     11  C   UNL     1      -5.921   3.243 121.801  0.00  0.00    +0.000 A 
ATOM     12  C   UNL     1      -6.544   2.189 122.464  0.00  0.00    +0.000 A 
ATOM     13  C   UNL     1      -6.675   2.195 123.863  0.00  0.00    +0.000 A 
ENDBRANCH   1   8
BRANCH   1  15
ATOM     14  C   UNL     1      -6.446   1.156 127.709  0.00  0.00    +0.000 C 
ATOM     15  O   UNL     1      -6.732   1.831 126.491  0.00  0.00    +0.000 OA
ENDBRANCH   1  15
BRANCH   1  16
ATOM     16  C   UNL     1      -7.339   4.300 126.736  0.00  0.00    +0.000 C 
BRANCH  16  17
ATOM     17  C   UNL     1      -8.462   4.702 125.805  0.00  0.00    +0.000 C 
ATOM     18  O   UNL     1      -9.168   3.892 125.198  0.00  0.00    +0.000 OA
BRANCH  17  19
ATOM     19  O   UNL     1      -8.676   6.037 125.690  0.00  0.00    +0.000 OA
ATOM     20  H   UNL     1      -8.739   6.310 124.748  0.00  0.00    +0.000 HD
ENDBRANCH  17  19
ENDBRANCH  16  17
BRANCH  16  21
ATOM     21  O   UNL     1      -8.027   3.866 127.925  0.00  0.00    +0.000 OA
BRANCH  21  22
ATOM     22  C   UNL     1      -8.215   4.806 128.898  0.00  0.00    +0.000 A 
ATOM     23  N   UNL     1      -7.245   5.045 129.782  0.00  0.00    +0.000 NA
ATOM     24  C   UNL     1      -7.476   6.003 130.693  0.00  0.00    +0.000 A 
ATOM     25  C   UNL     1      -6.402   6.223 131.713  0.00  0.00    +0.000 C 
ATOM     26  C   UNL     1      -8.630   6.759 130.680  0.00  0.00    +0.000 A 
ATOM     27  C   UNL     1      -9.559   6.452 129.701  0.00  0.00    +0.000 A 
ATOM     28  C   UNL     1     -10.822   7.240 129.548  0.00  0.00    +0.000 C 
ATOM     29  N   UNL     1      -9.370   5.462 128.810  0.00  0.00    +0.000 NA
ENDBRANCH  21  22
ENDBRANCH  16  21
ENDBRANCH   1  16
TORSDOF 8
ENDMDL
MODEL 9
REMARK VINA RESULT:      -7.2      2.575      6.200
REMARK  Name = Ambrisentan
REMARK  11 active torsions:
REMARK  status: ('A' for Active; 'I' for Inactive)
REMARK    1  A    between atoms: C_1  and  O_2
REMARK    2  A    between atoms: O_2  and  C_3
REMARK    3  A    between atoms: C_3  and  C_4
REMARK    4  A    between atoms: C_3  and  C_17
REMARK    5  A    between atoms: C_3  and  C_23
REMARK    6  A    between atoms: C_4  and  O_5
REMARK    7  A    between atoms: C_4  and  C_14
REMARK    8  A    between atoms: O_5  and  C_6
REMARK    9  A    between atoms: C_8  and  C_9
REMARK   10  A    between atoms: C_11  and  C_12
REMARK   11  A    between atoms: C_14  and  O_15
REMARK                            x       y       z     vdW  Elec       q    Type
REMARK                         _______ _______ _______ _____ _____    ______ ____
ROOT
ATOM      1  C   UNL     1      -6.129   2.831 125.485  0.00  0.00    +0.000 C 
ENDROOT
BRANCH   1   2
ATOM      2  C   UNL     1      -6.029   3.252 123.979  0.00  0.00    +0.000 A 
ATOM      3  C   UNL     1      -6.594   2.539 122.915  0.00  0.00    +0.000 A 
ATOM      4  C   UNL     1      -6.201   2.711 121.596  0.00  0.00    +0.000 A 
ATOM      5  C   UNL     1      -5.413   3.791 121.268  0.00  0.00    +0.000 A 
ATOM      6  C   UNL     1      -4.956   4.634 122.273  0.00  0.00    +0.000 A 
ATOM      7  C   UNL     1      -5.226   4.347 123.611  0.00  0.00    +0.000 A 
ENDBRANCH   1   2
BRANCH   1   8
ATOM      8  C   UNL     1      -4.856   3.456 126.227  0.00  0.00    +0.000 A 
ATOM      9  C   UNL     1      -4.903   4.584 127.077  0.00  0.00    +0.000 A 
ATOM     10  C   UNL     1      -3.770   5.114 127.704  0.00  0.00    +0.000 A 
ATOM     11  C   UNL     1      -2.553   4.467 127.582  0.00  0.00    +0.000 A 
ATOM     12  C   UNL     1      -2.473   3.310 126.812  0.00  0.00    +0.000 A 
ATOM     13  C   UNL     1      -3.603   2.815 126.137  0.00  0.00    +0.000 A 
ENDBRANCH   1   8
BRANCH   1  15
ATOM     14  C   UNL     1      -8.218   4.235 125.487  0.00  0.00    +0.000 C 
ATOM     15  O   UNL     1      -7.250   3.452 126.173  0.00  0.00    +0.000 OA
ENDBRANCH   1  15
BRANCH   1  16
ATOM     16  C   UNL     1      -6.100   1.238 125.622  0.00  0.00    +0.000 C 
BRANCH  16  17
ATOM     17  C   UNL     1      -5.963   0.633 127.002  0.00  0.00    +0.000 C 
ATOM     18  O   UNL     1      -6.724   0.890 127.939  0.00  0.00    +0.000 OA
BRANCH  17  19
ATOM     19  O   UNL     1      -4.947  -0.253 127.153  0.00  0.00    +0.000 OA
ATOM     20  H   UNL     1      -4.252   0.097 127.754  0.00  0.00    +0.000 HD
ENDBRANCH  17  19
ENDBRANCH  16  17
BRANCH  16  21
ATOM     21  O   UNL     1      -7.317   0.654 125.118  0.00  0.00    +0.000 OA
BRANCH  21  22
ATOM     22  C   UNL     1      -7.211  -0.589 124.562  0.00  0.00    +0.000 A 
ATOM     23  N   UNL     1      -6.008  -1.145 124.412  0.00  0.00    +0.000 NA
ATOM     24  C   UNL     1      -5.971  -2.381 123.891  0.00  0.00    +0.000 A 
ATOM     25  C   UNL     1      -4.612  -2.972 123.677  0.00  0.00    +0.000 C 
ATOM     26  C   UNL     1      -7.122  -3.079 123.587  0.00  0.00    +0.000 A 
ATOM     27  C   UNL     1      -8.320  -2.424 123.810  0.00  0.00    +0.000 A 
ATOM     28  C   UNL     1      -9.635  -3.098 123.576  0.00  0.00    +0.000 C 
ATOM     29  N   UNL     1      -8.378  -1.166 124.285  0.00  0.00    +0.000 NA
ENDBRANCH  21  22
ENDBRANCH  16  21
ENDBRANCH   1  16
TORSDOF 8
ENDMDL
