MODEL 1
REMARK VINA RESULT:      -6.5      0.000      0.000
REMARK  Name = Ambroxol
REMARK  5 active torsions:
REMARK  status: ('A' for Active; 'I' for Inactive)
REMARK    1  A    between atoms: N_1  and  C_2
REMARK    2  A    between atoms: C_9  and  C_10
REMARK    3  A    between atoms: C_10  and  N_11
REMARK    4  A    between atoms: N_11  and  C_12
REMARK    5  A    between atoms: C_15  and  O_16
REMARK                            x       y       z     vdW  Elec       q    Type
REMARK                         _______ _______ _______ _____ _____    ______ ____
ROOT
ATOM      1  C   UNL     1      -8.807   5.049 133.061  0.00  0.00    +0.000 A 
ATOM      2  C   UNL     1      -7.623   5.456 133.718  0.00  0.00    +0.000 A 
ATOM      3 BR   UNL     1      -7.429   5.227 135.596  0.00  0.00    +0.000 Br
ATOM      4  C   UNL     1      -6.568   6.042 133.018  0.00  0.00    +0.000 A 
ATOM      5  C   UNL     1      -6.680   6.239 131.651  0.00  0.00    +0.000 A 
ATOM      6 BR   UNL     1      -5.254   7.027 130.689  0.00  0.00    +0.000 Br
ATOM      7  C   UNL     1      -7.829   5.828 130.967  0.00  0.00    +0.000 A 
ATOM      8  C   UNL     1      -8.868   5.170 131.652  0.00  0.00    +0.000 A 
ENDROOT
BRANCH   1   9
ATOM      9  N   UNL     1      -9.801   4.334 133.761  0.00  0.00    +0.000 N 
ATOM     10  H   UNL     1      -9.486   3.924 134.635  0.00  0.00    +0.000 HD
ATOM     11  H   UNL     1     -10.713   4.776 133.842  0.00  0.00    +0.000 HD
ENDBRANCH   1   9
BRANCH   8  12
ATOM     12  C   UNL     1     -10.095   4.638 130.933  0.00  0.00    +0.000 C 
BRANCH  12  13
ATOM     13  N   UNL     1     -11.316   5.399 131.093  0.00  0.00    +0.000 NA
ATOM     14  H   UNL     1     -12.049   5.018 131.678  0.00  0.00    +0.000 HD
BRANCH  13  15
ATOM     15  C   UNL     1     -11.453   6.736 130.551  0.00  0.00    +0.000 C 
ATOM     16  C   UNL     1     -11.294   6.951 129.024  0.00  0.00    +0.000 C 
ATOM     17  C   UNL     1     -11.482   8.452 128.703  0.00  0.00    +0.000 C 
ATOM     18  C   UNL     1     -12.837   8.970 129.194  0.00  0.00    +0.000 C 
ATOM     19  C   UNL     1     -12.999   8.745 130.690  0.00  0.00    +0.000 C 
ATOM     20  C   UNL     1     -12.804   7.291 131.011  0.00  0.00    +0.000 C 
BRANCH  18  21
ATOM     21  O   UNL     1     -12.971  10.358 128.925  0.00  0.00    +0.000 OA
ATOM     22  H   UNL     1     -12.724  10.506 127.996  0.00  0.00    +0.000 HD
ENDBRANCH  18  21
ENDBRANCH  13  15
ENDBRANCH  12  13
ENDBRANCH   8  12
TORSDOF 5
ENDMDL
MODEL 2
REMARK VINA RESULT:      -6.4      2.093      2.709
REMARK  Name = Ambroxol
REMARK  5 active torsions:
REMARK  status: ('A' for Active; 'I' for Inactive)
REMARK    1  A    between atoms: N_1  and  C_2
REMARK    2  A    between atoms: C_9  and  C_10
REMARK    3  A    between atoms: C_10  and  N_11
REMARK    4  A    between atoms: N_11  and  C_12
REMARK    5  A    between atoms: C_15  and  O_16
REMARK                            x       y       z     vdW  Elec       q    Type
REMARK                         _______ _______ _______ _____ _____    ______ ____
ROOT
ATOM      1  C   UNL     1      -9.305   4.515 132.590  0.00  0.00    +0.000 A 
ATOM      2  C   UNL     1      -8.451   3.921 133.548  0.00  0.00    +0.000 A 
ATOM      3 BR   UNL     1      -7.813   4.924 135.033  0.00  0.00    +0.000 Br
ATOM      4  C   UNL     1      -8.043   2.592 133.432  0.00  0.00    +0.000 A 
ATOM      5  C   UNL     1      -8.476   1.835 132.355  0.00  0.00    +0.000 A 
ATOM      6 BR   UNL     1      -7.934   0.029 132.190  0.00  0.00    +0.000 Br
ATOM      7  C   UNL     1      -9.338   2.385 131.402  0.00  0.00    +0.000 A 
ATOM      8  C   UNL     1      -9.813   3.703 131.549  0.00  0.00    +0.000 A 
ENDROOT
BRANCH   1   9
ATOM      9  N   UNL     1      -9.815   5.813 132.800  0.00  0.00    +0.000 N 
ATOM     10  H   UNL     1     -10.536   5.872 133.512  0.00  0.00    +0.000 HD
ATOM     11  H   UNL     1      -9.137   6.568 132.865  0.00  0.00    +0.000 HD
ENDBRANCH   1   9
BRANCH   8  12
ATOM     12  C   UNL     1     -10.812   4.310 130.580  0.00  0.00    +0.000 C 
BRANCH  12  13
ATOM     13  N   UNL     1     -10.270   5.168 129.548  0.00  0.00    +0.000 NA
ATOM     14  H   UNL     1      -9.654   4.760 128.856  0.00  0.00    +0.000 HD
BRANCH  13  15
ATOM     15  C   UNL     1     -10.691   6.548 129.410  0.00  0.00    +0.000 C 
ATOM     16  C   UNL     1     -10.653   7.211 128.010  0.00  0.00    +0.000 C 
ATOM     17  C   UNL     1     -11.145   8.672 128.130  0.00  0.00    +0.000 C 
ATOM     18  C   UNL     1     -12.550   8.748 128.737  0.00  0.00    +0.000 C 
ATOM     19  C   UNL     1     -12.590   8.082 130.105  0.00  0.00    +0.000 C 
ATOM     20  C   UNL     1     -12.101   6.668 129.998  0.00  0.00    +0.000 C 
BRANCH  18  21
ATOM     21  O   UNL     1     -12.964  10.099 128.876  0.00  0.00    +0.000 OA
ATOM     22  H   UNL     1     -13.243  10.416 127.999  0.00  0.00    +0.000 HD
ENDBRANCH  18  21
ENDBRANCH  13  15
ENDBRANCH  12  13
ENDBRANCH   8  12
TORSDOF 5
ENDMDL
MODEL 3
REMARK VINA RESULT:      -6.0      8.642      9.639
REMARK  Name = Ambroxol
REMARK  5 active torsions:
REMARK  status: ('A' for Active; 'I' for Inactive)
REMARK    1  A    between atoms: N_1  and  C_2
REMARK    2  A    between atoms: C_9  and  C_10
REMARK    3  A    between atoms: C_10  and  N_11
REMARK    4  A    between atoms: N_11  and  C_12
REMARK    5  A    between atoms: C_15  and  O_16
REMARK                            x       y       z     vdW  Elec       q    Type
REMARK                         _______ _______ _______ _____ _____    ______ ____
ROOT
ATOM      1  C   UNL     1      -7.935  -0.945 127.538  0.00  0.00    +0.000 A 
ATOM      2  C   UNL     1      -8.090  -2.350 127.494  0.00  0.00    +0.000 A 
ATOM      3 BR   UNL     1      -7.719  -3.415 129.025  0.00  0.00    +0.000 Br
ATOM      4  C   UNL     1      -8.510  -2.998 126.332  0.00  0.00    +0.000 A 
ATOM      5  C   UNL     1      -8.775  -2.256 125.192  0.00  0.00    +0.000 A 
ATOM      6 BR   UNL     1      -9.350  -3.124 123.612  0.00  0.00    +0.000 Br
ATOM      7  C   UNL     1      -8.652  -0.863 125.208  0.00  0.00    +0.000 A 
ATOM      8  C   UNL     1      -8.299  -0.194 126.395  0.00  0.00    +0.000 A 
ENDROOT
BRANCH   1   9
ATOM      9  N   UNL     1      -7.645  -0.299 128.757  0.00  0.00    +0.000 N 
ATOM     10  H   UNL     1      -7.029  -0.820 129.373  0.00  0.00    +0.000 HD
ATOM     11  H   UNL     1      -7.407   0.689 128.708  0.00  0.00    +0.000 HD
ENDBRANCH   1   9
BRANCH   8  12
ATOM     12  C   UNL     1      -8.233   1.321 126.475  0.00  0.00    +0.000 C 
BRANCH  12  13
ATOM     13  N   UNL     1      -8.991   2.053 125.482  0.00  0.00    +0.000 NA
ATOM     14  H   UNL     1      -9.996   2.107 125.586  0.00  0.00    +0.000 HD
BRANCH  13  15
ATOM     15  C   UNL     1      -8.336   2.810 124.434  0.00  0.00    +0.000 C 
ATOM     16  C   UNL     1      -6.789   2.782 124.337  0.00  0.00    +0.000 C 
ATOM     17  C   UNL     1      -6.342   3.663 123.148  0.00  0.00    +0.000 C 
ATOM     18  C   UNL     1      -6.984   3.208 121.833  0.00  0.00    +0.000 C 
ATOM     19  C   UNL     1      -8.502   3.219 121.934  0.00  0.00    +0.000 C 
ATOM     20  C   UNL     1      -8.943   2.377 123.095  0.00  0.00    +0.000 C 
BRANCH  18  21
ATOM     21  O   UNL     1      -6.592   4.054 120.763  0.00  0.00    +0.000 OA
ATOM     22  H   UNL     1      -7.044   3.746 119.959  0.00  0.00    +0.000 HD
ENDBRANCH  18  21
ENDBRANCH  13  15
ENDBRANCH  12  13
ENDBRANCH   8  12
TORSDOF 5
ENDMDL
MODEL 4
REMARK VINA RESULT:      -5.9      2.253      3.142
REMARK  Name = Ambroxol
REMARK  5 active torsions:
REMARK  status: ('A' for Active; 'I' for Inactive)
REMARK    1  A    between atoms: N_1  and  C_2
REMARK    2  A    between atoms: C_9  and  C_10
REMARK    3  A    between atoms: C_10  and  N_11
REMARK    4  A    between atoms: N_11  and  C_12
REMARK    5  A    between atoms: C_15  and  O_16
REMARK                            x       y       z     vdW  Elec       q    Type
REMARK                         _______ _______ _______ _____ _____    ______ ____
ROOT
ATOM      1  C   UNL     1      -9.370   3.369 132.406  0.00  0.00    +0.000 A 
ATOM      2  C   UNL     1      -8.575   2.224 132.649  0.00  0.00    +0.000 A 
ATOM      3 BR   UNL     1      -8.994   0.561 131.825  0.00  0.00    +0.000 Br
ATOM      4  C   UNL     1      -7.471   2.273 133.499  0.00  0.00    +0.000 A 
ATOM      5  C   UNL     1      -7.145   3.464 134.129  0.00  0.00    +0.000 A 
ATOM      6 BR   UNL     1      -5.646   3.545 135.281  0.00  0.00    +0.000 Br
ATOM      7  C   UNL     1      -7.897   4.619 133.895  0.00  0.00    +0.000 A 
ATOM      8  C   UNL     1      -8.969   4.597 132.982  0.00  0.00    +0.000 A 
ENDROOT
BRANCH   1   9
ATOM      9  N   UNL     1     -10.394   3.332 131.438  0.00  0.00    +0.000 N 
ATOM     10  H   UNL     1     -10.074   3.141 130.494  0.00  0.00    +0.000 HD
ATOM     11  H   UNL     1     -11.235   2.813 131.679  0.00  0.00    +0.000 HD
ENDBRANCH   1   9
BRANCH   8  12
ATOM     12  C   UNL     1      -9.760   5.848 132.640  0.00  0.00    +0.000 C 
BRANCH  12  13
ATOM     13  N   UNL     1      -9.596   6.367 131.299  0.00  0.00    +0.000 NA
ATOM     14  H   UNL     1      -8.660   6.433 130.918  0.00  0.00    +0.000 HD
BRANCH  13  15
ATOM     15  C   UNL     1     -10.737   6.662 130.455  0.00  0.00    +0.000 C 
ATOM     16  C   UNL     1     -12.092   7.018 131.116  0.00  0.00    +0.000 C 
ATOM     17  C   UNL     1     -13.139   7.285 130.010  0.00  0.00    +0.000 C 
ATOM     18  C   UNL     1     -12.684   8.394 129.056  0.00  0.00    +0.000 C 
ATOM     19  C   UNL     1     -11.345   8.051 128.419  0.00  0.00    +0.000 C 
ATOM     20  C   UNL     1     -10.328   7.777 129.488  0.00  0.00    +0.000 C 
BRANCH  18  21
ATOM     21  O   UNL     1     -13.641   8.594 128.026  0.00  0.00    +0.000 OA
ATOM     22  H   UNL     1     -14.128   7.760 127.906  0.00  0.00    +0.000 HD
ENDBRANCH  18  21
ENDBRANCH  13  15
ENDBRANCH  12  13
ENDBRANCH   8  12
TORSDOF 5
ENDMDL
MODEL 5
REMARK VINA RESULT:      -5.9      2.422      3.194
REMARK  Name = Ambroxol
REMARK  5 active torsions:
REMARK  status: ('A' for Active; 'I' for Inactive)
REMARK    1  A    between atoms: N_1  and  C_2
REMARK    2  A    between atoms: C_9  and  C_10
REMARK    3  A    between atoms: C_10  and  N_11
REMARK    4  A    between atoms: N_11  and  C_12
REMARK    5  A    between atoms: C_15  and  O_16
REMARK                            x       y       z     vdW  Elec       q    Type
REMARK                         _______ _______ _______ _____ _____    ______ ____
ROOT
ATOM      1  C   UNL     1      -7.464   4.385 133.886  0.00  0.00    +0.000 A 
ATOM      2  C   UNL     1      -6.832   3.136 134.088  0.00  0.00    +0.000 A 
ATOM      3 BR   UNL     1      -5.301   2.994 135.208  0.00  0.00    +0.000 Br
ATOM      4  C   UNL     1      -7.300   1.976 133.471  0.00  0.00    +0.000 A 
ATOM      5  C   UNL     1      -8.404   2.044 132.635  0.00  0.00    +0.000 A 
ATOM      6 BR   UNL     1      -9.053   0.476 131.798  0.00  0.00    +0.000 Br
ATOM      7  C   UNL     1      -9.065   3.259 132.431  0.00  0.00    +0.000 A 
ATOM      8  C   UNL     1      -8.644   4.420 133.106  0.00  0.00    +0.000 A 
ENDROOT
BRANCH   1   9
ATOM      9  N   UNL     1      -7.060   5.515 134.626  0.00  0.00    +0.000 N 
ATOM     10  H   UNL     1      -7.773   5.890 135.244  0.00  0.00    +0.000 HD
ATOM     11  H   UNL     1      -6.144   5.472 135.065  0.00  0.00    +0.000 HD
ENDBRANCH   1   9
BRANCH   8  12
ATOM     12  C   UNL     1      -9.383   5.740 132.973  0.00  0.00    +0.000 C 
BRANCH  12  13
ATOM     13  N   UNL     1     -10.775   5.663 132.585  0.00  0.00    +0.000 NA
ATOM     14  H   UNL     1     -11.439   5.271 133.241  0.00  0.00    +0.000 HD
BRANCH  13  15
ATOM     15  C   UNL     1     -11.251   6.251 131.348  0.00  0.00    +0.000 C 
ATOM     16  C   UNL     1     -12.492   7.179 131.382  0.00  0.00    +0.000 C 
ATOM     17  C   UNL     1     -12.794   7.671 129.948  0.00  0.00    +0.000 C 
ATOM     18  C   UNL     1     -11.589   8.386 129.329  0.00  0.00    +0.000 C 
ATOM     19  C   UNL     1     -10.366   7.480 129.310  0.00  0.00    +0.000 C 
ATOM     20  C   UNL     1     -10.075   6.988 130.699  0.00  0.00    +0.000 C 
BRANCH  18  21
ATOM     21  O   UNL     1     -11.875   8.792 127.999  0.00  0.00    +0.000 OA
ATOM     22  H   UNL     1     -11.141   8.497 127.433  0.00  0.00    +0.000 HD
ENDBRANCH  18  21
ENDBRANCH  13  15
ENDBRANCH  12  13
ENDBRANCH   8  12
TORSDOF 5
ENDMDL
MODEL 6
REMARK VINA RESULT:      -5.8      1.524      1.968
REMARK  Name = Ambroxol
REMARK  5 active torsions:
REMARK  status: ('A' for Active; 'I' for Inactive)
REMARK    1  A    between atoms: N_1  and  C_2
REMARK    2  A    between atoms: C_9  and  C_10
REMARK    3  A    between atoms: C_10  and  N_11
REMARK    4  A    between atoms: N_11  and  C_12
REMARK    5  A    between atoms: C_15  and  O_16
REMARK                            x       y       z     vdW  Elec       q    Type
REMARK                         _______ _______ _______ _____ _____    ______ ____
ROOT
ATOM      1  C   UNL     1      -8.388   3.961 133.054  0.00  0.00    +0.000 A 
ATOM      2  C   UNL     1      -7.095   3.410 132.900  0.00  0.00    +0.000 A 
ATOM      3 BR   UNL     1      -6.761   1.586 133.325  0.00  0.00    +0.000 Br
ATOM      4  C   UNL     1      -6.026   4.181 132.444  0.00  0.00    +0.000 A 
ATOM      5  C   UNL     1      -6.228   5.518 132.140  0.00  0.00    +0.000 A 
ATOM      6 BR   UNL     1      -4.788   6.574 131.514  0.00  0.00    +0.000 Br
ATOM      7  C   UNL     1      -7.499   6.089 132.260  0.00  0.00    +0.000 A 
ATOM      8  C   UNL     1      -8.599   5.301 132.650  0.00  0.00    +0.000 A 
ENDROOT
BRANCH   1   9
ATOM      9  N   UNL     1      -9.481   3.132 133.382  0.00  0.00    +0.000 N 
ATOM     10  H   UNL     1      -9.673   3.064 134.377  0.00  0.00    +0.000 HD
ATOM     11  H   UNL     1     -10.325   3.244 132.827  0.00  0.00    +0.000 HD
ENDBRANCH   1   9
BRANCH   8  12
ATOM     12  C   UNL     1     -10.008   5.863 132.716  0.00  0.00    +0.000 C 
BRANCH  12  13
ATOM     13  N   UNL     1     -10.946   5.367 131.731  0.00  0.00    +0.000 NA
ATOM     14  H   UNL     1     -11.201   4.388 131.756  0.00  0.00    +0.000 HD
BRANCH  13  15
ATOM     15  C   UNL     1     -11.619   6.261 130.808  0.00  0.00    +0.000 C 
ATOM     16  C   UNL     1     -12.718   7.212 131.346  0.00  0.00    +0.000 C 
ATOM     17  C   UNL     1     -13.276   8.051 130.174  0.00  0.00    +0.000 C 
ATOM     18  C   UNL     1     -12.170   8.835 129.461  0.00  0.00    +0.000 C 
ATOM     19  C   UNL     1     -11.083   7.902 128.948  0.00  0.00    +0.000 C 
ATOM     20  C   UNL     1     -10.546   7.075 130.079  0.00  0.00    +0.000 C 
BRANCH  18  21
ATOM     21  O   UNL     1     -12.699   9.566 128.365  0.00  0.00    +0.000 OA
ATOM     22  H   UNL     1     -11.965   9.761 127.755  0.00  0.00    +0.000 HD
ENDBRANCH  18  21
ENDBRANCH  13  15
ENDBRANCH  12  13
ENDBRANCH   8  12
TORSDOF 5
ENDMDL
MODEL 7
REMARK VINA RESULT:      -5.8      9.231     10.558
REMARK  Name = Ambroxol
REMARK  5 active torsions:
REMARK  status: ('A' for Active; 'I' for Inactive)
REMARK    1  A    between atoms: N_1  and  C_2
REMARK    2  A    between atoms: C_9  and  C_10
REMARK    3  A    between atoms: C_10  and  N_11
REMARK    4  A    between atoms: N_11  and  C_12
REMARK    5  A    between atoms: C_15  and  O_16
REMARK                            x       y       z     vdW  Elec       q    Type
REMARK                         _______ _______ _______ _____ _____    ______ ____
ROOT
ATOM      1  C   UNL     1      -7.467  -1.666 125.277  0.00  0.00    +0.000 A 
ATOM      2  C   UNL     1      -7.749  -2.606 124.259  0.00  0.00    +0.000 A 
ATOM      3 BR   UNL     1      -9.503  -2.760 123.540  0.00  0.00    +0.000 Br
ATOM      4  C   UNL     1      -6.760  -3.452 123.757  0.00  0.00    +0.000 A 
ATOM      5  C   UNL     1      -5.474  -3.380 124.268  0.00  0.00    +0.000 A 
ATOM      6 BR   UNL     1      -4.122  -4.518 123.591  0.00  0.00    +0.000 Br
ATOM      7  C   UNL     1      -5.156  -2.446 125.259  0.00  0.00    +0.000 A 
ATOM      8  C   UNL     1      -6.129  -1.539 125.720  0.00  0.00    +0.000 A 
ENDROOT
BRANCH   1   9
ATOM      9  N   UNL     1      -8.444  -0.728 125.670  0.00  0.00    +0.000 N 
ATOM     10  H   UNL     1      -8.113   0.231 125.714  0.00  0.00    +0.000 HD
ATOM     11  H   UNL     1      -9.358  -0.807 125.233  0.00  0.00    +0.000 HD
ENDBRANCH   1   9
BRANCH   8  12
ATOM     12  C   UNL     1      -5.804  -0.459 126.737  0.00  0.00    +0.000 C 
BRANCH  12  13
ATOM     13  N   UNL     1      -4.898   0.583 126.304  0.00  0.00    +0.000 NA
ATOM     14  H   UNL     1      -3.991   0.315 125.943  0.00  0.00    +0.000 HD
BRANCH  13  15
ATOM     15  C   UNL     1      -5.310   1.972 126.251  0.00  0.00    +0.000 C 
ATOM     16  C   UNL     1      -4.226   3.079 126.227  0.00  0.00    +0.000 C 
ATOM     17  C   UNL     1      -4.918   4.461 126.173  0.00  0.00    +0.000 C 
ATOM     18  C   UNL     1      -5.851   4.580 124.964  0.00  0.00    +0.000 C 
ATOM     19  C   UNL     1      -6.906   3.482 124.978  0.00  0.00    +0.000 C 
ATOM     20  C   UNL     1      -6.241   2.138 125.045  0.00  0.00    +0.000 C 
BRANCH  18  21
ATOM     21  O   UNL     1      -6.505   5.840 124.956  0.00  0.00    +0.000 OA
ATOM     22  H   UNL     1      -6.315   6.279 125.803  0.00  0.00    +0.000 HD
ENDBRANCH  18  21
ENDBRANCH  13  15
ENDBRANCH  12  13
ENDBRANCH   8  12
TORSDOF 5
ENDMDL
MODEL 8
REMARK VINA RESULT:      -5.8      8.989     10.557
REMARK  Name = Ambroxol
REMARK  5 active torsions:
REMARK  status: ('A' for Active; 'I' for Inactive)
REMARK    1  A    between atoms: N_1  and  C_2
REMARK    2  A    between atoms: C_9  and  C_10
REMARK    3  A    between atoms: C_10  and  N_11
REMARK    4  A    between atoms: N_11  and  C_12
REMARK    5  A    between atoms: C_15  and  O_16
REMARK                            x       y       z     vdW  Elec       q    Type
REMARK                         _______ _______ _______ _____ _____    ______ ____
ROOT
ATOM      1  C   UNL     1      -7.456   3.332 124.628  0.00  0.00    +0.000 A 
ATOM      2  C   UNL     1      -6.195   3.969 124.565  0.00  0.00    +0.000 A 
ATOM      3 BR   UNL     1      -5.300   4.506 126.155  0.00  0.00    +0.000 Br
ATOM      4  C   UNL     1      -5.572   4.230 123.344  0.00  0.00    +0.000 A 
ATOM      5  C   UNL     1      -6.202   3.867 122.164  0.00  0.00    +0.000 A 
ATOM      6 BR   UNL     1      -5.365   4.210 120.502  0.00  0.00    +0.000 Br
ATOM      7  C   UNL     1      -7.439   3.216 122.191  0.00  0.00    +0.000 A 
ATOM      8  C   UNL     1      -8.041   2.883 123.420  0.00  0.00    +0.000 A 
ENDROOT
BRANCH   1   9
ATOM      9  N   UNL     1      -8.001   2.954 125.871  0.00  0.00    +0.000 N 
ATOM     10  H   UNL     1      -8.626   3.639 126.283  0.00  0.00    +0.000 HD
ATOM     11  H   UNL     1      -8.356   2.004 125.947  0.00  0.00    +0.000 HD
ENDBRANCH   1   9
BRANCH   8  12
ATOM     12  C   UNL     1      -9.344   2.108 123.493  0.00  0.00    +0.000 C 
BRANCH  12  13
ATOM     13  N   UNL     1      -9.318   0.754 122.983  0.00  0.00    +0.000 NA
ATOM     14  H   UNL     1      -9.554   0.599 122.011  0.00  0.00    +0.000 HD
BRANCH  13  15
ATOM     15  C   UNL     1      -8.836  -0.351 123.788  0.00  0.00    +0.000 C 
ATOM     16  C   UNL     1      -9.211  -0.409 125.291  0.00  0.00    +0.000 C 
ATOM     17  C   UNL     1      -8.579  -1.671 125.921  0.00  0.00    +0.000 C 
ATOM     18  C   UNL     1      -9.017  -2.947 125.195  0.00  0.00    +0.000 C 
ATOM     19  C   UNL     1      -8.662  -2.883 123.716  0.00  0.00    +0.000 C 
ATOM     20  C   UNL     1      -9.263  -1.652 123.101  0.00  0.00    +0.000 C 
BRANCH  18  21
ATOM     21  O   UNL     1      -8.393  -4.088 125.763  0.00  0.00    +0.000 OA
ATOM     22  H   UNL     1      -7.435  -4.012 125.609  0.00  0.00    +0.000 HD
ENDBRANCH  18  21
ENDBRANCH  13  15
ENDBRANCH  12  13
ENDBRANCH   8  12
TORSDOF 5
ENDMDL
MODEL 9
REMARK VINA RESULT:      -5.7      8.795     10.277
REMARK  Name = Ambroxol
REMARK  5 active torsions:
REMARK  status: ('A' for Active; 'I' for Inactive)
REMARK    1  A    between atoms: N_1  and  C_2
REMARK    2  A    between atoms: C_9  and  C_10
REMARK    3  A    between atoms: C_10  and  N_11
REMARK    4  A    between atoms: N_11  and  C_12
REMARK    5  A    between atoms: C_15  and  O_16
REMARK                            x       y       z     vdW  Elec       q    Type
REMARK                         _______ _______ _______ _____ _____    ______ ____
ROOT
ATOM      1  C   UNL     1      -7.263  -1.742 124.767  0.00  0.00    +0.000 A 
ATOM      2  C   UNL     1      -8.333  -2.639 124.991  0.00  0.00    +0.000 A 
ATOM      3 BR   UNL     1      -9.413  -3.241 123.545  0.00  0.00    +0.000 Br
ATOM      4  C   UNL     1      -8.638  -3.102 126.271  0.00  0.00    +0.000 A 
ATOM      5  C   UNL     1      -7.883  -2.673 127.351  0.00  0.00    +0.000 A 
ATOM      6 BR   UNL     1      -8.282  -3.299 129.092  0.00  0.00    +0.000 Br
ATOM      7  C   UNL     1      -6.804  -1.803 127.162  0.00  0.00    +0.000 A 
ATOM      8  C   UNL     1      -6.445  -1.388 125.866  0.00  0.00    +0.000 A 
ENDROOT
BRANCH   1   9
ATOM      9  N   UNL     1      -6.887  -1.397 123.453  0.00  0.00    +0.000 N 
ATOM     10  H   UNL     1      -7.517  -1.736 122.732  0.00  0.00    +0.000 HD
ATOM     11  H   UNL     1      -6.595  -0.435 123.297  0.00  0.00    +0.000 HD
ENDBRANCH   1   9
BRANCH   8  12
ATOM     12  C   UNL     1      -5.233  -0.509 125.610  0.00  0.00    +0.000 C 
BRANCH  12  13
ATOM     13  N   UNL     1      -4.943   0.496 126.611  0.00  0.00    +0.000 NA
ATOM     14  H   UNL     1      -4.397   0.228 127.420  0.00  0.00    +0.000 HD
BRANCH  13  15
ATOM     15  C   UNL     1      -5.300   1.888 126.414  0.00  0.00    +0.000 C 
ATOM     16  C   UNL     1      -4.174   2.949 126.331  0.00  0.00    +0.000 C 
ATOM     17  C   UNL     1      -4.810   4.343 126.121  0.00  0.00    +0.000 C 
ATOM     18  C   UNL     1      -5.695   4.380 124.871  0.00  0.00    +0.000 C 
ATOM     19  C   UNL     1      -6.790   3.326 124.946  0.00  0.00    +0.000 C 
ATOM     20  C   UNL     1      -6.180   1.972 125.162  0.00  0.00    +0.000 C 
BRANCH  18  21
ATOM     21  O   UNL     1      -6.300   5.656 124.722  0.00  0.00    +0.000 OA
ATOM     22  H   UNL     1      -5.742   6.181 124.122  0.00  0.00    +0.000 HD
ENDBRANCH  18  21
ENDBRANCH  13  15
ENDBRANCH  12  13
ENDBRANCH   8  12
TORSDOF 5
ENDMDL
