MODEL 1
REMARK VINA RESULT:      -8.6      0.000      0.000
REMARK  Name = Amcinonide
REMARK  8 active torsions:
REMARK  status: ('A' for Active; 'I' for Inactive)
REMARK    1  A    between atoms: C_12  and  C_13
REMARK    2  A    between atoms: C_13  and  C_15
REMARK    3  A    between atoms: C_15  and  O_16
REMARK    4  A    between atoms: O_16  and  C_17
REMARK    5  A    between atoms: C_17  and  C_18
REMARK    6  A    between atoms: C_20  and  C_21
REMARK    7  A    between atoms: C_23  and  O_24
REMARK    8  A    between atoms: C_37  and  C_38
REMARK                            x       y       z     vdW  Elec       q    Type
REMARK                         _______ _______ _______ _____ _____    ______ ____
ROOT
ATOM      1  C   UNL     1      -5.803   1.319 125.849  0.00  0.00    +0.000 C 
ATOM      2  C   UNL     1      -5.185  -0.133 125.886  0.00  0.00    +0.000 C 
ATOM      3  C   UNL     1      -6.475  -0.713 126.222  0.00  0.00    +0.000 C 
ATOM      4  O   UNL     1      -6.211  -1.349 127.476  0.00  0.00    +0.000 OA
ATOM      5  C   UNL     1      -7.526  -1.461 127.937  0.00  0.00    +0.000 C 
ATOM      6  C   UNL     1      -7.495  -2.176 129.273  0.00  0.00    +0.000 C 
ATOM      7  C   UNL     1      -8.145  -3.524 128.987  0.00  0.00    +0.000 C 
ATOM      8  C   UNL     1      -8.639  -3.570 127.564  0.00  0.00    +0.000 C 
ATOM      9  C   UNL     1      -8.335  -2.276 126.946  0.00  0.00    +0.000 C 
ATOM     10  O   UNL     1      -8.170  -0.185 127.850  0.00  0.00    +0.000 OA
ATOM     11  C   UNL     1      -7.846   0.366 126.553  0.00  0.00    +0.000 C 
ATOM     12  C   UNL     1      -7.335   1.739 126.883  0.00  0.00    +0.000 C 
ATOM     13  C   UNL     1      -8.308   2.232 128.296  0.00  0.00    +0.000 C 
ATOM     14  C   UNL     1      -7.713   3.412 126.280  0.00  0.00    +0.000 C 
ATOM     15  C   UNL     1      -6.572   4.238 126.772  0.00  0.00    +0.000 C 
ATOM     16  C   UNL     1      -5.181   3.698 126.826  0.00  0.00    +0.000 C 
ATOM     17  F   UNL     1      -5.500   3.698 125.275  0.00  0.00    +0.000 F 
ATOM     18  C   UNL     1      -4.675   2.295 126.136  0.00  0.00    +0.000 C 
ATOM     19  C   UNL     1      -3.922   1.749 127.191  0.00  0.00    +0.000 C 
ATOM     20  C   UNL     1      -3.438   2.880 128.007  0.00  0.00    +0.000 C 
ATOM     21  C   UNL     1      -4.250   2.434 129.106  0.00  0.00    +0.000 C 
ATOM     22  C   UNL     1      -4.497   1.125 129.520  0.00  0.00    +0.000 C 
ATOM     23  C   UNL     1      -4.775   0.922 130.884  0.00  0.00    +0.000 C 
ATOM     24  O   UNL     1      -4.461  -0.168 131.480  0.00  0.00    +0.000 OA
ATOM     25  C   UNL     1      -5.263   2.119 131.481  0.00  0.00    +0.000 C 
ATOM     26  C   UNL     1      -5.579   3.151 130.622  0.00  0.00    +0.000 C 
ATOM     27  C   UNL     1      -5.618   3.251 128.771  0.00  0.00    +0.000 C 
ATOM     28  C   UNL     1      -5.933   4.798 129.198  0.00  0.00    +0.000 C 
ENDROOT
BRANCH  11  29
ATOM     29  C   UNL     1      -8.724   1.045 125.359  0.00  0.00    +0.000 C 
ATOM     30  O   UNL     1      -9.936   1.189 125.585  0.00  0.00    +0.000 OA
BRANCH  29  31
ATOM     31  C   UNL     1      -8.219   1.113 123.745  0.00  0.00    +0.000 C 
BRANCH  31  32
ATOM     32  O   UNL     1      -8.132  -0.238 123.172  0.00  0.00    +0.000 OA
BRANCH  32  33
ATOM     33  C   UNL     1      -9.122  -1.164 123.020  0.00  0.00    +0.000 C 
ATOM     34  C   UNL     1      -8.819  -2.628 123.201  0.00  0.00    +0.000 C 
ATOM     35  O   UNL     1     -10.229  -0.824 122.600  0.00  0.00    +0.000 OA
ENDBRANCH  32  33
ENDBRANCH  31  32
ENDBRANCH  29  31
ENDBRANCH  11  29
BRANCH  15  36
ATOM     36  O   UNL     1      -6.478   5.381 125.926  0.00  0.00    +0.000 OA
ATOM     37  H   UNL     1      -7.308   5.436 125.402  0.00  0.00    +0.000 HD
ENDBRANCH  15  36
TORSDOF 5
ENDMDL
MODEL 2
REMARK VINA RESULT:      -8.3      2.208      3.319
REMARK  Name = Amcinonide
REMARK  8 active torsions:
REMARK  status: ('A' for Active; 'I' for Inactive)
REMARK    1  A    between atoms: C_12  and  C_13
REMARK    2  A    between atoms: C_13  and  C_15
REMARK    3  A    between atoms: C_15  and  O_16
REMARK    4  A    between atoms: O_16  and  C_17
REMARK    5  A    between atoms: C_17  and  C_18
REMARK    6  A    between atoms: C_20  and  C_21
REMARK    7  A    between atoms: C_23  and  O_24
REMARK    8  A    between atoms: C_37  and  C_38
REMARK                            x       y       z     vdW  Elec       q    Type
REMARK                         _______ _______ _______ _____ _____    ______ ____
ROOT
ATOM      1  C   UNL     1      -5.718   1.138 125.979  0.00  0.00    +0.000 C 
ATOM      2  C   UNL     1      -5.219  -0.270 125.469  0.00  0.00    +0.000 C 
ATOM      3  C   UNL     1      -6.491  -0.522 124.809  0.00  0.00    +0.000 C 
ATOM      4  O   UNL     1      -6.941  -1.718 125.452  0.00  0.00    +0.000 OA
ATOM      5  C   UNL     1      -8.298  -1.633 125.129  0.00  0.00    +0.000 C 
ATOM      6  C   UNL     1      -8.990  -2.863 125.681  0.00  0.00    +0.000 C 
ATOM      7  C   UNL     1      -9.389  -3.652 124.441  0.00  0.00    +0.000 C 
ATOM      8  C   UNL     1      -9.044  -2.872 123.197  0.00  0.00    +0.000 C 
ATOM      9  C   UNL     1      -8.453  -1.600 123.620  0.00  0.00    +0.000 C 
ATOM     10  O   UNL     1      -8.792  -0.339 125.495  0.00  0.00    +0.000 OA
ATOM     11  C   UNL     1      -7.823   0.631 125.036  0.00  0.00    +0.000 C 
ATOM     12  C   UNL     1      -7.564   1.461 126.261  0.00  0.00    +0.000 C 
ATOM     13  C   UNL     1      -9.141   1.499 127.095  0.00  0.00    +0.000 C 
ATOM     14  C   UNL     1      -7.556   3.246 126.604  0.00  0.00    +0.000 C 
ATOM     15  C   UNL     1      -6.853   3.357 127.915  0.00  0.00    +0.000 C 
ATOM     16  C   UNL     1      -5.709   2.465 128.268  0.00  0.00    +0.000 C 
ATOM     17  F   UNL     1      -5.148   3.291 127.038  0.00  0.00    +0.000 F 
ATOM     18  C   UNL     1      -4.916   1.473 127.225  0.00  0.00    +0.000 C 
ATOM     19  C   UNL     1      -4.847   0.298 127.994  0.00  0.00    +0.000 C 
ATOM     20  C   UNL     1      -4.872   0.708 129.413  0.00  0.00    +0.000 C 
ATOM     21  C   UNL     1      -6.147   0.065 129.575  0.00  0.00    +0.000 C 
ATOM     22  C   UNL     1      -6.582  -1.141 129.025  0.00  0.00    +0.000 C 
ATOM     23  C   UNL     1      -7.547  -1.867 129.746  0.00  0.00    +0.000 C 
ATOM     24  O   UNL     1      -7.604  -3.147 129.695  0.00  0.00    +0.000 OA
ATOM     25  C   UNL     1      -8.276  -1.008 130.616  0.00  0.00    +0.000 C 
ATOM     26  C   UNL     1      -8.080   0.347 130.449  0.00  0.00    +0.000 C 
ATOM     27  C   UNL     1      -7.121   1.312 129.189  0.00  0.00    +0.000 C 
ATOM     28  C   UNL     1      -7.611   2.489 130.213  0.00  0.00    +0.000 C 
ENDROOT
BRANCH  11  29
ATOM     29  C   UNL     1      -7.922   2.019 124.188  0.00  0.00    +0.000 C 
ATOM     30  O   UNL     1      -9.064   2.475 124.016  0.00  0.00    +0.000 OA
BRANCH  29  31
ATOM     31  C   UNL     1      -6.696   2.588 123.170  0.00  0.00    +0.000 C 
BRANCH  31  32
ATOM     32  O   UNL     1      -7.270   3.283 122.007  0.00  0.00    +0.000 OA
BRANCH  32  33
ATOM     33  C   UNL     1      -6.631   3.762 120.902  0.00  0.00    +0.000 C 
ATOM     34  C   UNL     1      -5.134   3.924 120.907  0.00  0.00    +0.000 C 
ATOM     35  O   UNL     1      -7.282   4.194 119.949  0.00  0.00    +0.000 OA
ENDBRANCH  32  33
ENDBRANCH  31  32
ENDBRANCH  29  31
ENDBRANCH  11  29
BRANCH  15  36
ATOM     36  O   UNL     1      -6.318   4.675 128.000  0.00  0.00    +0.000 OA
ATOM     37  H   UNL     1      -5.422   4.664 127.596  0.00  0.00    +0.000 HD
ENDBRANCH  15  36
TORSDOF 5
ENDMDL
MODEL 3
REMARK VINA RESULT:      -8.3      3.072      5.778
REMARK  Name = Amcinonide
REMARK  8 active torsions:
REMARK  status: ('A' for Active; 'I' for Inactive)
REMARK    1  A    between atoms: C_12  and  C_13
REMARK    2  A    between atoms: C_13  and  C_15
REMARK    3  A    between atoms: C_15  and  O_16
REMARK    4  A    between atoms: O_16  and  C_17
REMARK    5  A    between atoms: C_17  and  C_18
REMARK    6  A    between atoms: C_20  and  C_21
REMARK    7  A    between atoms: C_23  and  O_24
REMARK    8  A    between atoms: C_37  and  C_38
REMARK                            x       y       z     vdW  Elec       q    Type
REMARK                         _______ _______ _______ _____ _____    ______ ____
ROOT
ATOM      1  C   UNL     1      -8.434   3.807 129.039  0.00  0.00    +0.000 C 
ATOM      2  C   UNL     1      -7.811   4.801 127.983  0.00  0.00    +0.000 C 
ATOM      3  C   UNL     1      -6.675   3.918 127.768  0.00  0.00    +0.000 C 
ATOM      4  O   UNL     1      -5.567   4.747 128.130  0.00  0.00    +0.000 OA
ATOM      5  C   UNL     1      -4.616   3.745 128.347  0.00  0.00    +0.000 C 
ATOM      6  C   UNL     1      -3.304   4.414 128.703  0.00  0.00    +0.000 C 
ATOM      7  C   UNL     1      -2.407   4.132 127.504  0.00  0.00    +0.000 C 
ATOM      8  C   UNL     1      -3.122   3.240 126.519  0.00  0.00    +0.000 C 
ATOM      9  C   UNL     1      -4.443   2.936 127.075  0.00  0.00    +0.000 C 
ATOM     10  O   UNL     1      -5.157   2.764 129.238  0.00  0.00    +0.000 OA
ATOM     11  C   UNL     1      -6.500   2.475 128.788  0.00  0.00    +0.000 C 
ATOM     12  C   UNL     1      -7.322   2.639 130.035  0.00  0.00    +0.000 C 
ATOM     13  C   UNL     1      -6.241   2.075 131.338  0.00  0.00    +0.000 C 
ATOM     14  C   UNL     1      -8.562   1.614 130.880  0.00  0.00    +0.000 C 
ATOM     15  C   UNL     1      -9.222   2.558 131.828  0.00  0.00    +0.000 C 
ATOM     16  C   UNL     1      -9.469   3.986 131.468  0.00  0.00    +0.000 C 
ATOM     17  F   UNL     1     -10.374   3.198 130.433  0.00  0.00    +0.000 F 
ATOM     18  C   UNL     1      -9.316   4.629 129.963  0.00  0.00    +0.000 C 
ATOM     19  C   UNL     1      -8.607   5.807 130.261  0.00  0.00    +0.000 C 
ATOM     20  C   UNL     1      -8.946   6.174 131.651  0.00  0.00    +0.000 C 
ATOM     21  C   UNL     1      -7.586   5.930 132.046  0.00  0.00    +0.000 C 
ATOM     22  C   UNL     1      -6.417   6.224 131.343  0.00  0.00    +0.000 C 
ATOM     23  C   UNL     1      -5.257   6.474 132.099  0.00  0.00    +0.000 C 
ATOM     24  O   UNL     1      -4.341   7.268 131.683  0.00  0.00    +0.000 OA
ATOM     25  C   UNL     1      -5.358   5.877 133.387  0.00  0.00    +0.000 C 
ATOM     26  C   UNL     1      -6.415   5.013 133.584  0.00  0.00    +0.000 C 
ATOM     27  C   UNL     1      -7.703   4.350 132.426  0.00  0.00    +0.000 C 
ATOM     28  C   UNL     1      -8.203   3.752 133.864  0.00  0.00    +0.000 C 
ENDROOT
BRANCH  11  29
ATOM     29  C   UNL     1      -7.327   1.101 128.496  0.00  0.00    +0.000 C 
ATOM     30  O   UNL     1      -6.752   0.042 128.797  0.00  0.00    +0.000 OA
BRANCH  29  31
ATOM     31  C   UNL     1      -8.634   1.000 127.425  0.00  0.00    +0.000 C 
BRANCH  31  32
ATOM     32  O   UNL     1      -8.163   1.013 126.032  0.00  0.00    +0.000 OA
BRANCH  32  33
ATOM     33  C   UNL     1      -8.153   2.049 125.146  0.00  0.00    +0.000 C 
ATOM     34  C   UNL     1      -6.924   2.325 124.322  0.00  0.00    +0.000 C 
ATOM     35  O   UNL     1      -9.092   2.846 125.114  0.00  0.00    +0.000 OA
ENDBRANCH  32  33
ENDBRANCH  31  32
ENDBRANCH  29  31
ENDBRANCH  11  29
BRANCH  15  36
ATOM     36  O   UNL     1     -10.515   2.034 132.119  0.00  0.00    +0.000 OA
ATOM     37  H   UNL     1     -11.160   2.773 132.057  0.00  0.00    +0.000 HD
ENDBRANCH  15  36
TORSDOF 5
ENDMDL
MODEL 4
REMARK VINA RESULT:      -8.1      3.797      7.116
REMARK  Name = Amcinonide
REMARK  8 active torsions:
REMARK  status: ('A' for Active; 'I' for Inactive)
REMARK    1  A    between atoms: C_12  and  C_13
REMARK    2  A    between atoms: C_13  and  C_15
REMARK    3  A    between atoms: C_15  and  O_16
REMARK    4  A    between atoms: O_16  and  C_17
REMARK    5  A    between atoms: C_17  and  C_18
REMARK    6  A    between atoms: C_20  and  C_21
REMARK    7  A    between atoms: C_23  and  O_24
REMARK    8  A    between atoms: C_37  and  C_38
REMARK                            x       y       z     vdW  Elec       q    Type
REMARK                         _______ _______ _______ _____ _____    ______ ____
ROOT
ATOM      1  C   UNL     1      -9.149   2.973 131.257  0.00  0.00    +0.000 C 
ATOM      2  C   UNL     1      -9.579   2.674 132.746  0.00  0.00    +0.000 C 
ATOM      3  C   UNL     1      -8.903   3.872 133.220  0.00  0.00    +0.000 C 
ATOM      4  O   UNL     1      -7.952   3.344 134.149  0.00  0.00    +0.000 OA
ATOM      5  C   UNL     1      -7.076   4.431 134.196  0.00  0.00    +0.000 C 
ATOM      6  C   UNL     1      -5.979   4.108 135.190  0.00  0.00    +0.000 C 
ATOM      7  C   UNL     1      -6.233   5.067 136.346  0.00  0.00    +0.000 C 
ATOM      8  C   UNL     1      -7.371   5.997 136.009  0.00  0.00    +0.000 C 
ATOM      9  C   UNL     1      -7.831   5.663 134.658  0.00  0.00    +0.000 C 
ATOM     10  O   UNL     1      -6.712   4.804 132.862  0.00  0.00    +0.000 OA
ATOM     11  C   UNL     1      -7.927   4.820 132.078  0.00  0.00    +0.000 C 
ATOM     12  C   UNL     1      -7.579   3.969 130.890  0.00  0.00    +0.000 C 
ATOM     13  C   UNL     1      -5.850   4.312 130.609  0.00  0.00    +0.000 C 
ATOM     14  C   UNL     1      -7.718   4.186 129.091  0.00  0.00    +0.000 C 
ATOM     15  C   UNL     1      -7.539   2.809 128.547  0.00  0.00    +0.000 C 
ATOM     16  C   UNL     1      -8.078   1.611 129.257  0.00  0.00    +0.000 C 
ATOM     17  F   UNL     1      -9.389   2.412 128.868  0.00  0.00    +0.000 F 
ATOM     18  C   UNL     1      -9.128   1.644 130.521  0.00  0.00    +0.000 C 
ATOM     19  C   UNL     1      -8.520   0.711 131.381  0.00  0.00    +0.000 C 
ATOM     20  C   UNL     1      -7.756  -0.224 130.532  0.00  0.00    +0.000 C 
ATOM     21  C   UNL     1      -6.530   0.255 131.108  0.00  0.00    +0.000 C 
ATOM     22  C   UNL     1      -6.279   0.607 132.434  0.00  0.00    +0.000 C 
ATOM     23  C   UNL     1      -4.960   0.459 132.902  0.00  0.00    +0.000 C 
ATOM     24  O   UNL     1      -4.708   0.188 134.129  0.00  0.00    +0.000 OA
ATOM     25  C   UNL     1      -4.038   0.480 131.818  0.00  0.00    +0.000 C 
ATOM     26  C   UNL     1      -4.541   0.849 130.588  0.00  0.00    +0.000 C 
ATOM     27  C   UNL     1      -6.211   1.470 130.071  0.00  0.00    +0.000 C 
ATOM     28  C   UNL     1      -5.447   1.317 128.632  0.00  0.00    +0.000 C 
ENDROOT
BRANCH  11  29
ATOM     29  C   UNL     1      -8.596   5.887 131.044  0.00  0.00    +0.000 C 
ATOM     30  O   UNL     1      -7.889   6.858 130.727  0.00  0.00    +0.000 OA
BRANCH  29  31
ATOM     31  C   UNL     1     -10.261   6.014 130.770  0.00  0.00    +0.000 C 
BRANCH  31  32
ATOM     32  O   UNL     1     -10.557   5.921 129.333  0.00  0.00    +0.000 OA
BRANCH  32  33
ATOM     33  C   UNL     1     -10.286   6.824 128.348  0.00  0.00    +0.000 C 
ATOM     34  C   UNL     1     -10.647   8.274 128.533  0.00  0.00    +0.000 C 
ATOM     35  O   UNL     1      -9.872   6.441 127.252  0.00  0.00    +0.000 OA
ENDBRANCH  32  33
ENDBRANCH  31  32
ENDBRANCH  29  31
ENDBRANCH  11  29
BRANCH  15  36
ATOM     36  O   UNL     1      -8.159   2.774 127.265  0.00  0.00    +0.000 OA
ATOM     37  H   UNL     1      -7.468   2.960 126.591  0.00  0.00    +0.000 HD
ENDBRANCH  15  36
TORSDOF 5
ENDMDL
MODEL 5
REMARK VINA RESULT:      -8.0      3.390      6.369
REMARK  Name = Amcinonide
REMARK  8 active torsions:
REMARK  status: ('A' for Active; 'I' for Inactive)
REMARK    1  A    between atoms: C_12  and  C_13
REMARK    2  A    between atoms: C_13  and  C_15
REMARK    3  A    between atoms: C_15  and  O_16
REMARK    4  A    between atoms: O_16  and  C_17
REMARK    5  A    between atoms: C_17  and  C_18
REMARK    6  A    between atoms: C_20  and  C_21
REMARK    7  A    between atoms: C_23  and  O_24
REMARK    8  A    between atoms: C_37  and  C_38
REMARK                            x       y       z     vdW  Elec       q    Type
REMARK                         _______ _______ _______ _____ _____    ______ ____
ROOT
ATOM      1  C   UNL     1      -7.362   1.556 129.110  0.00  0.00    +0.000 C 
ATOM      2  C   UNL     1      -7.182   2.414 127.797  0.00  0.00    +0.000 C 
ATOM      3  C   UNL     1      -5.735   2.400 127.942  0.00  0.00    +0.000 C 
ATOM      4  O   UNL     1      -5.420   3.792 128.033  0.00  0.00    +0.000 OA
ATOM      5  C   UNL     1      -4.155   3.685 128.617  0.00  0.00    +0.000 C 
ATOM      6  C   UNL     1      -3.587   5.082 128.765  0.00  0.00    +0.000 C 
ATOM      7  C   UNL     1      -2.433   5.119 127.771  0.00  0.00    +0.000 C 
ATOM      8  C   UNL     1      -2.253   3.765 127.133  0.00  0.00    +0.000 C 
ATOM      9  C   UNL     1      -3.254   2.865 127.713  0.00  0.00    +0.000 C 
ATOM     10  O   UNL     1      -4.237   2.845 129.774  0.00  0.00    +0.000 OA
ATOM     11  C   UNL     1      -5.023   1.689 129.406  0.00  0.00    +0.000 C 
ATOM     12  C   UNL     1      -6.062   1.622 130.488  0.00  0.00    +0.000 C 
ATOM     13  C   UNL     1      -5.204   2.196 131.943  0.00  0.00    +0.000 C 
ATOM     14  C   UNL     1      -6.660   0.307 131.592  0.00  0.00    +0.000 C 
ATOM     15  C   UNL     1      -7.943   0.845 132.129  0.00  0.00    +0.000 C 
ATOM     16  C   UNL     1      -8.861   1.667 131.287  0.00  0.00    +0.000 C 
ATOM     17  F   UNL     1      -8.878   0.260 130.560  0.00  0.00    +0.000 F 
ATOM     18  C   UNL     1      -8.745   1.861 129.659  0.00  0.00    +0.000 C 
ATOM     19  C   UNL     1      -8.928   3.251 129.554  0.00  0.00    +0.000 C 
ATOM     20  C   UNL     1      -9.736   3.669 130.717  0.00  0.00    +0.000 C 
ATOM     21  C   UNL     1      -8.622   4.424 131.220  0.00  0.00    +0.000 C 
ATOM     22  C   UNL     1      -7.700   5.185 130.501  0.00  0.00    +0.000 C 
ATOM     23  C   UNL     1      -7.110   6.277 131.163  0.00  0.00    +0.000 C 
ATOM     24  O   UNL     1      -6.740   7.328 130.530  0.00  0.00    +0.000 OA
ATOM     25  C   UNL     1      -7.160   6.096 132.574  0.00  0.00    +0.000 C 
ATOM     26  C   UNL     1      -7.548   4.850 133.022  0.00  0.00    +0.000 C 
ATOM     27  C   UNL     1      -7.908   3.269 132.121  0.00  0.00    +0.000 C 
ATOM     28  C   UNL     1      -8.307   2.880 133.659  0.00  0.00    +0.000 C 
ENDROOT
BRANCH  11  29
ATOM     29  C   UNL     1      -4.823   0.080 129.579  0.00  0.00    +0.000 C 
ATOM     30  O   UNL     1      -3.865  -0.279 130.284  0.00  0.00    +0.000 OA
BRANCH  29  31
ATOM     31  C   UNL     1      -5.495  -1.068 128.534  0.00  0.00    +0.000 C 
BRANCH  31  32
ATOM     32  O   UNL     1      -5.459  -2.406 129.144  0.00  0.00    +0.000 OA
BRANCH  32  33
ATOM     33  C   UNL     1      -6.502  -3.182 129.555  0.00  0.00    +0.000 C 
ATOM     34  C   UNL     1      -7.913  -2.666 129.452  0.00  0.00    +0.000 C 
ATOM     35  O   UNL     1      -6.291  -4.247 130.138  0.00  0.00    +0.000 OA
ENDBRANCH  32  33
ENDBRANCH  31  32
ENDBRANCH  29  31
ENDBRANCH  11  29
BRANCH  15  36
ATOM     36  O   UNL     1      -8.733  -0.268 132.538  0.00  0.00    +0.000 OA
ATOM     37  H   UNL     1      -8.927  -0.165 133.496  0.00  0.00    +0.000 HD
ENDBRANCH  15  36
TORSDOF 5
ENDMDL
MODEL 6
REMARK VINA RESULT:      -8.0      4.297      8.652
REMARK  Name = Amcinonide
REMARK  8 active torsions:
REMARK  status: ('A' for Active; 'I' for Inactive)
REMARK    1  A    between atoms: C_12  and  C_13
REMARK    2  A    between atoms: C_13  and  C_15
REMARK    3  A    between atoms: C_15  and  O_16
REMARK    4  A    between atoms: O_16  and  C_17
REMARK    5  A    between atoms: C_17  and  C_18
REMARK    6  A    between atoms: C_20  and  C_21
REMARK    7  A    between atoms: C_23  and  O_24
REMARK    8  A    between atoms: C_37  and  C_38
REMARK                            x       y       z     vdW  Elec       q    Type
REMARK                         _______ _______ _______ _____ _____    ______ ____
ROOT
ATOM      1  C   UNL     1      -4.242  -0.588 132.383  0.00  0.00    +0.000 C 
ATOM      2  C   UNL     1      -4.433   0.820 131.695  0.00  0.00    +0.000 C 
ATOM      3  C   UNL     1      -5.628   1.083 132.481  0.00  0.00    +0.000 C 
ATOM      4  O   UNL     1      -6.628   1.259 131.474  0.00  0.00    +0.000 OA
ATOM      5  C   UNL     1      -7.762   1.042 132.261  0.00  0.00    +0.000 C 
ATOM      6  C   UNL     1      -8.984   1.234 131.387  0.00  0.00    +0.000 C 
ATOM      7  C   UNL     1      -9.627   2.507 131.923  0.00  0.00    +0.000 C 
ATOM      8  C   UNL     1      -8.877   2.995 133.137  0.00  0.00    +0.000 C 
ATOM      9  C   UNL     1      -7.785   2.051 133.393  0.00  0.00    +0.000 C 
ATOM     10  O   UNL     1      -7.611  -0.188 132.979  0.00  0.00    +0.000 OA
ATOM     11  C   UNL     1      -6.273  -0.201 133.525  0.00  0.00    +0.000 C 
ATOM     12  C   UNL     1      -5.733  -1.529 133.078  0.00  0.00    +0.000 C 
ATOM     13  C   UNL     1      -7.157  -2.604 133.111  0.00  0.00    +0.000 C 
ATOM     14  C   UNL     1      -4.908  -2.912 133.922  0.00  0.00    +0.000 C 
ATOM     15  C   UNL     1      -4.322  -3.714 132.809  0.00  0.00    +0.000 C 
ATOM     16  C   UNL     1      -3.757  -3.065 131.589  0.00  0.00    +0.000 C 
ATOM     17  F   UNL     1      -2.796  -2.553 132.740  0.00  0.00    +0.000 F 
ATOM     18  C   UNL     1      -3.458  -1.458 131.416  0.00  0.00    +0.000 C 
ATOM     19  C   UNL     1      -4.000  -1.235 130.137  0.00  0.00    +0.000 C 
ATOM     20  C   UNL     1      -3.921  -2.515 129.405  0.00  0.00    +0.000 C 
ATOM     21  C   UNL     1      -5.355  -2.589 129.380  0.00  0.00    +0.000 C 
ATOM     22  C   UNL     1      -6.270  -1.552 129.193  0.00  0.00    +0.000 C 
ATOM     23  C   UNL     1      -7.508  -1.881 128.611  0.00  0.00    +0.000 C 
ATOM     24  O   UNL     1      -8.156  -1.044 127.890  0.00  0.00    +0.000 OA
ATOM     25  C   UNL     1      -7.801  -3.262 128.800  0.00  0.00    +0.000 C 
ATOM     26  C   UNL     1      -6.980  -3.952 129.668  0.00  0.00    +0.000 C 
ATOM     27  C   UNL     1      -5.602  -3.392 130.775  0.00  0.00    +0.000 C 
ATOM     28  C   UNL     1      -5.545  -5.017 130.961  0.00  0.00    +0.000 C 
ENDROOT
BRANCH  11  29
ATOM     29  C   UNL     1      -5.653  -0.512 135.000  0.00  0.00    +0.000 C 
ATOM     30  O   UNL     1      -6.467  -0.844 135.877  0.00  0.00    +0.000 OA
BRANCH  29  31
ATOM     31  C   UNL     1      -4.133   0.026 135.513  0.00  0.00    +0.000 C 
BRANCH  31  32
ATOM     32  O   UNL     1      -4.235   1.361 136.123  0.00  0.00    +0.000 OA
BRANCH  32  33
ATOM     33  C   UNL     1      -4.247   2.578 135.510  0.00  0.00    +0.000 C 
ATOM     34  C   UNL     1      -5.357   3.556 135.796  0.00  0.00    +0.000 C 
ATOM     35  O   UNL     1      -3.435   2.832 134.620  0.00  0.00    +0.000 OA
ENDBRANCH  32  33
ENDBRANCH  31  32
ENDBRANCH  29  31
ENDBRANCH  11  29
BRANCH  15  36
ATOM     36  O   UNL     1      -3.237  -4.462 133.351  0.00  0.00    +0.000 OA
ATOM     37  H   UNL     1      -3.515  -4.803 134.229  0.00  0.00    +0.000 HD
ENDBRANCH  15  36
TORSDOF 5
ENDMDL
MODEL 7
REMARK VINA RESULT:      -7.8      4.362      7.992
REMARK  Name = Amcinonide
REMARK  8 active torsions:
REMARK  status: ('A' for Active; 'I' for Inactive)
REMARK    1  A    between atoms: C_12  and  C_13
REMARK    2  A    between atoms: C_13  and  C_15
REMARK    3  A    between atoms: C_15  and  O_16
REMARK    4  A    between atoms: O_16  and  C_17
REMARK    5  A    between atoms: C_17  and  C_18
REMARK    6  A    between atoms: C_20  and  C_21
REMARK    7  A    between atoms: C_23  and  O_24
REMARK    8  A    between atoms: C_37  and  C_38
REMARK                            x       y       z     vdW  Elec       q    Type
REMARK                         _______ _______ _______ _____ _____    ______ ____
ROOT
ATOM      1  C   UNL     1      -4.124   3.927 131.801  0.00  0.00    +0.000 C 
ATOM      2  C   UNL     1      -4.140   2.668 130.850  0.00  0.00    +0.000 C 
ATOM      3  C   UNL     1      -4.707   3.450 129.762  0.00  0.00    +0.000 C 
ATOM      4  O   UNL     1      -5.935   2.766 129.497  0.00  0.00    +0.000 OA
ATOM      5  C   UNL     1      -6.604   3.789 128.819  0.00  0.00    +0.000 C 
ATOM      6  C   UNL     1      -7.954   3.257 128.382  0.00  0.00    +0.000 C 
ATOM      7  C   UNL     1      -7.847   3.175 126.865  0.00  0.00    +0.000 C 
ATOM      8  C   UNL     1      -6.524   3.736 126.407  0.00  0.00    +0.000 C 
ATOM      9  C   UNL     1      -5.799   4.189 127.597  0.00  0.00    +0.000 C 
ATOM     10  O   UNL     1      -6.552   4.988 129.599  0.00  0.00    +0.000 OA
ATOM     11  C   UNL     1      -5.194   5.130 130.072  0.00  0.00    +0.000 C 
ATOM     12  C   UNL     1      -5.365   5.338 131.549  0.00  0.00    +0.000 C 
ATOM     13  C   UNL     1      -6.886   6.262 131.679  0.00  0.00    +0.000 C 
ATOM     14  C   UNL     1      -4.742   6.564 132.738  0.00  0.00    +0.000 C 
ATOM     15  C   UNL     1      -5.001   5.940 134.068  0.00  0.00    +0.000 C 
ATOM     16  C   UNL     1      -4.863   4.469 134.283  0.00  0.00    +0.000 C 
ATOM     17  F   UNL     1      -3.384   4.917 133.934  0.00  0.00    +0.000 F 
ATOM     18  C   UNL     1      -4.176   3.412 133.228  0.00  0.00    +0.000 C 
ATOM     19  C   UNL     1      -5.126   2.375 133.253  0.00  0.00    +0.000 C 
ATOM     20  C   UNL     1      -5.794   2.432 134.569  0.00  0.00    +0.000 C 
ATOM     21  C   UNL     1      -7.029   2.784 133.926  0.00  0.00    +0.000 C 
ATOM     22  C   UNL     1      -7.547   2.298 132.725  0.00  0.00    +0.000 C 
ATOM     23  C   UNL     1      -8.946   2.284 132.585  0.00  0.00    +0.000 C 
ATOM     24  O   UNL     1      -9.542   1.404 131.868  0.00  0.00    +0.000 OA
ATOM     25  C   UNL     1      -9.549   3.233 133.458  0.00  0.00    +0.000 C 
ATOM     26  C   UNL     1      -8.697   4.115 134.090  0.00  0.00    +0.000 C 
ATOM     27  C   UNL     1      -6.873   4.405 133.926  0.00  0.00    +0.000 C 
ATOM     28  C   UNL     1      -7.262   5.399 135.166  0.00  0.00    +0.000 C 
ENDROOT
BRANCH  11  29
ATOM     29  C   UNL     1      -4.119   6.356 130.084  0.00  0.00    +0.000 C 
ATOM     30  O   UNL     1      -4.559   7.471 129.761  0.00  0.00    +0.000 OA
BRANCH  29  31
ATOM     31  C   UNL     1      -2.442   6.136 130.035  0.00  0.00    +0.000 C 
BRANCH  31  32
ATOM     32  O   UNL     1      -1.788   6.906 131.104  0.00  0.00    +0.000 OA
BRANCH  32  33
ATOM     33  C   UNL     1      -0.999   6.454 132.119  0.00  0.00    +0.000 C 
ATOM     34  C   UNL     1      -0.165   7.423 132.915  0.00  0.00    +0.000 C 
ATOM     35  O   UNL     1      -0.855   5.244 132.300  0.00  0.00    +0.000 OA
ENDBRANCH  32  33
ENDBRANCH  31  32
ENDBRANCH  29  31
ENDBRANCH  11  29
BRANCH  15  36
ATOM     36  O   UNL     1      -4.092   6.524 134.996  0.00  0.00    +0.000 OA
ATOM     37  H   UNL     1      -3.971   7.467 134.747  0.00  0.00    +0.000 HD
ENDBRANCH  15  36
TORSDOF 5
ENDMDL
MODEL 8
REMARK VINA RESULT:      -7.8      2.280      5.068
REMARK  Name = Amcinonide
REMARK  8 active torsions:
REMARK  status: ('A' for Active; 'I' for Inactive)
REMARK    1  A    between atoms: C_12  and  C_13
REMARK    2  A    between atoms: C_13  and  C_15
REMARK    3  A    between atoms: C_15  and  O_16
REMARK    4  A    between atoms: O_16  and  C_17
REMARK    5  A    between atoms: C_17  and  C_18
REMARK    6  A    between atoms: C_20  and  C_21
REMARK    7  A    between atoms: C_23  and  O_24
REMARK    8  A    between atoms: C_37  and  C_38
REMARK                            x       y       z     vdW  Elec       q    Type
REMARK                         _______ _______ _______ _____ _____    ______ ____
ROOT
ATOM      1  C   UNL     1      -8.226   1.380 126.995  0.00  0.00    +0.000 C 
ATOM      2  C   UNL     1      -8.838   2.616 126.229  0.00  0.00    +0.000 C 
ATOM      3  C   UNL     1      -8.060   2.310 125.039  0.00  0.00    +0.000 C 
ATOM      4  O   UNL     1      -7.286   3.500 124.862  0.00  0.00    +0.000 OA
ATOM      5  C   UNL     1      -6.281   2.979 124.042  0.00  0.00    +0.000 C 
ATOM      6  C   UNL     1      -5.342   4.109 123.674  0.00  0.00    +0.000 C 
ATOM      7  C   UNL     1      -5.580   4.317 122.183  0.00  0.00    +0.000 C 
ATOM      8  C   UNL     1      -6.543   3.281 121.662  0.00  0.00    +0.000 C 
ATOM      9  C   UNL     1      -6.907   2.410 122.783  0.00  0.00    +0.000 C 
ATOM     10  O   UNL     1      -5.739   1.800 124.649  0.00  0.00    +0.000 OA
ATOM     11  C   UNL     1      -6.857   1.006 125.108  0.00  0.00    +0.000 C 
ATOM     12  C   UNL     1      -6.508   0.720 126.540  0.00  0.00    +0.000 C 
ATOM     13  C   UNL     1      -4.730   0.571 126.528  0.00  0.00    +0.000 C 
ATOM     14  C   UNL     1      -6.437  -0.789 127.551  0.00  0.00    +0.000 C 
ATOM     15  C   UNL     1      -6.390  -0.281 128.953  0.00  0.00    +0.000 C 
ATOM     16  C   UNL     1      -7.152   0.933 129.372  0.00  0.00    +0.000 C 
ATOM     17  F   UNL     1      -8.299  -0.087 128.976  0.00  0.00    +0.000 F 
ATOM     18  C   UNL     1      -8.310   1.686 128.480  0.00  0.00    +0.000 C 
ATOM     19  C   UNL     1      -7.921   3.028 128.642  0.00  0.00    +0.000 C 
ATOM     20  C   UNL     1      -7.207   3.119 129.932  0.00  0.00    +0.000 C 
ATOM     21  C   UNL     1      -5.992   3.441 129.236  0.00  0.00    +0.000 C 
ATOM     22  C   UNL     1      -5.830   4.249 128.110  0.00  0.00    +0.000 C 
ATOM     23  C   UNL     1      -4.596   4.909 127.963  0.00  0.00    +0.000 C 
ATOM     24  O   UNL     1      -4.506   6.042 127.371  0.00  0.00    +0.000 OA
ATOM     25  C   UNL     1      -3.575   4.235 128.690  0.00  0.00    +0.000 C 
ATOM     26  C   UNL     1      -3.899   2.995 129.200  0.00  0.00    +0.000 C 
ATOM     27  C   UNL     1      -5.411   1.937 129.012  0.00  0.00    +0.000 C 
ATOM     28  C   UNL     1      -4.535   1.083 130.098  0.00  0.00    +0.000 C 
ENDROOT
BRANCH  11  29
ATOM     29  C   UNL     1      -7.270  -0.564 124.957  0.00  0.00    +0.000 C 
ATOM     30  O   UNL     1      -6.391  -1.321 124.515  0.00  0.00    +0.000 OA
BRANCH  29  31
ATOM     31  C   UNL     1      -8.870  -1.113 124.903  0.00  0.00    +0.000 C 
BRANCH  31  32
ATOM     32  O   UNL     1      -9.170  -1.948 126.077  0.00  0.00    +0.000 OA
BRANCH  32  33
ATOM     33  C   UNL     1      -8.859  -3.258 126.292  0.00  0.00    +0.000 C 
ATOM     34  C   UNL     1      -8.903  -3.824 127.686  0.00  0.00    +0.000 C 
ATOM     35  O   UNL     1      -8.409  -3.946 125.375  0.00  0.00    +0.000 OA
ENDBRANCH  32  33
ENDBRANCH  31  32
ENDBRANCH  29  31
ENDBRANCH  11  29
BRANCH  15  36
ATOM     36  O   UNL     1      -6.878  -1.319 129.798  0.00  0.00    +0.000 OA
ATOM     37  H   UNL     1      -6.102  -1.773 130.195  0.00  0.00    +0.000 HD
ENDBRANCH  15  36
TORSDOF 5
ENDMDL
MODEL 9
REMARK VINA RESULT:      -7.7      3.550      6.669
REMARK  Name = Amcinonide
REMARK  8 active torsions:
REMARK  status: ('A' for Active; 'I' for Inactive)
REMARK    1  A    between atoms: C_12  and  C_13
REMARK    2  A    between atoms: C_13  and  C_15
REMARK    3  A    between atoms: C_15  and  O_16
REMARK    4  A    between atoms: O_16  and  C_17
REMARK    5  A    between atoms: C_17  and  C_18
REMARK    6  A    between atoms: C_20  and  C_21
REMARK    7  A    between atoms: C_23  and  O_24
REMARK    8  A    between atoms: C_37  and  C_38
REMARK                            x       y       z     vdW  Elec       q    Type
REMARK                         _______ _______ _______ _____ _____    ______ ____
ROOT
ATOM      1  C   UNL     1      -7.986   1.533 130.064  0.00  0.00    +0.000 C 
ATOM      2  C   UNL     1      -9.149   1.724 131.114  0.00  0.00    +0.000 C 
ATOM      3  C   UNL     1      -8.596   2.996 131.551  0.00  0.00    +0.000 C 
ATOM      4  O   UNL     1      -8.351   2.766 132.942  0.00  0.00    +0.000 OA
ATOM      5  C   UNL     1      -7.434   3.796 133.169  0.00  0.00    +0.000 C 
ATOM      6  C   UNL     1      -7.062   3.777 134.637  0.00  0.00    +0.000 C 
ATOM      7  C   UNL     1      -7.681   5.054 135.192  0.00  0.00    +0.000 C 
ATOM      8  C   UNL     1      -8.305   5.855 134.078  0.00  0.00    +0.000 C 
ATOM      9  C   UNL     1      -8.081   5.125 132.827  0.00  0.00    +0.000 C 
ATOM     10  O   UNL     1      -6.392   3.726 132.190  0.00  0.00    +0.000 OA
ATOM     11  C   UNL     1      -7.026   3.520 130.907  0.00  0.00    +0.000 C 
ATOM     12  C   UNL     1      -6.292   2.334 130.349  0.00  0.00    +0.000 C 
ATOM     13  C   UNL     1      -4.625   2.537 130.954  0.00  0.00    +0.000 C 
ATOM     14  C   UNL     1      -5.470   1.981 128.766  0.00  0.00    +0.000 C 
ATOM     15  C   UNL     1      -5.298   0.499 128.774  0.00  0.00    +0.000 C 
ATOM     16  C   UNL     1      -6.328  -0.406 129.365  0.00  0.00    +0.000 C 
ATOM     17  F   UNL     1      -7.097   0.259 128.150  0.00  0.00    +0.000 F 
ATOM     18  C   UNL     1      -7.843   0.041 129.819  0.00  0.00    +0.000 C 
ATOM     19  C   UNL     1      -7.928  -0.588 131.074  0.00  0.00    +0.000 C 
ATOM     20  C   UNL     1      -7.027  -1.757 131.033  0.00  0.00    +0.000 C 
ATOM     21  C   UNL     1      -6.190  -1.146 132.028  0.00  0.00    +0.000 C 
ATOM     22  C   UNL     1      -6.576  -0.403 133.144  0.00  0.00    +0.000 C 
ATOM     23  C   UNL     1      -5.721  -0.424 134.260  0.00  0.00    +0.000 C 
ATOM     24  O   UNL     1      -6.170  -0.302 135.454  0.00  0.00    +0.000 OA
ATOM     25  C   UNL     1      -4.394  -0.761 133.870  0.00  0.00    +0.000 C 
ATOM     26  C   UNL     1      -4.137  -0.784 132.515  0.00  0.00    +0.000 C 
ATOM     27  C   UNL     1      -5.179  -0.323 131.051  0.00  0.00    +0.000 C 
ATOM     28  C   UNL     1      -3.841  -0.933 130.334  0.00  0.00    +0.000 C 
ENDROOT
BRANCH  11  29
ATOM     29  C   UNL     1      -6.880   4.224 129.444  0.00  0.00    +0.000 C 
ATOM     30  O   UNL     1      -6.005   5.099 129.343  0.00  0.00    +0.000 OA
BRANCH  29  31
ATOM     31  C   UNL     1      -8.090   4.192 128.261  0.00  0.00    +0.000 C 
BRANCH  31  32
ATOM     32  O   UNL     1      -8.925   5.399 128.343  0.00  0.00    +0.000 OA
BRANCH  32  33
ATOM     33  C   UNL     1      -9.459   5.991 129.449  0.00  0.00    +0.000 C 
ATOM     34  C   UNL     1     -10.732   5.457 130.050  0.00  0.00    +0.000 C 
ATOM     35  O   UNL     1      -8.984   7.043 129.879  0.00  0.00    +0.000 OA
ENDBRANCH  32  33
ENDBRANCH  31  32
ENDBRANCH  29  31
ENDBRANCH  11  29
BRANCH  15  36
ATOM     36  O   UNL     1      -5.188   0.077 127.417  0.00  0.00    +0.000 OA
ATOM     37  H   UNL     1      -4.507  -0.630 127.376  0.00  0.00    +0.000 HD
ENDBRANCH  15  36
TORSDOF 5
ENDMDL
