MODEL 1
REMARK VINA RESULT:      -4.0      0.000      0.000
REMARK  Name = Amifampridine
REMARK  2 active torsions:
REMARK  status: ('A' for Active; 'I' for Inactive)
REMARK    1  A    between atoms: N_1  and  C_2
REMARK    2  A    between atoms: C_7  and  N_8
REMARK                            x       y       z     vdW  Elec       q    Type
REMARK                         _______ _______ _______ _____ _____    ______ ____
ROOT
ATOM      1  C   UNL     1     -11.296   8.097 129.192  0.00  0.00    +0.000 A 
ATOM      2  C   UNL     1     -10.726   7.028 129.891  0.00  0.00    +0.000 A 
ATOM      3  C   UNL     1     -11.409   6.488 130.970  0.00  0.00    +0.000 A 
ATOM      4  N   UNL     1     -12.549   7.002 131.464  0.00  0.00    +0.000 NA
ATOM      5  C   UNL     1     -13.028   8.103 130.836  0.00  0.00    +0.000 A 
ATOM      6  C   UNL     1     -12.494   8.660 129.670  0.00  0.00    +0.000 A 
ENDROOT
BRANCH   1   7
ATOM      7  N   UNL     1     -10.549   8.716 128.168  0.00  0.00    +0.000 N 
ATOM      8  H   UNL     1      -9.545   8.660 128.285  0.00  0.00    +0.000 HD
ATOM      9  H   UNL     1     -10.848   8.473 127.233  0.00  0.00    +0.000 HD
ENDBRANCH   1   7
BRANCH   6  10
ATOM     10  N   UNL     1     -13.007   9.863 129.149  0.00  0.00    +0.000 N 
ATOM     11  H   UNL     1     -13.295   9.809 128.178  0.00  0.00    +0.000 HD
ATOM     12  H   UNL     1     -12.426  10.670 129.335  0.00  0.00    +0.000 HD
ENDBRANCH   6  10
TORSDOF 2
ENDMDL
MODEL 2
REMARK VINA RESULT:      -4.0      0.727      2.222
REMARK  Name = Amifampridine
REMARK  2 active torsions:
REMARK  status: ('A' for Active; 'I' for Inactive)
REMARK    1  A    between atoms: N_1  and  C_2
REMARK    2  A    between atoms: C_7  and  N_8
REMARK                            x       y       z     vdW  Elec       q    Type
REMARK                         _______ _______ _______ _____ _____    ______ ____
ROOT
ATOM      1  C   UNL     1     -12.314   8.677 129.605  0.00  0.00    +0.000 A 
ATOM      2  C   UNL     1     -12.918   8.011 130.677  0.00  0.00    +0.000 A 
ATOM      3  C   UNL     1     -12.263   6.932 131.253  0.00  0.00    +0.000 A 
ATOM      4  N   UNL     1     -11.122   6.408 130.773  0.00  0.00    +0.000 NA
ATOM      5  C   UNL     1     -10.612   7.004 129.668  0.00  0.00    +0.000 A 
ATOM      6  C   UNL     1     -11.115   8.167 129.077  0.00  0.00    +0.000 A 
ENDROOT
BRANCH   1   7
ATOM      7  N   UNL     1     -13.031   9.700 128.951  0.00  0.00    +0.000 N 
ATOM      8  H   UNL     1     -13.683   9.375 128.248  0.00  0.00    +0.000 HD
ATOM      9  H   UNL     1     -13.437  10.385 129.573  0.00  0.00    +0.000 HD
ENDBRANCH   1   7
BRANCH   6  10
ATOM     10  N   UNL     1     -10.569   8.654 127.873  0.00  0.00    +0.000 N 
ATOM     11  H   UNL     1      -9.795   9.297 127.996  0.00  0.00    +0.000 HD
ATOM     12  H   UNL     1     -11.260   8.999 127.221  0.00  0.00    +0.000 HD
ENDBRANCH   6  10
TORSDOF 2
ENDMDL
MODEL 3
REMARK VINA RESULT:      -4.0      1.388      2.641
REMARK  Name = Amifampridine
REMARK  2 active torsions:
REMARK  status: ('A' for Active; 'I' for Inactive)
REMARK    1  A    between atoms: N_1  and  C_2
REMARK    2  A    between atoms: C_7  and  N_8
REMARK                            x       y       z     vdW  Elec       q    Type
REMARK                         _______ _______ _______ _____ _____    ______ ____
ROOT
ATOM      1  C   UNL     1     -12.157   8.553 128.860  0.00  0.00    +0.000 A 
ATOM      2  C   UNL     1     -11.270   8.403 127.789  0.00  0.00    +0.000 A 
ATOM      3  C   UNL     1     -10.519   7.241 127.695  0.00  0.00    +0.000 A 
ATOM      4  N   UNL     1     -10.506   6.283 128.638  0.00  0.00    +0.000 NA
ATOM      5  C   UNL     1     -11.293   6.500 129.719  0.00  0.00    +0.000 A 
ATOM      6  C   UNL     1     -12.182   7.569 129.865  0.00  0.00    +0.000 A 
ENDROOT
BRANCH   1   7
ATOM      7  N   UNL     1     -12.835   9.780 129.014  0.00  0.00    +0.000 N 
ATOM      8  H   UNL     1     -13.253  10.141 128.164  0.00  0.00    +0.000 HD
ATOM      9  H   UNL     1     -13.467   9.808 129.802  0.00  0.00    +0.000 HD
ENDBRANCH   1   7
BRANCH   6  10
ATOM     10  N   UNL     1     -12.886   7.758 131.070  0.00  0.00    +0.000 N 
ATOM     11  H   UNL     1     -13.740   7.217 131.144  0.00  0.00    +0.000 HD
ATOM     12  H   UNL     1     -13.020   8.730 131.318  0.00  0.00    +0.000 HD
ENDBRANCH   6  10
TORSDOF 2
ENDMDL
MODEL 4
REMARK VINA RESULT:      -3.9      1.725      3.583
REMARK  Name = Amifampridine
REMARK  2 active torsions:
REMARK  status: ('A' for Active; 'I' for Inactive)
REMARK    1  A    between atoms: N_1  and  C_2
REMARK    2  A    between atoms: C_7  and  N_8
REMARK                            x       y       z     vdW  Elec       q    Type
REMARK                         _______ _______ _______ _____ _____    ______ ____
ROOT
ATOM      1  C   UNL     1     -11.792   7.182 130.713  0.00  0.00    +0.000 A 
ATOM      2  C   UNL     1     -11.554   7.950 129.568  0.00  0.00    +0.000 A 
ATOM      3  C   UNL     1     -10.276   7.974 129.028  0.00  0.00    +0.000 A 
ATOM      4  N   UNL     1      -9.212   7.388 129.603  0.00  0.00    +0.000 NA
ATOM      5  C   UNL     1      -9.447   6.739 130.769  0.00  0.00    +0.000 A 
ATOM      6  C   UNL     1     -10.707   6.544 131.341  0.00  0.00    +0.000 A 
ENDROOT
BRANCH   1   7
ATOM      7  N   UNL     1     -13.062   7.248 131.323  0.00  0.00    +0.000 N 
ATOM      8  H   UNL     1     -13.798   7.609 130.728  0.00  0.00    +0.000 HD
ATOM      9  H   UNL     1     -13.331   6.405 131.811  0.00  0.00    +0.000 HD
ENDBRANCH   1   7
BRANCH   6  10
ATOM     10  N   UNL     1     -10.835   5.939 132.607  0.00  0.00    +0.000 N 
ATOM     11  H   UNL     1     -10.533   6.521 133.380  0.00  0.00    +0.000 HD
ATOM     12  H   UNL     1     -10.453   5.004 132.654  0.00  0.00    +0.000 HD
ENDBRANCH   6  10
TORSDOF 2
ENDMDL
MODEL 5
REMARK VINA RESULT:      -3.9      1.056      2.602
REMARK  Name = Amifampridine
REMARK  2 active torsions:
REMARK  status: ('A' for Active; 'I' for Inactive)
REMARK    1  A    between atoms: N_1  and  C_2
REMARK    2  A    between atoms: C_7  and  N_8
REMARK                            x       y       z     vdW  Elec       q    Type
REMARK                         _______ _______ _______ _____ _____    ______ ____
ROOT
ATOM      1  C   UNL     1     -11.922   7.780 130.011  0.00  0.00    +0.000 A 
ATOM      2  C   UNL     1     -11.052   6.685 130.016  0.00  0.00    +0.000 A 
ATOM      3  C   UNL     1     -10.137   6.547 128.983  0.00  0.00    +0.000 A 
ATOM      4  N   UNL     1     -10.104   7.348 127.903  0.00  0.00    +0.000 NA
ATOM      5  C   UNL     1     -11.027   8.339 127.869  0.00  0.00    +0.000 A 
ATOM      6  C   UNL     1     -11.914   8.649 128.905  0.00  0.00    +0.000 A 
ENDROOT
BRANCH   1   7
ATOM      7  N   UNL     1     -12.923   7.857 131.001  0.00  0.00    +0.000 N 
ATOM      8  H   UNL     1     -12.602   8.196 131.900  0.00  0.00    +0.000 HD
ATOM      9  H   UNL     1     -13.775   8.307 130.695  0.00  0.00    +0.000 HD
ENDBRANCH   1   7
BRANCH   6  10
ATOM     10  N   UNL     1     -12.902   9.638 128.733  0.00  0.00    +0.000 N 
ATOM     11  H   UNL     1     -13.759   9.465 129.245  0.00  0.00    +0.000 HD
ATOM     12  H   UNL     1     -13.071   9.883 127.767  0.00  0.00    +0.000 HD
ENDBRANCH   6  10
TORSDOF 2
ENDMDL
MODEL 6
REMARK VINA RESULT:      -3.9      1.467      3.378
REMARK  Name = Amifampridine
REMARK  2 active torsions:
REMARK  status: ('A' for Active; 'I' for Inactive)
REMARK    1  A    between atoms: N_1  and  C_2
REMARK    2  A    between atoms: C_7  and  N_8
REMARK                            x       y       z     vdW  Elec       q    Type
REMARK                         _______ _______ _______ _____ _____    ______ ____
ROOT
ATOM      1  C   UNL     1     -11.665   6.811 130.678  0.00  0.00    +0.000 A 
ATOM      2  C   UNL     1     -12.898   7.250 130.184  0.00  0.00    +0.000 A 
ATOM      3  C   UNL     1     -12.926   8.003 129.019  0.00  0.00    +0.000 A 
ATOM      4  N   UNL     1     -11.824   8.439 128.385  0.00  0.00    +0.000 NA
ATOM      5  C   UNL     1     -10.639   8.091 128.942  0.00  0.00    +0.000 A 
ATOM      6  C   UNL     1     -10.486   7.236 130.039  0.00  0.00    +0.000 A 
ENDROOT
BRANCH   1   7
ATOM      7  N   UNL     1     -11.629   6.143 131.919  0.00  0.00    +0.000 N 
ATOM      8  H   UNL     1     -11.472   6.745 132.718  0.00  0.00    +0.000 HD
ATOM      9  H   UNL     1     -12.391   5.494 132.062  0.00  0.00    +0.000 HD
ENDBRANCH   1   7
BRANCH   6  10
ATOM     10  N   UNL     1      -9.215   7.013 130.603  0.00  0.00    +0.000 N 
ATOM     11  H   UNL     1      -9.069   6.069 130.942  0.00  0.00    +0.000 HD
ATOM     12  H   UNL     1      -8.938   7.714 131.277  0.00  0.00    +0.000 HD
ENDBRANCH   6  10
TORSDOF 2
ENDMDL
MODEL 7
REMARK VINA RESULT:      -3.9      1.023      2.378
REMARK  Name = Amifampridine
REMARK  2 active torsions:
REMARK  status: ('A' for Active; 'I' for Inactive)
REMARK    1  A    between atoms: N_1  and  C_2
REMARK    2  A    between atoms: C_7  and  N_8
REMARK                            x       y       z     vdW  Elec       q    Type
REMARK                         _______ _______ _______ _____ _____    ______ ____
ROOT
ATOM      1  C   UNL     1     -11.569   8.091 129.430  0.00  0.00    +0.000 A 
ATOM      2  C   UNL     1     -12.680   8.458 130.196  0.00  0.00    +0.000 A 
ATOM      3  C   UNL     1     -12.994   7.716 131.325  0.00  0.00    +0.000 A 
ATOM      4  N   UNL     1     -12.358   6.585 131.676  0.00  0.00    +0.000 NA
ATOM      5  C   UNL     1     -11.352   6.190 130.859  0.00  0.00    +0.000 A 
ATOM      6  C   UNL     1     -10.868   6.919 129.768  0.00  0.00    +0.000 A 
ENDROOT
BRANCH   1   7
ATOM      7  N   UNL     1     -11.318   8.777 128.224  0.00  0.00    +0.000 N 
ATOM      8  H   UNL     1     -10.513   8.442 127.707  0.00  0.00    +0.000 HD
ATOM      9  H   UNL     1     -12.133   8.901 127.640  0.00  0.00    +0.000 HD
ENDBRANCH   1   7
BRANCH   6  10
ATOM     10  N   UNL     1      -9.882   6.375 128.922  0.00  0.00    +0.000 N 
ATOM     11  H   UNL     1     -10.151   5.507 128.472  0.00  0.00    +0.000 HD
ATOM     12  H   UNL     1      -8.964   6.324 129.343  0.00  0.00    +0.000 HD
ENDBRANCH   6  10
TORSDOF 2
ENDMDL
MODEL 8
REMARK VINA RESULT:      -3.9      2.756      4.357
REMARK  Name = Amifampridine
REMARK  2 active torsions:
REMARK  status: ('A' for Active; 'I' for Inactive)
REMARK    1  A    between atoms: N_1  and  C_2
REMARK    2  A    between atoms: C_7  and  N_8
REMARK                            x       y       z     vdW  Elec       q    Type
REMARK                         _______ _______ _______ _____ _____    ______ ____
ROOT
ATOM      1  C   UNL     1      -9.461   5.835 132.421  0.00  0.00    +0.000 A 
ATOM      2  C   UNL     1      -8.104   6.047 132.158  0.00  0.00    +0.000 A 
ATOM      3  C   UNL     1      -7.743   6.844 131.082  0.00  0.00    +0.000 A 
ATOM      4  N   UNL     1      -8.622   7.344 130.196  0.00  0.00    +0.000 NA
ATOM      5  C   UNL     1      -9.924   7.037 130.410  0.00  0.00    +0.000 A 
ATOM      6  C   UNL     1     -10.415   6.349 131.524  0.00  0.00    +0.000 A 
ENDROOT
BRANCH   1   7
ATOM      7  N   UNL     1      -9.822   4.936 133.446  0.00  0.00    +0.000 N 
ATOM      8  H   UNL     1      -9.503   5.200 134.370  0.00  0.00    +0.000 HD
ATOM      9  H   UNL     1     -10.795   4.661 133.432  0.00  0.00    +0.000 HD
ENDBRANCH   1   7
BRANCH   6  10
ATOM     10  N   UNL     1     -11.776   5.994 131.606  0.00  0.00    +0.000 N 
ATOM     11  H   UNL     1     -11.962   5.012 131.435  0.00  0.00    +0.000 HD
ATOM     12  H   UNL     1     -12.390   6.602 131.080  0.00  0.00    +0.000 HD
ENDBRANCH   6  10
TORSDOF 2
ENDMDL
MODEL 9
REMARK VINA RESULT:      -3.9      1.568      2.785
REMARK  Name = Amifampridine
REMARK  2 active torsions:
REMARK  status: ('A' for Active; 'I' for Inactive)
REMARK    1  A    between atoms: N_1  and  C_2
REMARK    2  A    between atoms: C_7  and  N_8
REMARK                            x       y       z     vdW  Elec       q    Type
REMARK                         _______ _______ _______ _____ _____    ______ ____
ROOT
ATOM      1  C   UNL     1     -10.611   7.465 129.895  0.00  0.00    +0.000 A 
ATOM      2  C   UNL     1     -10.674   8.146 128.674  0.00  0.00    +0.000 A 
ATOM      3  C   UNL     1     -11.915   8.402 128.109  0.00  0.00    +0.000 A 
ATOM      4  N   UNL     1     -13.073   7.936 128.609  0.00  0.00    +0.000 NA
ATOM      5  C   UNL     1     -12.978   7.188 129.735  0.00  0.00    +0.000 A 
ATOM      6  C   UNL     1     -11.801   6.969 130.458  0.00  0.00    +0.000 A 
ENDROOT
BRANCH   1   7
ATOM      7  N   UNL     1      -9.348   7.109 130.410  0.00  0.00    +0.000 N 
ATOM      8  H   UNL     1      -9.025   6.188 130.137  0.00  0.00    +0.000 HD
ATOM      9  H   UNL     1      -8.639   7.820 130.297  0.00  0.00    +0.000 HD
ENDBRANCH   1   7
BRANCH   6  10
ATOM     10  N   UNL     1     -11.790   6.095 131.563  0.00  0.00    +0.000 N 
ATOM     11  H   UNL     1     -12.539   6.254 132.227  0.00  0.00    +0.000 HD
ATOM     12  H   UNL     1     -10.887   6.013 132.010  0.00  0.00    +0.000 HD
ENDBRANCH   6  10
TORSDOF 2
ENDMDL
