MODEL 1
REMARK VINA RESULT:      -4.5      0.000      0.000
REMARK  Name = Amifostine
REMARK  10 active torsions:
REMARK  status: ('A' for Active; 'I' for Inactive)
REMARK    1  A    between atoms: N_1  and  C_2
REMARK    2  A    between atoms: C_2  and  C_3
REMARK    3  A    between atoms: C_3  and  C_4
REMARK    4  A    between atoms: C_4  and  N_5
REMARK    5  A    between atoms: N_5  and  C_6
REMARK    6  A    between atoms: C_6  and  C_7
REMARK    7  A    between atoms: C_7  and  S_8
REMARK    8  A    between atoms: S_8  and  P_9
REMARK    9  A    between atoms: P_9  and  O_10
REMARK   10  A    between atoms: P_9  and  O_11
REMARK                            x       y       z     vdW  Elec       q    Type
REMARK                         _______ _______ _______ _____ _____    ______ ____
ROOT
ATOM      1  C   UNL     1     -12.824   7.323 131.317  0.00  0.00    +0.000 C 
ENDROOT
BRANCH   1   2
ATOM      2  N   UNL     1     -12.075   6.091 131.570  0.00  0.00    +0.000 NA
ATOM      3  H   UNL     1     -12.602   5.486 132.202  0.00  0.00    +0.000 HD
BRANCH   2   4
ATOM      4  C   UNL     1     -10.777   6.395 132.178  0.00  0.00    +0.000 C 
BRANCH   4   5
ATOM      5  C   UNL     1      -9.719   5.424 131.655  0.00  0.00    +0.000 C 
BRANCH   5   6
ATOM      6  C   UNL     1      -8.541   6.187 131.054  0.00  0.00    +0.000 C 
BRANCH   6   7
ATOM      7  N   UNL     1      -9.019   7.311 130.260  0.00  0.00    +0.000 NA
ATOM      8  H   UNL     1      -8.384   8.101 130.371  0.00  0.00    +0.000 HD
ATOM      9  H   UNL     1      -9.924   7.620 130.614  0.00  0.00    +0.000 HD
ENDBRANCH   6   7
ENDBRANCH   5   6
ENDBRANCH   4   5
ENDBRANCH   2   4
ENDBRANCH   1   2
BRANCH   1  10
ATOM     10  C   UNL     1     -12.339   8.001 130.028  0.00  0.00    +0.000 C 
BRANCH  10  11
ATOM     11  S   UNL     1     -12.518   6.830 128.668  0.00  0.00    +0.000 S 
BRANCH  11  12
ATOM     12  P   UNL     1     -11.424   7.573 127.011  0.00  0.00    +0.000 P 
ATOM     13  O   UNL     1     -10.625   8.116 125.801  0.00  0.00    +0.000 OA
BRANCH  12  14
ATOM     14  O   UNL     1     -10.189   6.644 127.571  0.00  0.00    +0.000 OA
ATOM     15  H   UNL     1     -10.444   6.105 128.333  0.00  0.00    +0.000 HD
ENDBRANCH  12  14
BRANCH  12  16
ATOM     16  O   UNL     1     -12.208   6.423 126.139  0.00  0.00    +0.000 OA
ATOM     17  H   UNL     1     -13.072   6.197 126.517  0.00  0.00    +0.000 HD
ENDBRANCH  12  16
ENDBRANCH  11  12
ENDBRANCH  10  11
ENDBRANCH   1  10
TORSDOF 10
ENDMDL
MODEL 2
REMARK VINA RESULT:      -4.4      1.664      2.115
REMARK  Name = Amifostine
REMARK  10 active torsions:
REMARK  status: ('A' for Active; 'I' for Inactive)
REMARK    1  A    between atoms: N_1  and  C_2
REMARK    2  A    between atoms: C_2  and  C_3
REMARK    3  A    between atoms: C_3  and  C_4
REMARK    4  A    between atoms: C_4  and  N_5
REMARK    5  A    between atoms: N_5  and  C_6
REMARK    6  A    between atoms: C_6  and  C_7
REMARK    7  A    between atoms: C_7  and  S_8
REMARK    8  A    between atoms: S_8  and  P_9
REMARK    9  A    between atoms: P_9  and  O_10
REMARK   10  A    between atoms: P_9  and  O_11
REMARK                            x       y       z     vdW  Elec       q    Type
REMARK                         _______ _______ _______ _____ _____    ______ ____
ROOT
ATOM      1  C   UNL     1     -12.433   7.288 131.580  0.00  0.00    +0.000 C 
ENDROOT
BRANCH   1   2
ATOM      2  N   UNL     1     -11.873   5.970 131.884  0.00  0.00    +0.000 NA
ATOM      3  H   UNL     1     -12.432   5.509 132.603  0.00  0.00    +0.000 HD
BRANCH   2   4
ATOM      4  C   UNL     1     -10.494   6.096 132.364  0.00  0.00    +0.000 C 
BRANCH   4   5
ATOM      5  C   UNL     1      -9.589   5.125 131.608  0.00  0.00    +0.000 C 
BRANCH   5   6
ATOM      6  C   UNL     1      -9.290   3.895 132.462  0.00  0.00    +0.000 C 
BRANCH   6   7
ATOM      7  N   UNL     1      -9.898   4.033 133.779  0.00  0.00    +0.000 NA
ATOM      8  H   UNL     1      -9.215   4.416 134.431  0.00  0.00    +0.000 HD
ATOM      9  H   UNL     1     -10.149   3.111 134.138  0.00  0.00    +0.000 HD
ENDBRANCH   6   7
ENDBRANCH   5   6
ENDBRANCH   4   5
ENDBRANCH   2   4
ENDBRANCH   1   2
BRANCH   1  10
ATOM     10  C   UNL     1     -13.079   7.299 130.188  0.00  0.00    +0.000 C 
BRANCH  10  11
ATOM     11  S   UNL     1     -12.170   8.458 129.148  0.00  0.00    +0.000 S 
BRANCH  11  12
ATOM     12  P   UNL     1     -10.799   7.349 127.970  0.00  0.00    +0.000 P 
ATOM     13  O   UNL     1      -9.800   6.539 127.109  0.00  0.00    +0.000 OA
BRANCH  12  14
ATOM     14  O   UNL     1      -9.699   7.712 129.135  0.00  0.00    +0.000 OA
ATOM     15  H   UNL     1      -8.904   8.133 128.779  0.00  0.00    +0.000 HD
ENDBRANCH  12  14
BRANCH  12  16
ATOM     16  O   UNL     1     -11.462   6.022 128.676  0.00  0.00    +0.000 OA
ATOM     17  H   UNL     1     -12.345   6.197 129.037  0.00  0.00    +0.000 HD
ENDBRANCH  12  16
ENDBRANCH  11  12
ENDBRANCH  10  11
ENDBRANCH   1  10
TORSDOF 10
ENDMDL
MODEL 3
REMARK VINA RESULT:      -4.3      8.722      9.575
REMARK  Name = Amifostine
REMARK  10 active torsions:
REMARK  status: ('A' for Active; 'I' for Inactive)
REMARK    1  A    between atoms: N_1  and  C_2
REMARK    2  A    between atoms: C_2  and  C_3
REMARK    3  A    between atoms: C_3  and  C_4
REMARK    4  A    between atoms: C_4  and  N_5
REMARK    5  A    between atoms: N_5  and  C_6
REMARK    6  A    between atoms: C_6  and  C_7
REMARK    7  A    between atoms: C_7  and  S_8
REMARK    8  A    between atoms: S_8  and  P_9
REMARK    9  A    between atoms: P_9  and  O_10
REMARK   10  A    between atoms: P_9  and  O_11
REMARK                            x       y       z     vdW  Elec       q    Type
REMARK                         _______ _______ _______ _____ _____    ______ ____
ROOT
ATOM      1  C   UNL     1      -6.725   3.882 124.142  0.00  0.00    +0.000 C 
ENDROOT
BRANCH   1   2
ATOM      2  N   UNL     1      -5.664   4.051 123.147  0.00  0.00    +0.000 NA
ATOM      3  H   UNL     1      -5.443   5.041 123.037  0.00  0.00    +0.000 HD
BRANCH   2   4
ATOM      4  C   UNL     1      -6.085   3.512 121.851  0.00  0.00    +0.000 C 
BRANCH   4   5
ATOM      5  C   UNL     1      -5.011   3.790 120.800  0.00  0.00    +0.000 C 
BRANCH   5   6
ATOM      6  C   UNL     1      -5.145   5.212 120.259  0.00  0.00    +0.000 C 
BRANCH   6   7
ATOM      7  N   UNL     1      -4.283   6.120 121.003  0.00  0.00    +0.000 NA
ATOM      8  H   UNL     1      -4.853   6.723 121.596  0.00  0.00    +0.000 HD
ATOM      9  H   UNL     1      -3.795   6.738 120.354  0.00  0.00    +0.000 HD
ENDBRANCH   6   7
ENDBRANCH   5   6
ENDBRANCH   4   5
ENDBRANCH   2   4
ENDBRANCH   1   2
BRANCH   1  10
ATOM     10  C   UNL     1      -8.024   3.403 123.478  0.00  0.00    +0.000 C 
BRANCH  10  11
ATOM     11  S   UNL     1      -8.776   2.153 124.538  0.00  0.00    +0.000 S 
BRANCH  11  12
ATOM     12  P   UNL     1      -9.892   0.833 123.309  0.00  0.00    +0.000 P 
ATOM     13  O   UNL     1     -10.706  -0.130 122.411  0.00  0.00    +0.000 OA
BRANCH  12  14
ATOM     14  O   UNL     1      -9.533  -0.313 124.431  0.00  0.00    +0.000 OA
ATOM     15  H   UNL     1      -8.795  -0.879 124.163  0.00  0.00    +0.000 HD
ENDBRANCH  12  14
BRANCH  12  16
ATOM     16  O   UNL     1     -11.216   1.474 124.041  0.00  0.00    +0.000 OA
ATOM     17  H   UNL     1     -11.693   2.091 123.466  0.00  0.00    +0.000 HD
ENDBRANCH  12  16
ENDBRANCH  11  12
ENDBRANCH  10  11
ENDBRANCH   1  10
TORSDOF 10
ENDMDL
MODEL 4
REMARK VINA RESULT:      -4.3      3.229      4.268
REMARK  Name = Amifostine
REMARK  10 active torsions:
REMARK  status: ('A' for Active; 'I' for Inactive)
REMARK    1  A    between atoms: N_1  and  C_2
REMARK    2  A    between atoms: C_2  and  C_3
REMARK    3  A    between atoms: C_3  and  C_4
REMARK    4  A    between atoms: C_4  and  N_5
REMARK    5  A    between atoms: N_5  and  C_6
REMARK    6  A    between atoms: C_6  and  C_7
REMARK    7  A    between atoms: C_7  and  S_8
REMARK    8  A    between atoms: S_8  and  P_9
REMARK    9  A    between atoms: P_9  and  O_10
REMARK   10  A    between atoms: P_9  and  O_11
REMARK                            x       y       z     vdW  Elec       q    Type
REMARK                         _______ _______ _______ _____ _____    ______ ____
ROOT
ATOM      1  C   UNL     1     -12.114   7.585 130.344  0.00  0.00    +0.000 C 
ENDROOT
BRANCH   1   2
ATOM      2  N   UNL     1     -12.891   7.056 129.222  0.00  0.00    +0.000 NA
ATOM      3  H   UNL     1     -12.535   6.138 128.951  0.00  0.00    +0.000 HD
BRANCH   2   4
ATOM      4  C   UNL     1     -12.806   7.955 128.068  0.00  0.00    +0.000 C 
BRANCH   4   5
ATOM      5  C   UNL     1     -11.341   8.232 127.733  0.00  0.00    +0.000 C 
BRANCH   5   6
ATOM      6  C   UNL     1     -10.983   7.647 126.369  0.00  0.00    +0.000 C 
BRANCH   6   7
ATOM      7  N   UNL     1     -10.037   6.549 126.521  0.00  0.00    +0.000 NA
ATOM      8  H   UNL     1      -9.313   6.813 127.188  0.00  0.00    +0.000 HD
ATOM      9  H   UNL     1      -9.562   6.382 125.635  0.00  0.00    +0.000 HD
ENDBRANCH   6   7
ENDBRANCH   5   6
ENDBRANCH   4   5
ENDBRANCH   2   4
ENDBRANCH   1   2
BRANCH   1  10
ATOM     10  C   UNL     1     -11.968   6.533 131.451  0.00  0.00    +0.000 C 
BRANCH  10  11
ATOM     11  S   UNL     1     -10.229   6.072 131.572  0.00  0.00    +0.000 S 
BRANCH  11  12
ATOM     12  P   UNL     1      -9.927   4.330 130.401  0.00  0.00    +0.000 P 
ATOM     13  O   UNL     1      -9.706   3.059 129.546  0.00  0.00    +0.000 OA
BRANCH  12  14
ATOM     14  O   UNL     1     -11.566   4.256 130.316  0.00  0.00    +0.000 OA
ATOM     15  H   UNL     1     -11.959   5.069 129.967  0.00  0.00    +0.000 HD
ENDBRANCH  12  14
BRANCH  12  16
ATOM     16  O   UNL     1      -9.673   5.367 129.152  0.00  0.00    +0.000 OA
ATOM     17  H   UNL     1      -8.845   5.183 128.682  0.00  0.00    +0.000 HD
ENDBRANCH  12  16
ENDBRANCH  11  12
ENDBRANCH  10  11
ENDBRANCH   1  10
TORSDOF 10
ENDMDL
MODEL 5
REMARK VINA RESULT:      -4.2      3.241      4.253
REMARK  Name = Amifostine
REMARK  10 active torsions:
REMARK  status: ('A' for Active; 'I' for Inactive)
REMARK    1  A    between atoms: N_1  and  C_2
REMARK    2  A    between atoms: C_2  and  C_3
REMARK    3  A    between atoms: C_3  and  C_4
REMARK    4  A    between atoms: C_4  and  N_5
REMARK    5  A    between atoms: N_5  and  C_6
REMARK    6  A    between atoms: C_6  and  C_7
REMARK    7  A    between atoms: C_7  and  S_8
REMARK    8  A    between atoms: S_8  and  P_9
REMARK    9  A    between atoms: P_9  and  O_10
REMARK   10  A    between atoms: P_9  and  O_11
REMARK                            x       y       z     vdW  Elec       q    Type
REMARK                         _______ _______ _______ _____ _____    ______ ____
ROOT
ATOM      1  C   UNL     1     -11.796   5.975 130.637  0.00  0.00    +0.000 C 
ENDROOT
BRANCH   1   2
ATOM      2  N   UNL     1     -12.165   5.867 129.225  0.00  0.00    +0.000 NA
ATOM      3  H   UNL     1     -11.345   6.025 128.636  0.00  0.00    +0.000 HD
BRANCH   2   4
ATOM      4  C   UNL     1     -13.190   6.858 128.884  0.00  0.00    +0.000 C 
BRANCH   4   5
ATOM      5  C   UNL     1     -13.072   7.242 127.410  0.00  0.00    +0.000 C 
BRANCH   5   6
ATOM      6  C   UNL     1     -11.647   7.682 127.083  0.00  0.00    +0.000 C 
BRANCH   6   7
ATOM      7  N   UNL     1     -10.953   6.639 126.339  0.00  0.00    +0.000 NA
ATOM      8  H   UNL     1      -9.983   6.588 126.649  0.00  0.00    +0.000 HD
ATOM      9  H   UNL     1     -10.923   6.887 125.350  0.00  0.00    +0.000 HD
ENDBRANCH   6   7
ENDBRANCH   5   6
ENDBRANCH   4   5
ENDBRANCH   2   4
ENDBRANCH   1   2
BRANCH   1  10
ATOM     10  C   UNL     1     -10.293   6.248 130.789  0.00  0.00    +0.000 C 
BRANCH  10  11
ATOM     11  S   UNL     1      -9.433   4.665 130.866  0.00  0.00    +0.000 S 
BRANCH  11  12
ATOM     12  P   UNL     1      -8.162   4.525 129.174  0.00  0.00    +0.000 P 
ATOM     13  O   UNL     1      -7.234   4.423 127.939  0.00  0.00    +0.000 OA
BRANCH  12  14
ATOM     14  O   UNL     1      -9.021   3.176 128.798  0.00  0.00    +0.000 OA
ATOM     15  H   UNL     1      -9.142   3.064 127.845  0.00  0.00    +0.000 HD
ENDBRANCH  12  14
BRANCH  12  16
ATOM     16  O   UNL     1      -9.159   5.638 128.491  0.00  0.00    +0.000 OA
ATOM     17  H   UNL     1      -8.829   5.955 127.636  0.00  0.00    +0.000 HD
ENDBRANCH  12  16
ENDBRANCH  11  12
ENDBRANCH  10  11
ENDBRANCH   1  10
TORSDOF 10
ENDMDL
MODEL 6
REMARK VINA RESULT:      -4.1      4.810      5.777
REMARK  Name = Amifostine
REMARK  10 active torsions:
REMARK  status: ('A' for Active; 'I' for Inactive)
REMARK    1  A    between atoms: N_1  and  C_2
REMARK    2  A    between atoms: C_2  and  C_3
REMARK    3  A    between atoms: C_3  and  C_4
REMARK    4  A    between atoms: C_4  and  N_5
REMARK    5  A    between atoms: N_5  and  C_6
REMARK    6  A    between atoms: C_6  and  C_7
REMARK    7  A    between atoms: C_7  and  S_8
REMARK    8  A    between atoms: S_8  and  P_9
REMARK    9  A    between atoms: P_9  and  O_10
REMARK   10  A    between atoms: P_9  and  O_11
REMARK                            x       y       z     vdW  Elec       q    Type
REMARK                         _______ _______ _______ _____ _____    ______ ____
ROOT
ATOM      1  C   UNL     1     -10.794   6.753 130.155  0.00  0.00    +0.000 C 
ENDROOT
BRANCH   1   2
ATOM      2  N   UNL     1     -11.507   6.103 129.053  0.00  0.00    +0.000 NA
ATOM      3  H   UNL     1     -10.874   5.953 128.267  0.00  0.00    +0.000 HD
BRANCH   2   4
ATOM      4  C   UNL     1     -12.628   6.936 128.606  0.00  0.00    +0.000 C 
BRANCH   4   5
ATOM      5  C   UNL     1     -12.595   7.075 127.084  0.00  0.00    +0.000 C 
BRANCH   5   6
ATOM      6  C   UNL     1     -11.242   7.612 126.624  0.00  0.00    +0.000 C 
BRANCH   6   7
ATOM      7  N   UNL     1     -10.367   6.513 126.236  0.00  0.00    +0.000 NA
ATOM      8  H   UNL     1     -10.046   6.654 125.279  0.00  0.00    +0.000 HD
ATOM      9  H   UNL     1     -10.895   5.640 126.234  0.00  0.00    +0.000 HD
ENDBRANCH   6   7
ENDBRANCH   5   6
ENDBRANCH   4   5
ENDBRANCH   2   4
ENDBRANCH   1   2
BRANCH   1  10
ATOM     10  C   UNL     1     -10.948   5.949 131.453  0.00  0.00    +0.000 C 
BRANCH  10  11
ATOM     11  S   UNL     1      -9.647   4.702 131.508  0.00  0.00    +0.000 S 
BRANCH  11  12
ATOM     12  P   UNL     1      -8.754   4.766 133.430  0.00  0.00    +0.000 P 
ATOM     13  O   UNL     1      -8.102   4.812 134.833  0.00  0.00    +0.000 OA
BRANCH  12  14
ATOM     14  O   UNL     1      -9.405   6.271 133.543  0.00  0.00    +0.000 OA
ATOM     15  H   UNL     1      -9.197   6.705 134.382  0.00  0.00    +0.000 HD
ENDBRANCH  12  14
BRANCH  12  16
ATOM     16  O   UNL     1     -10.062   3.905 133.927  0.00  0.00    +0.000 OA
ATOM     17  H   UNL     1     -10.863   4.449 133.981  0.00  0.00    +0.000 HD
ENDBRANCH  12  16
ENDBRANCH  11  12
ENDBRANCH  10  11
ENDBRANCH   1  10
TORSDOF 10
ENDMDL
MODEL 7
REMARK VINA RESULT:      -4.0      4.034      5.119
REMARK  Name = Amifostine
REMARK  10 active torsions:
REMARK  status: ('A' for Active; 'I' for Inactive)
REMARK    1  A    between atoms: N_1  and  C_2
REMARK    2  A    between atoms: C_2  and  C_3
REMARK    3  A    between atoms: C_3  and  C_4
REMARK    4  A    between atoms: C_4  and  N_5
REMARK    5  A    between atoms: N_5  and  C_6
REMARK    6  A    between atoms: C_6  and  C_7
REMARK    7  A    between atoms: C_7  and  S_8
REMARK    8  A    between atoms: S_8  and  P_9
REMARK    9  A    between atoms: P_9  and  O_10
REMARK   10  A    between atoms: P_9  and  O_11
REMARK                            x       y       z     vdW  Elec       q    Type
REMARK                         _______ _______ _______ _____ _____    ______ ____
ROOT
ATOM      1  C   UNL     1     -10.003   6.777 129.417  0.00  0.00    +0.000 C 
ENDROOT
BRANCH   1   2
ATOM      2  N   UNL     1     -11.176   5.948 129.135  0.00  0.00    +0.000 NA
ATOM      3  H   UNL     1     -11.169   5.651 128.159  0.00  0.00    +0.000 HD
BRANCH   2   4
ATOM      4  C   UNL     1     -12.409   6.699 129.393  0.00  0.00    +0.000 C 
BRANCH   4   5
ATOM      5  C   UNL     1     -12.624   7.737 128.293  0.00  0.00    +0.000 C 
BRANCH   5   6
ATOM      6  C   UNL     1     -12.907   7.054 126.958  0.00  0.00    +0.000 C 
BRANCH   6   7
ATOM      7  N   UNL     1     -11.665   6.832 126.229  0.00  0.00    +0.000 NA
ATOM      8  H   UNL     1     -11.855   6.819 125.228  0.00  0.00    +0.000 HD
ATOM      9  H   UNL     1     -11.292   5.911 126.460  0.00  0.00    +0.000 HD
ENDBRANCH   6   7
ENDBRANCH   5   6
ENDBRANCH   4   5
ENDBRANCH   2   4
ENDBRANCH   1   2
BRANCH   1  10
ATOM     10  C   UNL     1      -9.430   6.460 130.805  0.00  0.00    +0.000 C 
BRANCH  10  11
ATOM     11  S   UNL     1      -8.340   5.031 130.657  0.00  0.00    +0.000 S 
BRANCH  11  12
ATOM     12  P   UNL     1      -9.417   3.314 131.278  0.00  0.00    +0.000 P 
ATOM     13  O   UNL     1     -10.204   2.060 131.731  0.00  0.00    +0.000 OA
BRANCH  12  14
ATOM     14  O   UNL     1     -10.554   4.375 131.810  0.00  0.00    +0.000 OA
ATOM     15  H   UNL     1     -10.661   4.356 132.772  0.00  0.00    +0.000 HD
ENDBRANCH  12  14
BRANCH  12  16
ATOM     16  O   UNL     1      -9.906   3.210 129.713  0.00  0.00    +0.000 OA
ATOM     17  H   UNL     1      -9.321   3.696 129.111  0.00  0.00    +0.000 HD
ENDBRANCH  12  16
ENDBRANCH  11  12
ENDBRANCH  10  11
ENDBRANCH   1  10
TORSDOF 10
ENDMDL
MODEL 8
REMARK VINA RESULT:      -4.0      4.724      5.568
REMARK  Name = Amifostine
REMARK  10 active torsions:
REMARK  status: ('A' for Active; 'I' for Inactive)
REMARK    1  A    between atoms: N_1  and  C_2
REMARK    2  A    between atoms: C_2  and  C_3
REMARK    3  A    between atoms: C_3  and  C_4
REMARK    4  A    between atoms: C_4  and  N_5
REMARK    5  A    between atoms: N_5  and  C_6
REMARK    6  A    between atoms: C_6  and  C_7
REMARK    7  A    between atoms: C_7  and  S_8
REMARK    8  A    between atoms: S_8  and  P_9
REMARK    9  A    between atoms: P_9  and  O_10
REMARK   10  A    between atoms: P_9  and  O_11
REMARK                            x       y       z     vdW  Elec       q    Type
REMARK                         _______ _______ _______ _____ _____    ______ ____
ROOT
ATOM      1  C   UNL     1     -11.454   5.534 130.502  0.00  0.00    +0.000 C 
ENDROOT
BRANCH   1   2
ATOM      2  N   UNL     1     -12.012   6.180 131.691  0.00  0.00    +0.000 NA
ATOM      3  H   UNL     1     -12.655   5.544 132.166  0.00  0.00    +0.000 HD
BRANCH   2   4
ATOM      4  C   UNL     1     -12.739   7.398 131.320  0.00  0.00    +0.000 C 
BRANCH   4   5
ATOM      5  C   UNL     1     -12.856   7.490 129.800  0.00  0.00    +0.000 C 
BRANCH   5   6
ATOM      6  C   UNL     1     -12.142   8.735 129.281  0.00  0.00    +0.000 C 
BRANCH   6   7
ATOM      7  N   UNL     1     -13.104   9.798 129.018  0.00  0.00    +0.000 NA
ATOM      8  H   UNL     1     -12.607  10.666 128.822  0.00  0.00    +0.000 HD
ATOM      9  H   UNL     1     -13.659   9.971 129.856  0.00  0.00    +0.000 HD
ENDBRANCH   6   7
ENDBRANCH   5   6
ENDBRANCH   4   5
ENDBRANCH   2   4
ENDBRANCH   1   2
BRANCH   1  10
ATOM     10  C   UNL     1     -10.541   4.364 130.895  0.00  0.00    +0.000 C 
BRANCH  10  11
ATOM     11  S   UNL     1      -8.905   5.022 131.274  0.00  0.00    +0.000 S 
BRANCH  11  12
ATOM     12  P   UNL     1      -8.581   4.817 133.359  0.00  0.00    +0.000 P 
ATOM     13  O   UNL     1      -8.344   4.667 134.881  0.00  0.00    +0.000 OA
BRANCH  12  14
ATOM     14  O   UNL     1      -9.465   6.195 133.504  0.00  0.00    +0.000 OA
ATOM     15  H   UNL     1     -10.269   6.070 134.027  0.00  0.00    +0.000 HD
ENDBRANCH  12  14
BRANCH  12  16
ATOM     16  O   UNL     1      -9.823   3.743 133.318  0.00  0.00    +0.000 OA
ATOM     17  H   UNL     1     -10.404   3.821 134.091  0.00  0.00    +0.000 HD
ENDBRANCH  12  16
ENDBRANCH  11  12
ENDBRANCH  10  11
ENDBRANCH   1  10
TORSDOF 10
ENDMDL
MODEL 9
REMARK VINA RESULT:      -3.9      2.992      3.929
REMARK  Name = Amifostine
REMARK  10 active torsions:
REMARK  status: ('A' for Active; 'I' for Inactive)
REMARK    1  A    between atoms: N_1  and  C_2
REMARK    2  A    between atoms: C_2  and  C_3
REMARK    3  A    between atoms: C_3  and  C_4
REMARK    4  A    between atoms: C_4  and  N_5
REMARK    5  A    between atoms: N_5  and  C_6
REMARK    6  A    between atoms: C_6  and  C_7
REMARK    7  A    between atoms: C_7  and  S_8
REMARK    8  A    between atoms: S_8  and  P_9
REMARK    9  A    between atoms: P_9  and  O_10
REMARK   10  A    between atoms: P_9  and  O_11
REMARK                            x       y       z     vdW  Elec       q    Type
REMARK                         _______ _______ _______ _____ _____    ______ ____
ROOT
ATOM      1  C   UNL     1     -11.813   5.393 130.437  0.00  0.00    +0.000 C 
ENDROOT
BRANCH   1   2
ATOM      2  N   UNL     1     -12.307   5.769 129.111  0.00  0.00    +0.000 NA
ATOM      3  H   UNL     1     -11.526   6.040 128.511  0.00  0.00    +0.000 HD
BRANCH   2   4
ATOM      4  C   UNL     1     -13.240   6.895 129.211  0.00  0.00    +0.000 C 
BRANCH   4   5
ATOM      5  C   UNL     1     -12.575   8.056 129.949  0.00  0.00    +0.000 C 
BRANCH   5   6
ATOM      6  C   UNL     1     -12.161   9.149 128.968  0.00  0.00    +0.000 C 
BRANCH   6   7
ATOM      7  N   UNL     1     -11.062   8.687 128.130  0.00  0.00    +0.000 NA
ATOM      8  H   UNL     1     -10.191   9.113 128.445  0.00  0.00    +0.000 HD
ATOM      9  H   UNL     1     -11.205   9.007 127.171  0.00  0.00    +0.000 HD
ENDBRANCH   6   7
ENDBRANCH   5   6
ENDBRANCH   4   5
ENDBRANCH   2   4
ENDBRANCH   1   2
BRANCH   1  10
ATOM     10  C   UNL     1     -11.173   3.999 130.406  0.00  0.00    +0.000 C 
BRANCH  10  11
ATOM     11  S   UNL     1      -9.384   4.196 130.295  0.00  0.00    +0.000 S 
BRANCH  11  12
ATOM     12  P   UNL     1      -8.962   6.264 130.087  0.00  0.00    +0.000 P 
ATOM     13  O   UNL     1      -8.655   7.773 129.935  0.00  0.00    +0.000 OA
BRANCH  12  14
ATOM     14  O   UNL     1      -7.387   5.804 129.997  0.00  0.00    +0.000 OA
ATOM     15  H   UNL     1      -7.158   5.126 130.648  0.00  0.00    +0.000 HD
ENDBRANCH  12  14
BRANCH  12  16
ATOM     16  O   UNL     1      -9.360   6.056 128.507  0.00  0.00    +0.000 OA
ATOM     17  H   UNL     1     -10.303   6.211 128.340  0.00  0.00    +0.000 HD
ENDBRANCH  12  16
ENDBRANCH  11  12
ENDBRANCH  10  11
ENDBRANCH   1  10
TORSDOF 10
ENDMDL
