MODEL 1
REMARK VINA RESULT:      -6.1      0.000      0.000
REMARK  Name = Amikacin
REMARK  22 active torsions:
REMARK  status: ('A' for Active; 'I' for Inactive)
REMARK    1  A    between atoms: N_1  and  C_2
REMARK    2  A    between atoms: C_2  and  C_3
REMARK    3  A    between atoms: C_3  and  C_4
REMARK    4  A    between atoms: C_4  and  O_5
REMARK    5  A    between atoms: C_4  and  C_6
REMARK    6  A    between atoms: N_8  and  C_9
REMARK    7  A    between atoms: C_11  and  N_12
REMARK    8  A    between atoms: C_13  and  O_14
REMARK    9  A    between atoms: O_14  and  C_15
REMARK   10  A    between atoms: C_17  and  C_18
REMARK   11  A    between atoms: C_18  and  N_19
REMARK   12  A    between atoms: C_20  and  O_21
REMARK   13  A    between atoms: C_22  and  O_23
REMARK   14  A    between atoms: C_24  and  O_25
REMARK   15  A    between atoms: C_26  and  O_27
REMARK   16  A    between atoms: C_28  and  O_29
REMARK   17  A    between atoms: O_29  and  C_30
REMARK   18  A    between atoms: C_32  and  C_33
REMARK   19  A    between atoms: C_33  and  O_34
REMARK   20  A    between atoms: C_35  and  O_36
REMARK   21  A    between atoms: C_37  and  N_38
REMARK   22  A    between atoms: C_39  and  O_40
REMARK                            x       y       z     vdW  Elec       q    Type
REMARK                         _______ _______ _______ _____ _____    ______ ____
ROOT
ATOM      1  C   UNL     1     -10.489   5.062 131.181  0.00  0.00    +0.000 C 
ATOM      2  C   UNL     1      -9.746   6.133 131.979  0.00  0.00    +0.000 C 
ATOM      3  C   UNL     1      -8.674   6.890 131.109  0.00  0.00    +0.000 C 
ATOM      4  C   UNL     1      -7.637   5.836 130.709  0.00  0.00    +0.000 C 
ATOM      5  C   UNL     1      -8.364   4.765 129.784  0.00  0.00    +0.000 C 
ATOM      6  C   UNL     1      -9.424   4.019 130.600  0.00  0.00    +0.000 C 
ENDROOT
BRANCH   1   9
ATOM      7  C   UNL     1     -12.385   6.585 130.334  0.00  0.00    +0.000 C 
ATOM      8  O   UNL     1     -12.840   6.826 131.421  0.00  0.00    +0.000 OA
ATOM      9  N   UNL     1     -11.332   5.681 130.109  0.00  0.00    +0.000 N 
ATOM     10  H   UNL     1     -11.333   5.176 129.238  0.00  0.00    +0.000 HD
BRANCH   7  11
ATOM     11  C   UNL     1     -12.797   7.506 129.137  0.00  0.00    +0.000 C 
BRANCH  11  12
ATOM     12  O   UNL     1     -11.802   8.539 128.987  0.00  0.00    +0.000 OA
ATOM     13  H   UNL     1     -11.029   8.182 128.516  0.00  0.00    +0.000 HD
ENDBRANCH  11  12
BRANCH  11  14
ATOM     14  C   UNL     1     -12.954   6.887 127.748  0.00  0.00    +0.000 C 
BRANCH  14  15
ATOM     15  C   UNL     1     -11.922   7.465 126.796  0.00  0.00    +0.000 C 
BRANCH  15  16
ATOM     16  N   UNL     1     -10.610   6.898 127.031  0.00  0.00    +0.000 NA
ATOM     17  H   UNL     1     -10.508   6.047 126.479  0.00  0.00    +0.000 HD
ATOM     18  H   UNL     1     -10.512   6.624 128.009  0.00  0.00    +0.000 HD
ENDBRANCH  15  16
ENDBRANCH  14  15
ENDBRANCH  11  14
ENDBRANCH   7  11
ENDBRANCH   1   9
BRANCH   3  19
ATOM     19  N   UNL     1      -8.870   7.580 129.835  0.00  0.00    +0.000 NA
ATOM     20  H   UNL     1      -8.889   6.968 129.053  0.00  0.00    +0.000 HD
ATOM     21  H   UNL     1      -9.711   8.148 129.833  0.00  0.00    +0.000 HD
ENDBRANCH   3  19
BRANCH   5  22
ATOM     22  O   UNL     1      -9.011   5.224 128.598  0.00  0.00    +0.000 OA
ATOM     23  H   UNL     1      -8.475   4.839 127.886  0.00  0.00    +0.000 HD
ENDBRANCH   5  22
BRANCH   6  24
ATOM     24  O   UNL     1      -8.780   3.326 131.660  0.00  0.00    +0.000 OA
BRANCH  24  25
ATOM     25  C   UNL     1      -8.319   1.984 131.374  0.00  0.00    +0.000 C 
ATOM     26  O   UNL     1      -7.257   1.854 130.402  0.00  0.00    +0.000 OA
ATOM     27  C   UNL     1      -6.720   0.522 130.193  0.00  0.00    +0.000 C 
ATOM     28  C   UNL     1      -6.103   0.043 131.512  0.00  0.00    +0.000 C 
ATOM     29  C   UNL     1      -7.141   0.166 132.670  0.00  0.00    +0.000 C 
ATOM     30  C   UNL     1      -7.739   1.558 132.719  0.00  0.00    +0.000 C 
BRANCH  29  31
ATOM     31  N   UNL     1      -8.284  -0.762 132.574  0.00  0.00    +0.000 NA
ATOM     32  H   UNL     1      -9.148  -0.296 132.842  0.00  0.00    +0.000 HD
ATOM     33  H   UNL     1      -8.174  -1.465 133.310  0.00  0.00    +0.000 HD
ENDBRANCH  29  31
BRANCH  30  34
ATOM     34  O   UNL     1      -6.686   2.436 133.043  0.00  0.00    +0.000 OA
ATOM     35  H   UNL     1      -6.173   2.523 132.213  0.00  0.00    +0.000 HD
ENDBRANCH  30  34
BRANCH  28  36
ATOM     36  O   UNL     1      -4.908   0.810 131.741  0.00  0.00    +0.000 OA
ATOM     37  H   UNL     1      -4.297   0.622 131.007  0.00  0.00    +0.000 HD
ENDBRANCH  28  36
BRANCH  27  38
ATOM     38  C   UNL     1      -7.738  -0.488 129.633  0.00  0.00    +0.000 C 
BRANCH  38  39
ATOM     39  O   UNL     1      -7.304  -1.829 129.816  0.00  0.00    +0.000 OA
ATOM     40  H   UNL     1      -8.037  -2.315 130.231  0.00  0.00    +0.000 HD
ENDBRANCH  38  39
ENDBRANCH  27  38
ENDBRANCH  24  25
ENDBRANCH   6  24
BRANCH   4  41
ATOM     41  O   UNL     1      -7.056   5.253 131.903  0.00  0.00    +0.000 OA
BRANCH  41  42
ATOM     42  C   UNL     1      -5.651   5.500 132.046  0.00  0.00    +0.000 C 
ATOM     43  O   UNL     1      -5.095   4.911 133.218  0.00  0.00    +0.000 OA
ATOM     44  C   UNL     1      -3.700   5.194 133.458  0.00  0.00    +0.000 C 
ATOM     45  C   UNL     1      -2.893   4.627 132.290  0.00  0.00    +0.000 C 
ATOM     46  C   UNL     1      -3.439   5.206 130.948  0.00  0.00    +0.000 C 
ATOM     47  C   UNL     1      -4.902   4.876 130.849  0.00  0.00    +0.000 C 
BRANCH  47  48
ATOM     48  O   UNL     1      -4.958   3.441 130.875  0.00  0.00    +0.000 OA
ATOM     49  H   UNL     1      -4.853   3.150 131.799  0.00  0.00    +0.000 HD
ENDBRANCH  47  48
BRANCH  46  50
ATOM     50  O   UNL     1      -3.304   6.625 130.770  0.00  0.00    +0.000 OA
ATOM     51  H   UNL     1      -3.460   7.099 131.611  0.00  0.00    +0.000 HD
ENDBRANCH  46  50
BRANCH  45  52
ATOM     52  O   UNL     1      -2.959   3.190 132.379  0.00  0.00    +0.000 OA
ATOM     53  H   UNL     1      -2.176   2.833 131.908  0.00  0.00    +0.000 HD
ENDBRANCH  45  52
BRANCH  44  54
ATOM     54  C   UNL     1      -3.410   6.691 133.755  0.00  0.00    +0.000 C 
BRANCH  54  55
ATOM     55  N   UNL     1      -2.028   7.150 133.575  0.00  0.00    +0.000 NA
ATOM     56  H   UNL     1      -1.954   7.930 132.905  0.00  0.00    +0.000 HD
ATOM     57  H   UNL     1      -1.488   6.432 133.088  0.00  0.00    +0.000 HD
ENDBRANCH  54  55
ENDBRANCH  44  54
ENDBRANCH  41  42
ENDBRANCH   4  41
TORSDOF 22
ENDMDL
MODEL 2
REMARK VINA RESULT:      -6.1      4.285      7.193
REMARK  Name = Amikacin
REMARK  22 active torsions:
REMARK  status: ('A' for Active; 'I' for Inactive)
REMARK    1  A    between atoms: N_1  and  C_2
REMARK    2  A    between atoms: C_2  and  C_3
REMARK    3  A    between atoms: C_3  and  C_4
REMARK    4  A    between atoms: C_4  and  O_5
REMARK    5  A    between atoms: C_4  and  C_6
REMARK    6  A    between atoms: N_8  and  C_9
REMARK    7  A    between atoms: C_11  and  N_12
REMARK    8  A    between atoms: C_13  and  O_14
REMARK    9  A    between atoms: O_14  and  C_15
REMARK   10  A    between atoms: C_17  and  C_18
REMARK   11  A    between atoms: C_18  and  N_19
REMARK   12  A    between atoms: C_20  and  O_21
REMARK   13  A    between atoms: C_22  and  O_23
REMARK   14  A    between atoms: C_24  and  O_25
REMARK   15  A    between atoms: C_26  and  O_27
REMARK   16  A    between atoms: C_28  and  O_29
REMARK   17  A    between atoms: O_29  and  C_30
REMARK   18  A    between atoms: C_32  and  C_33
REMARK   19  A    between atoms: C_33  and  O_34
REMARK   20  A    between atoms: C_35  and  O_36
REMARK   21  A    between atoms: C_37  and  N_38
REMARK   22  A    between atoms: C_39  and  O_40
REMARK                            x       y       z     vdW  Elec       q    Type
REMARK                         _______ _______ _______ _____ _____    ______ ____
ROOT
ATOM      1  C   UNL     1      -6.340   3.659 125.840  0.00  0.00    +0.000 C 
ATOM      2  C   UNL     1      -5.309   2.612 126.261  0.00  0.00    +0.000 C 
ATOM      3  C   UNL     1      -5.915   1.160 126.304  0.00  0.00    +0.000 C 
ATOM      4  C   UNL     1      -6.990   1.185 127.394  0.00  0.00    +0.000 C 
ATOM      5  C   UNL     1      -8.133   2.188 126.925  0.00  0.00    +0.000 C 
ATOM      6  C   UNL     1      -7.571   3.611 126.862  0.00  0.00    +0.000 C 
ENDROOT
BRANCH   1   9
ATOM      7  C   UNL     1      -6.158   4.053 123.302  0.00  0.00    +0.000 C 
ATOM      8  O   UNL     1      -5.345   4.936 123.375  0.00  0.00    +0.000 OA
ATOM      9  N   UNL     1      -6.764   3.451 124.419  0.00  0.00    +0.000 N 
ATOM     10  H   UNL     1      -7.708   3.121 124.311  0.00  0.00    +0.000 HD
BRANCH   7  11
ATOM     11  C   UNL     1      -6.366   3.350 121.918  0.00  0.00    +0.000 C 
BRANCH  11  12
ATOM     12  O   UNL     1      -7.608   3.810 121.349  0.00  0.00    +0.000 OA
ATOM     13  H   UNL     1      -8.322   3.191 121.582  0.00  0.00    +0.000 HD
ENDBRANCH  11  12
BRANCH  11  14
ATOM     14  C   UNL     1      -5.317   3.550 120.823  0.00  0.00    +0.000 C 
BRANCH  14  15
ATOM     15  C   UNL     1      -5.619   4.809 120.030  0.00  0.00    +0.000 C 
BRANCH  15  16
ATOM     16  N   UNL     1      -4.765   5.906 120.435  0.00  0.00    +0.000 NA
ATOM     17  H   UNL     1      -4.624   5.868 121.444  0.00  0.00    +0.000 HD
ATOM     18  H   UNL     1      -5.219   6.800 120.239  0.00  0.00    +0.000 HD
ENDBRANCH  15  16
ENDBRANCH  14  15
ENDBRANCH  11  14
ENDBRANCH   7  11
ENDBRANCH   1   9
BRANCH   3  19
ATOM     19  N   UNL     1      -6.617   0.443 125.241  0.00  0.00    +0.000 NA
ATOM     20  H   UNL     1      -7.593   0.622 125.222  0.00  0.00    +0.000 HD
ATOM     21  H   UNL     1      -6.226   0.639 124.325  0.00  0.00    +0.000 HD
ENDBRANCH   3  19
BRANCH   5  22
ATOM     22  O   UNL     1      -8.774   1.947 125.674  0.00  0.00    +0.000 OA
ATOM     23  H   UNL     1      -8.217   1.265 125.263  0.00  0.00    +0.000 HD
ENDBRANCH   5  22
BRANCH   6  24
ATOM     24  O   UNL     1      -7.149   3.994 128.163  0.00  0.00    +0.000 OA
BRANCH  24  25
ATOM     25  C   UNL     1      -8.098   4.742 128.960  0.00  0.00    +0.000 C 
ATOM     26  O   UNL     1      -9.283   4.037 129.393  0.00  0.00    +0.000 OA
ATOM     27  C   UNL     1     -10.183   4.750 130.280  0.00  0.00    +0.000 C 
ATOM     28  C   UNL     1      -9.425   5.069 131.573  0.00  0.00    +0.000 C 
ATOM     29  C   UNL     1      -8.090   5.807 131.249  0.00  0.00    +0.000 C 
ATOM     30  C   UNL     1      -7.284   5.045 130.215  0.00  0.00    +0.000 C 
BRANCH  29  31
ATOM     31  N   UNL     1      -8.254   7.171 130.711  0.00  0.00    +0.000 NA
ATOM     32  H   UNL     1      -7.797   7.852 131.313  0.00  0.00    +0.000 HD
ATOM     33  H   UNL     1      -9.242   7.422 130.802  0.00  0.00    +0.000 HD
ENDBRANCH  29  31
BRANCH  30  34
ATOM     34  O   UNL     1      -6.920   3.822 130.811  0.00  0.00    +0.000 OA
ATOM     35  H   UNL     1      -7.484   3.761 131.611  0.00  0.00    +0.000 HD
ENDBRANCH  30  34
BRANCH  28  36
ATOM     36  O   UNL     1      -9.230   3.834 132.283  0.00  0.00    +0.000 OA
ATOM     37  H   UNL     1      -9.593   3.952 133.178  0.00  0.00    +0.000 HD
ENDBRANCH  28  36
BRANCH  27  38
ATOM     38  C   UNL     1     -10.816   6.008 129.658  0.00  0.00    +0.000 C 
BRANCH  38  39
ATOM     39  O   UNL     1     -12.130   5.753 129.178  0.00  0.00    +0.000 OA
ATOM     40  H   UNL     1     -12.557   5.152 129.813  0.00  0.00    +0.000 HD
ENDBRANCH  38  39
ENDBRANCH  27  38
ENDBRANCH  24  25
ENDBRANCH   6  24
BRANCH   4  41
ATOM     41  O   UNL     1      -6.388   1.561 128.658  0.00  0.00    +0.000 OA
BRANCH  41  42
ATOM     42  C   UNL     1      -6.576   0.596 129.702  0.00  0.00    +0.000 C 
ATOM     43  O   UNL     1      -5.995   0.991 130.941  0.00  0.00    +0.000 OA
ATOM     44  C   UNL     1      -6.081   0.022 132.008  0.00  0.00    +0.000 C 
ATOM     45  C   UNL     1      -7.560  -0.223 132.307  0.00  0.00    +0.000 C 
ATOM     46  C   UNL     1      -8.294  -0.651 130.997  0.00  0.00    +0.000 C 
ATOM     47  C   UNL     1      -8.087   0.423 129.967  0.00  0.00    +0.000 C 
BRANCH  47  48
ATOM     48  O   UNL     1      -8.666   1.604 130.543  0.00  0.00    +0.000 OA
ATOM     49  H   UNL     1      -8.957   2.185 129.817  0.00  0.00    +0.000 HD
ENDBRANCH  47  48
BRANCH  46  50
ATOM     50  O   UNL     1      -7.875  -1.895 130.415  0.00  0.00    +0.000 OA
ATOM     51  H   UNL     1      -6.952  -1.838 130.095  0.00  0.00    +0.000 HD
ENDBRANCH  46  50
BRANCH  45  52
ATOM     52  O   UNL     1      -8.083   0.978 132.907  0.00  0.00    +0.000 OA
ATOM     53  H   UNL     1      -7.444   1.698 132.720  0.00  0.00    +0.000 HD
ENDBRANCH  45  52
BRANCH  44  54
ATOM     54  C   UNL     1      -5.270  -1.275 131.739  0.00  0.00    +0.000 C 
BRANCH  54  55
ATOM     55  N   UNL     1      -5.622  -2.458 132.534  0.00  0.00    +0.000 NA
ATOM     56  H   UNL     1      -6.317  -3.057 132.066  0.00  0.00    +0.000 HD
ATOM     57  H   UNL     1      -6.146  -2.171 133.363  0.00  0.00    +0.000 HD
ENDBRANCH  54  55
ENDBRANCH  44  54
ENDBRANCH  41  42
ENDBRANCH   4  41
TORSDOF 22
ENDMDL
MODEL 3
REMARK VINA RESULT:      -5.9      3.743      6.459
REMARK  Name = Amikacin
REMARK  22 active torsions:
REMARK  status: ('A' for Active; 'I' for Inactive)
REMARK    1  A    between atoms: N_1  and  C_2
REMARK    2  A    between atoms: C_2  and  C_3
REMARK    3  A    between atoms: C_3  and  C_4
REMARK    4  A    between atoms: C_4  and  O_5
REMARK    5  A    between atoms: C_4  and  C_6
REMARK    6  A    between atoms: N_8  and  C_9
REMARK    7  A    between atoms: C_11  and  N_12
REMARK    8  A    between atoms: C_13  and  O_14
REMARK    9  A    between atoms: O_14  and  C_15
REMARK   10  A    between atoms: C_17  and  C_18
REMARK   11  A    between atoms: C_18  and  N_19
REMARK   12  A    between atoms: C_20  and  O_21
REMARK   13  A    between atoms: C_22  and  O_23
REMARK   14  A    between atoms: C_24  and  O_25
REMARK   15  A    between atoms: C_26  and  O_27
REMARK   16  A    between atoms: C_28  and  O_29
REMARK   17  A    between atoms: O_29  and  C_30
REMARK   18  A    between atoms: C_32  and  C_33
REMARK   19  A    between atoms: C_33  and  O_34
REMARK   20  A    between atoms: C_35  and  O_36
REMARK   21  A    between atoms: C_37  and  N_38
REMARK   22  A    between atoms: C_39  and  O_40
REMARK                            x       y       z     vdW  Elec       q    Type
REMARK                         _______ _______ _______ _____ _____    ______ ____
ROOT
ATOM      1  C   UNL     1      -8.125   2.214 126.459  0.00  0.00    +0.000 C 
ATOM      2  C   UNL     1      -7.024   3.072 125.838  0.00  0.00    +0.000 C 
ATOM      3  C   UNL     1      -5.594   2.690 126.375  0.00  0.00    +0.000 C 
ATOM      4  C   UNL     1      -5.610   3.005 127.874  0.00  0.00    +0.000 C 
ATOM      5  C   UNL     1      -6.674   2.043 128.562  0.00  0.00    +0.000 C 
ATOM      6  C   UNL     1      -8.077   2.383 128.050  0.00  0.00    +0.000 C 
ENDROOT
BRANCH   1   9
ATOM      7  C   UNL     1      -9.046   0.005 125.509  0.00  0.00    +0.000 C 
ATOM      8  O   UNL     1     -10.201   0.342 125.518  0.00  0.00    +0.000 OA
ATOM      9  N   UNL     1      -7.998   0.786 126.028  0.00  0.00    +0.000 N 
ATOM     10  H   UNL     1      -7.213   0.300 126.427  0.00  0.00    +0.000 HD
BRANCH   7  11
ATOM     11  C   UNL     1      -8.644  -1.240 124.649  0.00  0.00    +0.000 C 
BRANCH  11  12
ATOM     12  O   UNL     1      -9.576  -1.365 123.556  0.00  0.00    +0.000 OA
ATOM     13  H   UNL     1      -9.100  -1.280 122.711  0.00  0.00    +0.000 HD
ENDBRANCH  11  12
BRANCH  11  14
ATOM     14  C   UNL     1      -7.256  -1.279 124.009  0.00  0.00    +0.000 C 
BRANCH  14  15
ATOM     15  C   UNL     1      -6.328  -2.163 124.821  0.00  0.00    +0.000 C 
BRANCH  15  16
ATOM     16  N   UNL     1      -5.904  -1.506 126.040  0.00  0.00    +0.000 NA
ATOM     17  H   UNL     1      -4.887  -1.539 126.104  0.00  0.00    +0.000 HD
ATOM     18  H   UNL     1      -6.262  -2.006 126.855  0.00  0.00    +0.000 HD
ENDBRANCH  15  16
ENDBRANCH  14  15
ENDBRANCH  11  14
ENDBRANCH   7  11
ENDBRANCH   1   9
BRANCH   3  19
ATOM     19  N   UNL     1      -4.953   1.376 126.377  0.00  0.00    +0.000 NA
ATOM     20  H   UNL     1      -3.980   1.411 126.184  0.00  0.00    +0.000 HD
ATOM     21  H   UNL     1      -5.101   0.879 127.250  0.00  0.00    +0.000 HD
ENDBRANCH   3  19
BRANCH   5  22
ATOM     22  O   UNL     1      -6.514   0.634 128.405  0.00  0.00    +0.000 OA
ATOM     23  H   UNL     1      -5.929   0.391 129.141  0.00  0.00    +0.000 HD
ENDBRANCH   5  22
BRANCH   6  24
ATOM     24  O   UNL     1      -8.385   3.720 128.415  0.00  0.00    +0.000 OA
BRANCH  24  25
ATOM     25  C   UNL     1      -8.913   3.925 129.748  0.00  0.00    +0.000 C 
ATOM     26  O   UNL     1      -7.951   4.157 130.801  0.00  0.00    +0.000 OA
ATOM     27  C   UNL     1      -8.480   4.468 132.115  0.00  0.00    +0.000 C 
ATOM     28  C   UNL     1      -9.271   5.777 132.014  0.00  0.00    +0.000 C 
ATOM     29  C   UNL     1     -10.334   5.680 130.877  0.00  0.00    +0.000 C 
ATOM     30  C   UNL     1      -9.700   5.221 129.578  0.00  0.00    +0.000 C 
BRANCH  29  31
ATOM     31  N   UNL     1     -11.438   4.738 131.144  0.00  0.00    +0.000 NA
ATOM     32  H   UNL     1     -11.230   4.164 131.959  0.00  0.00    +0.000 HD
ATOM     33  H   UNL     1     -11.450   4.052 130.386  0.00  0.00    +0.000 HD
ENDBRANCH  29  31
BRANCH  30  34
ATOM     34  O   UNL     1      -8.803   6.234 129.189  0.00  0.00    +0.000 OA
ATOM     35  H   UNL     1      -9.317   7.065 129.275  0.00  0.00    +0.000 HD
ENDBRANCH  30  34
BRANCH  28  36
ATOM     36  O   UNL     1      -8.328   6.845 131.816  0.00  0.00    +0.000 OA
ATOM     37  H   UNL     1      -7.441   6.446 131.776  0.00  0.00    +0.000 HD
ENDBRANCH  28  36
BRANCH  27  38
ATOM     38  C   UNL     1      -9.315   3.337 132.743  0.00  0.00    +0.000 C 
BRANCH  38  39
ATOM     39  O   UNL     1     -10.045   3.790 133.876  0.00  0.00    +0.000 OA
ATOM     40  H   UNL     1     -10.190   4.745 133.763  0.00  0.00    +0.000 HD
ENDBRANCH  38  39
ENDBRANCH  27  38
ENDBRANCH  24  25
ENDBRANCH   6  24
BRANCH   4  41
ATOM     41  O   UNL     1      -5.906   4.410 128.069  0.00  0.00    +0.000 OA
BRANCH  41  42
ATOM     42  C   UNL     1      -4.819   5.162 128.626  0.00  0.00    +0.000 C 
ATOM     43  O   UNL     1      -4.542   6.361 127.908  0.00  0.00    +0.000 OA
ATOM     44  C   UNL     1      -3.404   7.119 128.373  0.00  0.00    +0.000 C 
ATOM     45  C   UNL     1      -3.682   7.555 129.812  0.00  0.00    +0.000 C 
ATOM     46  C   UNL     1      -4.013   6.303 130.683  0.00  0.00    +0.000 C 
ATOM     47  C   UNL     1      -5.182   5.591 130.064  0.00  0.00    +0.000 C 
BRANCH  47  48
ATOM     48  O   UNL     1      -6.250   6.551 130.079  0.00  0.00    +0.000 OA
ATOM     49  H   UNL     1      -7.077   6.088 129.853  0.00  0.00    +0.000 HD
ENDBRANCH  47  48
BRANCH  46  50
ATOM     50  O   UNL     1      -2.956   5.343 130.838  0.00  0.00    +0.000 OA
ATOM     51  H   UNL     1      -3.296   4.505 131.211  0.00  0.00    +0.000 HD
ENDBRANCH  46  50
BRANCH  45  52
ATOM     52  O   UNL     1      -4.737   8.535 129.769  0.00  0.00    +0.000 OA
ATOM     53  H   UNL     1      -4.333   9.386 129.497  0.00  0.00    +0.000 HD
ENDBRANCH  45  52
BRANCH  44  54
ATOM     54  C   UNL     1      -2.048   6.384 128.190  0.00  0.00    +0.000 C 
BRANCH  54  55
ATOM     55  N   UNL     1      -2.101   4.996 127.715  0.00  0.00    +0.000 NA
ATOM     56  H   UNL     1      -3.026   4.740 127.340  0.00  0.00    +0.000 HD
ATOM     57  H   UNL     1      -2.036   4.358 128.511  0.00  0.00    +0.000 HD
ENDBRANCH  54  55
ENDBRANCH  44  54
ENDBRANCH  41  42
ENDBRANCH   4  41
TORSDOF 22
ENDMDL
MODEL 4
REMARK VINA RESULT:      -5.9      3.954      9.409
REMARK  Name = Amikacin
REMARK  22 active torsions:
REMARK  status: ('A' for Active; 'I' for Inactive)
REMARK    1  A    between atoms: N_1  and  C_2
REMARK    2  A    between atoms: C_2  and  C_3
REMARK    3  A    between atoms: C_3  and  C_4
REMARK    4  A    between atoms: C_4  and  O_5
REMARK    5  A    between atoms: C_4  and  C_6
REMARK    6  A    between atoms: N_8  and  C_9
REMARK    7  A    between atoms: C_11  and  N_12
REMARK    8  A    between atoms: C_13  and  O_14
REMARK    9  A    between atoms: O_14  and  C_15
REMARK   10  A    between atoms: C_17  and  C_18
REMARK   11  A    between atoms: C_18  and  N_19
REMARK   12  A    between atoms: C_20  and  O_21
REMARK   13  A    between atoms: C_22  and  O_23
REMARK   14  A    between atoms: C_24  and  O_25
REMARK   15  A    between atoms: C_26  and  O_27
REMARK   16  A    between atoms: C_28  and  O_29
REMARK   17  A    between atoms: O_29  and  C_30
REMARK   18  A    between atoms: C_32  and  C_33
REMARK   19  A    between atoms: C_33  and  O_34
REMARK   20  A    between atoms: C_35  and  O_36
REMARK   21  A    between atoms: C_37  and  N_38
REMARK   22  A    between atoms: C_39  and  O_40
REMARK                            x       y       z     vdW  Elec       q    Type
REMARK                         _______ _______ _______ _____ _____    ______ ____
ROOT
ATOM      1  C   UNL     1      -6.905  -1.389 130.539  0.00  0.00    +0.000 C 
ATOM      2  C   UNL     1      -7.549  -2.060 129.327  0.00  0.00    +0.000 C 
ATOM      3  C   UNL     1      -6.648  -1.958 128.040  0.00  0.00    +0.000 C 
ATOM      4  C   UNL     1      -6.545  -0.465 127.716  0.00  0.00    +0.000 C 
ATOM      5  C   UNL     1      -5.779   0.241 128.917  0.00  0.00    +0.000 C 
ATOM      6  C   UNL     1      -6.625   0.148 130.190  0.00  0.00    +0.000 C 
ENDROOT
BRANCH   1   9
ATOM      7  C   UNL     1      -5.621  -3.123 131.942  0.00  0.00    +0.000 C 
ATOM      8  O   UNL     1      -6.537  -3.389 132.675  0.00  0.00    +0.000 OA
ATOM      9  N   UNL     1      -5.667  -2.117 130.962  0.00  0.00    +0.000 N 
ATOM     10  H   UNL     1      -4.810  -1.634 130.752  0.00  0.00    +0.000 HD
BRANCH   7  11
ATOM     11  C   UNL     1      -4.406  -4.110 131.889  0.00  0.00    +0.000 C 
BRANCH  11  12
ATOM     12  O   UNL     1      -3.187  -3.340 131.879  0.00  0.00    +0.000 OA
ATOM     13  H   UNL     1      -2.427  -3.929 132.032  0.00  0.00    +0.000 HD
ENDBRANCH  11  12
BRANCH  11  14
ATOM     14  C   UNL     1      -4.233  -5.131 133.014  0.00  0.00    +0.000 C 
BRANCH  14  15
ATOM     15  C   UNL     1      -3.205  -4.640 134.017  0.00  0.00    +0.000 C 
BRANCH  15  16
ATOM     16  N   UNL     1      -1.893  -5.187 133.740  0.00  0.00    +0.000 NA
ATOM     17  H   UNL     1      -1.982  -5.952 133.072  0.00  0.00    +0.000 HD
ATOM     18  H   UNL     1      -1.489  -5.587 134.588  0.00  0.00    +0.000 HD
ENDBRANCH  15  16
ENDBRANCH  14  15
ENDBRANCH  11  14
ENDBRANCH   7  11
ENDBRANCH   1   9
BRANCH   3  19
ATOM     19  N   UNL     1      -5.255  -2.371 127.878  0.00  0.00    +0.000 NA
ATOM     20  H   UNL     1      -4.781  -1.888 127.152  0.00  0.00    +0.000 HD
ATOM     21  H   UNL     1      -4.726  -2.278 128.739  0.00  0.00    +0.000 HD
ENDBRANCH   3  19
BRANCH   5  22
ATOM     22  O   UNL     1      -4.476  -0.230 129.259  0.00  0.00    +0.000 OA
ATOM     23  H   UNL     1      -3.927   0.066 128.515  0.00  0.00    +0.000 HD
ENDBRANCH   5  22
BRANCH   6  24
ATOM     24  O   UNL     1      -7.848   0.838 129.977  0.00  0.00    +0.000 OA
BRANCH  24  25
ATOM     25  C   UNL     1      -7.900   2.219 130.408  0.00  0.00    +0.000 C 
ATOM     26  O   UNL     1      -7.012   3.143 129.740  0.00  0.00    +0.000 OA
ATOM     27  C   UNL     1      -7.137   4.545 130.094  0.00  0.00    +0.000 C 
ATOM     28  C   UNL     1      -8.546   5.011 129.711  0.00  0.00    +0.000 C 
ATOM     29  C   UNL     1      -9.617   4.068 130.340  0.00  0.00    +0.000 C 
ATOM     30  C   UNL     1      -9.321   2.617 130.019  0.00  0.00    +0.000 C 
BRANCH  29  31
ATOM     31  N   UNL     1      -9.718   4.146 131.810  0.00  0.00    +0.000 NA
ATOM     32  H   UNL     1      -8.963   4.712 132.192  0.00  0.00    +0.000 HD
ATOM     33  H   UNL     1      -9.510   3.217 132.184  0.00  0.00    +0.000 HD
ENDBRANCH  29  31
BRANCH  30  34
ATOM     34  O   UNL     1      -9.452   2.480 128.624  0.00  0.00    +0.000 OA
ATOM     35  H   UNL     1      -9.406   1.513 128.466  0.00  0.00    +0.000 HD
ENDBRANCH  30  34
BRANCH  28  36
ATOM     36  O   UNL     1      -8.614   5.063 128.275  0.00  0.00    +0.000 OA
ATOM     37  H   UNL     1      -8.949   5.944 128.031  0.00  0.00    +0.000 HD
ENDBRANCH  28  36
BRANCH  27  38
ATOM     38  C   UNL     1      -6.809   4.854 131.566  0.00  0.00    +0.000 C 
BRANCH  38  39
ATOM     39  O   UNL     1      -7.259   6.149 131.944  0.00  0.00    +0.000 OA
ATOM     40  H   UNL     1      -7.170   6.215 132.910  0.00  0.00    +0.000 HD
ENDBRANCH  38  39
ENDBRANCH  27  38
ENDBRANCH  24  25
ENDBRANCH   6  24
BRANCH   4  41
ATOM     41  O   UNL     1      -7.873   0.073 127.494  0.00  0.00    +0.000 OA
BRANCH  41  42
ATOM     42  C   UNL     1      -8.063   0.637 126.190  0.00  0.00    +0.000 C 
ATOM     43  O   UNL     1      -9.369   1.171 125.994  0.00  0.00    +0.000 OA
ATOM     44  C   UNL     1      -9.645   1.678 124.672  0.00  0.00    +0.000 C 
ATOM     45  C   UNL     1      -8.682   2.835 124.398  0.00  0.00    +0.000 C 
ATOM     46  C   UNL     1      -7.213   2.350 124.601  0.00  0.00    +0.000 C 
ATOM     47  C   UNL     1      -7.080   1.812 125.997  0.00  0.00    +0.000 C 
BRANCH  47  48
ATOM     48  O   UNL     1      -7.402   2.921 126.852  0.00  0.00    +0.000 OA
ATOM     49  H   UNL     1      -6.665   3.044 127.478  0.00  0.00    +0.000 HD
ENDBRANCH  47  48
BRANCH  46  50
ATOM     50  O   UNL     1      -6.753   1.331 123.699  0.00  0.00    +0.000 OA
ATOM     51  H   UNL     1      -7.493   0.764 123.406  0.00  0.00    +0.000 HD
ENDBRANCH  46  50
BRANCH  45  52
ATOM     52  O   UNL     1      -9.065   3.926 125.257  0.00  0.00    +0.000 OA
ATOM     53  H   UNL     1      -8.329   4.574 125.250  0.00  0.00    +0.000 HD
ENDBRANCH  45  52
BRANCH  44  54
ATOM     54  C   UNL     1      -9.642   0.583 123.570  0.00  0.00    +0.000 C 
BRANCH  54  55
ATOM     55  N   UNL     1     -10.787   0.556 122.653  0.00  0.00    +0.000 NA
ATOM     56  H   UNL     1     -11.682   0.735 123.131  0.00  0.00    +0.000 HD
ATOM     57  H   UNL     1     -10.938  -0.398 122.320  0.00  0.00    +0.000 HD
ENDBRANCH  54  55
ENDBRANCH  44  54
ENDBRANCH  41  42
ENDBRANCH   4  41
TORSDOF 22
ENDMDL
MODEL 5
REMARK VINA RESULT:      -5.8      4.945      9.826
REMARK  Name = Amikacin
REMARK  22 active torsions:
REMARK  status: ('A' for Active; 'I' for Inactive)
REMARK    1  A    between atoms: N_1  and  C_2
REMARK    2  A    between atoms: C_2  and  C_3
REMARK    3  A    between atoms: C_3  and  C_4
REMARK    4  A    between atoms: C_4  and  O_5
REMARK    5  A    between atoms: C_4  and  C_6
REMARK    6  A    between atoms: N_8  and  C_9
REMARK    7  A    between atoms: C_11  and  N_12
REMARK    8  A    between atoms: C_13  and  O_14
REMARK    9  A    between atoms: O_14  and  C_15
REMARK   10  A    between atoms: C_17  and  C_18
REMARK   11  A    between atoms: C_18  and  N_19
REMARK   12  A    between atoms: C_20  and  O_21
REMARK   13  A    between atoms: C_22  and  O_23
REMARK   14  A    between atoms: C_24  and  O_25
REMARK   15  A    between atoms: C_26  and  O_27
REMARK   16  A    between atoms: C_28  and  O_29
REMARK   17  A    between atoms: O_29  and  C_30
REMARK   18  A    between atoms: C_32  and  C_33
REMARK   19  A    between atoms: C_33  and  O_34
REMARK   20  A    between atoms: C_35  and  O_36
REMARK   21  A    between atoms: C_37  and  N_38
REMARK   22  A    between atoms: C_39  and  O_40
REMARK                            x       y       z     vdW  Elec       q    Type
REMARK                         _______ _______ _______ _____ _____    ______ ____
ROOT
ATOM      1  C   UNL     1      -7.033  -0.675 130.662  0.00  0.00    +0.000 C 
ATOM      2  C   UNL     1      -7.869  -1.800 130.052  0.00  0.00    +0.000 C 
ATOM      3  C   UNL     1      -6.985  -2.848 129.278  0.00  0.00    +0.000 C 
ATOM      4  C   UNL     1      -6.351  -2.084 128.111  0.00  0.00    +0.000 C 
ATOM      5  C   UNL     1      -5.388  -0.975 128.723  0.00  0.00    +0.000 C 
ATOM      6  C   UNL     1      -6.219   0.055 129.494  0.00  0.00    +0.000 C 
ENDROOT
BRANCH   1   9
ATOM      7  C   UNL     1      -6.573  -1.587 133.025  0.00  0.00    +0.000 C 
ATOM      8  O   UNL     1      -7.677  -1.379 133.452  0.00  0.00    +0.000 OA
ATOM      9  N   UNL     1      -6.141  -1.197 131.745  0.00  0.00    +0.000 N 
ATOM     10  H   UNL     1      -5.171  -0.953 131.638  0.00  0.00    +0.000 HD
BRANCH   7  11
ATOM     11  C   UNL     1      -5.644  -2.566 133.820  0.00  0.00    +0.000 C 
BRANCH  11  12
ATOM     12  O   UNL     1      -5.683  -3.858 133.182  0.00  0.00    +0.000 OA
ATOM     13  H   UNL     1      -5.657  -4.557 133.860  0.00  0.00    +0.000 HD
ENDBRANCH  11  12
BRANCH  11  14
ATOM     14  C   UNL     1      -4.159  -2.226 133.959  0.00  0.00    +0.000 C 
BRANCH  14  15
ATOM     15  C   UNL     1      -3.317  -3.223 133.184  0.00  0.00    +0.000 C 
BRANCH  15  16
ATOM     16  N   UNL     1      -3.343  -2.945 131.763  0.00  0.00    +0.000 NA
ATOM     17  H   UNL     1      -2.940  -2.024 131.593  0.00  0.00    +0.000 HD
ATOM     18  H   UNL     1      -4.307  -2.906 131.427  0.00  0.00    +0.000 HD
ENDBRANCH  15  16
ENDBRANCH  14  15
ENDBRANCH  11  14
ENDBRANCH   7  11
ENDBRANCH   1   9
BRANCH   3  19
ATOM     19  N   UNL     1      -5.832  -3.598 129.774  0.00  0.00    +0.000 NA
ATOM     20  H   UNL     1      -5.095  -3.671 129.113  0.00  0.00    +0.000 HD
ATOM     21  H   UNL     1      -5.466  -3.210 130.638  0.00  0.00    +0.000 HD
ENDBRANCH   3  19
BRANCH   5  22
ATOM     22  O   UNL     1      -4.344  -1.395 129.599  0.00  0.00    +0.000 OA
ATOM     23  H   UNL     1      -4.654  -2.256 129.923  0.00  0.00    +0.000 HD
ENDBRANCH   5  22
BRANCH   6  24
ATOM     24  O   UNL     1      -7.112   0.691 128.591  0.00  0.00    +0.000 OA
BRANCH  24  25
ATOM     25  C   UNL     1      -6.697   1.973 128.061  0.00  0.00    +0.000 C 
ATOM     26  O   UNL     1      -5.528   1.979 127.211  0.00  0.00    +0.000 OA
ATOM     27  C   UNL     1      -5.174   3.242 126.592  0.00  0.00    +0.000 C 
ATOM     28  C   UNL     1      -6.326   3.666 125.675  0.00  0.00    +0.000 C 
ATOM     29  C   UNL     1      -7.672   3.666 126.463  0.00  0.00    +0.000 C 
ATOM     30  C   UNL     1      -7.884   2.347 127.179  0.00  0.00    +0.000 C 
BRANCH  29  31
ATOM     31  N   UNL     1      -7.779   4.711 127.498  0.00  0.00    +0.000 NA
ATOM     32  H   UNL     1      -8.754   4.949 127.669  0.00  0.00    +0.000 HD
ATOM     33  H   UNL     1      -7.405   5.578 127.103  0.00  0.00    +0.000 HD
ENDBRANCH  29  31
BRANCH  30  34
ATOM     34  O   UNL     1      -8.018   1.365 126.178  0.00  0.00    +0.000 OA
ATOM     35  H   UNL     1      -7.212   1.461 125.629  0.00  0.00    +0.000 HD
ENDBRANCH  30  34
BRANCH  28  36
ATOM     36  O   UNL     1      -6.334   2.777 124.544  0.00  0.00    +0.000 OA
ATOM     37  H   UNL     1      -6.624   3.293 123.771  0.00  0.00    +0.000 HD
ENDBRANCH  28  36
BRANCH  27  38
ATOM     38  C   UNL     1      -4.798   4.351 127.593  0.00  0.00    +0.000 C 
BRANCH  38  39
ATOM     39  O   UNL     1      -4.857   5.640 126.997  0.00  0.00    +0.000 OA
ATOM     40  H   UNL     1      -5.222   6.249 127.662  0.00  0.00    +0.000 HD
ENDBRANCH  38  39
ENDBRANCH  27  38
ENDBRANCH  24  25
ENDBRANCH   6  24
BRANCH   4  41
ATOM     41  O   UNL     1      -7.396  -1.529 127.273  0.00  0.00    +0.000 OA
BRANCH  41  42
ATOM     42  C   UNL     1      -7.293  -1.899 125.892  0.00  0.00    +0.000 C 
ATOM     43  O   UNL     1      -8.250  -1.246 125.063  0.00  0.00    +0.000 OA
ATOM     44  C   UNL     1      -8.247  -1.641 123.675  0.00  0.00    +0.000 C 
ATOM     45  C   UNL     1      -6.882  -1.288 123.084  0.00  0.00    +0.000 C 
ATOM     46  C   UNL     1      -5.756  -1.952 123.938  0.00  0.00    +0.000 C 
ATOM     47  C   UNL     1      -5.903  -1.488 125.359  0.00  0.00    +0.000 C 
BRANCH  47  48
ATOM     48  O   UNL     1      -5.758  -0.060 125.298  0.00  0.00    +0.000 OA
ATOM     49  H   UNL     1      -5.106   0.149 124.604  0.00  0.00    +0.000 HD
ENDBRANCH  47  48
BRANCH  46  50
ATOM     50  O   UNL     1      -5.737  -3.388 123.952  0.00  0.00    +0.000 OA
ATOM     51  H   UNL     1      -5.771  -3.747 123.043  0.00  0.00    +0.000 HD
ENDBRANCH  46  50
BRANCH  45  52
ATOM     52  O   UNL     1      -6.799   0.149 123.020  0.00  0.00    +0.000 OA
ATOM     53  H   UNL     1      -7.190   0.424 122.164  0.00  0.00    +0.000 HD
ENDBRANCH  45  52
BRANCH  44  54
ATOM     54  C   UNL     1      -8.669  -3.118 123.447  0.00  0.00    +0.000 C 
BRANCH  54  55
ATOM     55  N   UNL     1     -10.101  -3.423 123.530  0.00  0.00    +0.000 NA
ATOM     56  H   UNL     1     -10.694  -2.615 123.290  0.00  0.00    +0.000 HD
ATOM     57  H   UNL     1     -10.366  -3.569 124.506  0.00  0.00    +0.000 HD
ENDBRANCH  54  55
ENDBRANCH  44  54
ENDBRANCH  41  42
ENDBRANCH   4  41
TORSDOF 22
ENDMDL
MODEL 6
REMARK VINA RESULT:      -5.8      2.571      8.168
REMARK  Name = Amikacin
REMARK  22 active torsions:
REMARK  status: ('A' for Active; 'I' for Inactive)
REMARK    1  A    between atoms: N_1  and  C_2
REMARK    2  A    between atoms: C_2  and  C_3
REMARK    3  A    between atoms: C_3  and  C_4
REMARK    4  A    between atoms: C_4  and  O_5
REMARK    5  A    between atoms: C_4  and  C_6
REMARK    6  A    between atoms: N_8  and  C_9
REMARK    7  A    between atoms: C_11  and  N_12
REMARK    8  A    between atoms: C_13  and  O_14
REMARK    9  A    between atoms: O_14  and  C_15
REMARK   10  A    between atoms: C_17  and  C_18
REMARK   11  A    between atoms: C_18  and  N_19
REMARK   12  A    between atoms: C_20  and  O_21
REMARK   13  A    between atoms: C_22  and  O_23
REMARK   14  A    between atoms: C_24  and  O_25
REMARK   15  A    between atoms: C_26  and  O_27
REMARK   16  A    between atoms: C_28  and  O_29
REMARK   17  A    between atoms: O_29  and  C_30
REMARK   18  A    between atoms: C_32  and  C_33
REMARK   19  A    between atoms: C_33  and  O_34
REMARK   20  A    between atoms: C_35  and  O_36
REMARK   21  A    between atoms: C_37  and  N_38
REMARK   22  A    between atoms: C_39  and  O_40
REMARK                            x       y       z     vdW  Elec       q    Type
REMARK                         _______ _______ _______ _____ _____    ______ ____
ROOT
ATOM      1  C   UNL     1      -4.356   1.130 131.199  0.00  0.00    +0.000 C 
ATOM      2  C   UNL     1      -5.616   1.005 132.055  0.00  0.00    +0.000 C 
ATOM      3  C   UNL     1      -6.924   0.911 131.184  0.00  0.00    +0.000 C 
ATOM      4  C   UNL     1      -7.026   2.243 130.435  0.00  0.00    +0.000 C 
ATOM      5  C   UNL     1      -5.780   2.347 129.453  0.00  0.00    +0.000 C 
ATOM      6  C   UNL     1      -4.488   2.428 130.272  0.00  0.00    +0.000 C 
ENDROOT
BRANCH   1   9
ATOM      7  C   UNL     1      -3.605  -1.318 130.933  0.00  0.00    +0.000 C 
ATOM      8  O   UNL     1      -3.133  -1.420 132.034  0.00  0.00    +0.000 OA
ATOM      9  N   UNL     1      -4.120  -0.120 130.409  0.00  0.00    +0.000 N 
ATOM     10  H   UNL     1      -4.035   0.026 129.417  0.00  0.00    +0.000 HD
BRANCH   7  11
ATOM     11  C   UNL     1      -3.906  -2.630 130.132  0.00  0.00    +0.000 C 
BRANCH  11  12
ATOM     12  O   UNL     1      -3.124  -3.703 130.693  0.00  0.00    +0.000 OA
ATOM     13  H   UNL     1      -2.206  -3.406 130.820  0.00  0.00    +0.000 HD
ENDBRANCH  11  12
BRANCH  11  14
ATOM     14  C   UNL     1      -5.342  -3.153 130.085  0.00  0.00    +0.000 C 
BRANCH  14  15
ATOM     15  C   UNL     1      -5.610  -4.060 131.273  0.00  0.00    +0.000 C 
BRANCH  15  16
ATOM     16  N   UNL     1      -5.601  -5.456 130.885  0.00  0.00    +0.000 NA
ATOM     17  H   UNL     1      -4.848  -5.936 131.376  0.00  0.00    +0.000 HD
ATOM     18  H   UNL     1      -5.401  -5.545 129.888  0.00  0.00    +0.000 HD
ENDBRANCH  15  16
ENDBRANCH  14  15
ENDBRANCH  11  14
ENDBRANCH   7  11
ENDBRANCH   1   9
BRANCH   3  19
ATOM     19  N   UNL     1      -7.225  -0.032 130.108  0.00  0.00    +0.000 NA
ATOM     20  H   UNL     1      -7.531  -0.918 130.434  0.00  0.00    +0.000 HD
ATOM     21  H   UNL     1      -7.911   0.337 129.456  0.00  0.00    +0.000 HD
ENDBRANCH   3  19
BRANCH   5  22
ATOM     22  O   UNL     1      -5.588   1.311 128.491  0.00  0.00    +0.000 OA
ATOM     23  H   UNL     1      -4.632   1.144 128.528  0.00  0.00    +0.000 HD
ENDBRANCH   5  22
BRANCH   6  24
ATOM     24  O   UNL     1      -4.525   3.603 131.069  0.00  0.00    +0.000 OA
BRANCH  24  25
ATOM     25  C   UNL     1      -3.842   4.767 130.543  0.00  0.00    +0.000 C 
ATOM     26  O   UNL     1      -4.391   5.358 129.344  0.00  0.00    +0.000 OA
ATOM     27  C   UNL     1      -3.774   6.585 128.877  0.00  0.00    +0.000 C 
ATOM     28  C   UNL     1      -3.957   7.654 129.959  0.00  0.00    +0.000 C 
ATOM     29  C   UNL     1      -3.435   7.130 131.332  0.00  0.00    +0.000 C 
ATOM     30  C   UNL     1      -4.042   5.781 131.665  0.00  0.00    +0.000 C 
BRANCH  29  31
ATOM     31  N   UNL     1      -1.973   6.946 131.405  0.00  0.00    +0.000 NA
ATOM     32  H   UNL     1      -1.743   6.125 131.961  0.00  0.00    +0.000 HD
ATOM     33  H   UNL     1      -1.593   7.710 131.970  0.00  0.00    +0.000 HD
ENDBRANCH  29  31
BRANCH  30  34
ATOM     34  O   UNL     1      -5.425   5.993 131.828  0.00  0.00    +0.000 OA
ATOM     35  H   UNL     1      -5.845   5.232 131.375  0.00  0.00    +0.000 HD
ENDBRANCH  30  34
BRANCH  28  36
ATOM     36  O   UNL     1      -5.349   8.017 129.985  0.00  0.00    +0.000 OA
ATOM     37  H   UNL     1      -5.859   7.202 130.139  0.00  0.00    +0.000 HD
ENDBRANCH  28  36
BRANCH  27  38
ATOM     38  C   UNL     1      -2.299   6.431 128.464  0.00  0.00    +0.000 C 
BRANCH  38  39
ATOM     39  O   UNL     1      -2.092   5.265 127.677  0.00  0.00    +0.000 OA
ATOM     40  H   UNL     1      -1.154   5.254 127.418  0.00  0.00    +0.000 HD
ENDBRANCH  38  39
ENDBRANCH  27  38
ENDBRANCH  24  25
ENDBRANCH   6  24
BRANCH   4  41
ATOM     41  O   UNL     1      -7.088   3.331 131.392  0.00  0.00    +0.000 OA
BRANCH  41  42
ATOM     42  C   UNL     1      -8.202   4.213 131.201  0.00  0.00    +0.000 C 
ATOM     43  O   UNL     1      -8.137   5.383 132.010  0.00  0.00    +0.000 OA
ATOM     44  C   UNL     1      -9.273   6.269 131.921  0.00  0.00    +0.000 C 
ATOM     45  C   UNL     1      -9.371   6.770 130.480  0.00  0.00    +0.000 C 
ATOM     46  C   UNL     1      -9.435   5.552 129.507  0.00  0.00    +0.000 C 
ATOM     47  C   UNL     1      -8.220   4.698 129.735  0.00  0.00    +0.000 C 
BRANCH  47  48
ATOM     48  O   UNL     1      -7.106   5.557 129.446  0.00  0.00    +0.000 OA
ATOM     49  H   UNL     1      -7.420   6.278 128.870  0.00  0.00    +0.000 HD
ENDBRANCH  47  48
BRANCH  46  50
ATOM     50  O   UNL     1     -10.588   4.704 129.630  0.00  0.00    +0.000 OA
ATOM     51  H   UNL     1     -10.646   4.320 130.527  0.00  0.00    +0.000 HD
ENDBRANCH  46  50
BRANCH  45  52
ATOM     52  O   UNL     1      -8.250   7.646 130.252  0.00  0.00    +0.000 OA
ATOM     53  H   UNL     1      -7.794   7.330 129.443  0.00  0.00    +0.000 HD
ENDBRANCH  45  52
BRANCH  44  54
ATOM     54  C   UNL     1     -10.590   5.649 132.463  0.00  0.00    +0.000 C 
BRANCH  54  55
ATOM     55  N   UNL     1     -11.848   6.219 131.966  0.00  0.00    +0.000 NA
ATOM     56  H   UNL     1     -11.700   6.934 131.239  0.00  0.00    +0.000 HD
ATOM     57  H   UNL     1     -12.283   6.783 132.700  0.00  0.00    +0.000 HD
ENDBRANCH  54  55
ENDBRANCH  44  54
ENDBRANCH  41  42
ENDBRANCH   4  41
TORSDOF 22
ENDMDL
MODEL 7
REMARK VINA RESULT:      -5.8      3.721      8.392
REMARK  Name = Amikacin
REMARK  22 active torsions:
REMARK  status: ('A' for Active; 'I' for Inactive)
REMARK    1  A    between atoms: N_1  and  C_2
REMARK    2  A    between atoms: C_2  and  C_3
REMARK    3  A    between atoms: C_3  and  C_4
REMARK    4  A    between atoms: C_4  and  O_5
REMARK    5  A    between atoms: C_4  and  C_6
REMARK    6  A    between atoms: N_8  and  C_9
REMARK    7  A    between atoms: C_11  and  N_12
REMARK    8  A    between atoms: C_13  and  O_14
REMARK    9  A    between atoms: O_14  and  C_15
REMARK   10  A    between atoms: C_17  and  C_18
REMARK   11  A    between atoms: C_18  and  N_19
REMARK   12  A    between atoms: C_20  and  O_21
REMARK   13  A    between atoms: C_22  and  O_23
REMARK   14  A    between atoms: C_24  and  O_25
REMARK   15  A    between atoms: C_26  and  O_27
REMARK   16  A    between atoms: C_28  and  O_29
REMARK   17  A    between atoms: O_29  and  C_30
REMARK   18  A    between atoms: C_32  and  C_33
REMARK   19  A    between atoms: C_33  and  O_34
REMARK   20  A    between atoms: C_35  and  O_36
REMARK   21  A    between atoms: C_37  and  N_38
REMARK   22  A    between atoms: C_39  and  O_40
REMARK                            x       y       z     vdW  Elec       q    Type
REMARK                         _______ _______ _______ _____ _____    ______ ____
ROOT
ATOM      1  C   UNL     1      -4.807   3.759 130.027  0.00  0.00    +0.000 C 
ATOM      2  C   UNL     1      -4.751   2.297 129.587  0.00  0.00    +0.000 C 
ATOM      3  C   UNL     1      -4.119   2.128 128.155  0.00  0.00    +0.000 C 
ATOM      4  C   UNL     1      -5.067   2.845 127.190  0.00  0.00    +0.000 C 
ATOM      5  C   UNL     1      -5.058   4.392 127.559  0.00  0.00    +0.000 C 
ATOM      6  C   UNL     1      -5.657   4.589 128.954  0.00  0.00    +0.000 C 
ENDROOT
BRANCH   1   9
ATOM      7  C   UNL     1      -3.105   5.379 131.079  0.00  0.00    +0.000 C 
ATOM      8  O   UNL     1      -3.922   6.079 131.618  0.00  0.00    +0.000 OA
ATOM      9  N   UNL     1      -3.430   4.313 130.222  0.00  0.00    +0.000 N 
ATOM     10  H   UNL     1      -2.791   4.111 129.472  0.00  0.00    +0.000 HD
BRANCH   7  11
ATOM     11  C   UNL     1      -1.616   5.481 131.551  0.00  0.00    +0.000 C 
BRANCH  11  12
ATOM     12  O   UNL     1      -0.947   6.480 130.755  0.00  0.00    +0.000 OA
ATOM     13  H   UNL     1      -0.059   6.647 131.119  0.00  0.00    +0.000 HD
ENDBRANCH  11  12
BRANCH  11  14
ATOM     14  C   UNL     1      -1.325   5.858 133.005  0.00  0.00    +0.000 C 
BRANCH  14  15
ATOM     15  C   UNL     1      -0.901   7.312 133.096  0.00  0.00    +0.000 C 
BRANCH  15  16
ATOM     16  N   UNL     1      -2.042   8.201 133.023  0.00  0.00    +0.000 NA
ATOM     17  H   UNL     1      -1.720   9.167 133.081  0.00  0.00    +0.000 HD
ATOM     18  H   UNL     1      -2.659   8.053 133.823  0.00  0.00    +0.000 HD
ENDBRANCH  15  16
ENDBRANCH  14  15
ENDBRANCH  11  14
ENDBRANCH   7  11
ENDBRANCH   1   9
BRANCH   3  19
ATOM     19  N   UNL     1      -2.824   2.610 127.677  0.00  0.00    +0.000 NA
ATOM     20  H   UNL     1      -2.872   3.064 126.796  0.00  0.00    +0.000 HD
ATOM     21  H   UNL     1      -2.376   3.229 128.346  0.00  0.00    +0.000 HD
ENDBRANCH   3  19
BRANCH   5  22
ATOM     22  O   UNL     1      -3.810   5.082 127.550  0.00  0.00    +0.000 OA
ATOM     23  H   UNL     1      -3.812   5.562 128.394  0.00  0.00    +0.000 HD
ENDBRANCH   5  22
BRANCH   6  24
ATOM     24  O   UNL     1      -7.006   4.143 128.940  0.00  0.00    +0.000 OA
BRANCH  24  25
ATOM     25  C   UNL     1      -7.898   4.742 129.910  0.00  0.00    +0.000 C 
ATOM     26  O   UNL     1      -7.574   6.078 130.356  0.00  0.00    +0.000 OA
ATOM     27  C   UNL     1      -8.524   6.721 131.244  0.00  0.00    +0.000 C 
ATOM     28  C   UNL     1      -9.853   6.871 130.497  0.00  0.00    +0.000 C 
ATOM     29  C   UNL     1     -10.308   5.494 129.922  0.00  0.00    +0.000 C 
ATOM     30  C   UNL     1      -9.198   4.846 129.118  0.00  0.00    +0.000 C 
BRANCH  29  31
ATOM     31  N   UNL     1     -10.703   4.502 130.940  0.00  0.00    +0.000 NA
ATOM     32  H   UNL     1     -10.573   4.879 131.877  0.00  0.00    +0.000 HD
ATOM     33  H   UNL     1     -10.022   3.740 130.910  0.00  0.00    +0.000 HD
ENDBRANCH  29  31
BRANCH  30  34
ATOM     34  O   UNL     1      -8.971   5.679 128.004  0.00  0.00    +0.000 OA
ATOM     35  H   UNL     1      -9.825   6.138 127.862  0.00  0.00    +0.000 HD
ENDBRANCH  30  34
BRANCH  28  36
ATOM     36  O   UNL     1      -9.673   7.875 129.482  0.00  0.00    +0.000 OA
ATOM     37  H   UNL     1     -10.557   8.116 129.152  0.00  0.00    +0.000 HD
ENDBRANCH  28  36
BRANCH  27  38
ATOM     38  C   UNL     1      -8.702   6.009 132.598  0.00  0.00    +0.000 C 
BRANCH  38  39
ATOM     39  O   UNL     1      -9.906   6.401 133.244  0.00  0.00    +0.000 OA
ATOM     40  H   UNL     1     -10.320   5.594 133.596  0.00  0.00    +0.000 HD
ENDBRANCH  38  39
ENDBRANCH  27  38
ENDBRANCH  24  25
ENDBRANCH   6  24
BRANCH   4  41
ATOM     41  O   UNL     1      -6.386   2.248 127.276  0.00  0.00    +0.000 OA
BRANCH  41  42
ATOM     42  C   UNL     1      -7.104   2.241 126.035  0.00  0.00    +0.000 C 
ATOM     43  O   UNL     1      -6.290   1.896 124.918  0.00  0.00    +0.000 OA
ATOM     44  C   UNL     1      -6.940   1.952 123.630  0.00  0.00    +0.000 C 
ATOM     45  C   UNL     1      -8.085   0.939 123.633  0.00  0.00    +0.000 C 
ATOM     46  C   UNL     1      -9.034   1.227 124.838  0.00  0.00    +0.000 C 
ATOM     47  C   UNL     1      -8.222   1.178 126.102  0.00  0.00    +0.000 C 
BRANCH  47  48
ATOM     48  O   UNL     1      -7.688  -0.155 126.146  0.00  0.00    +0.000 OA
ATOM     49  H   UNL     1      -6.843  -0.159 125.659  0.00  0.00    +0.000 HD
ENDBRANCH  47  48
BRANCH  46  50
ATOM     50  O   UNL     1      -9.722   2.487 124.815  0.00  0.00    +0.000 OA
ATOM     51  H   UNL     1     -10.670   2.371 125.024  0.00  0.00    +0.000 HD
ENDBRANCH  46  50
BRANCH  45  52
ATOM     52  O   UNL     1      -7.496  -0.376 123.650  0.00  0.00    +0.000 OA
ATOM     53  H   UNL     1      -6.529  -0.263 123.532  0.00  0.00    +0.000 HD
ENDBRANCH  45  52
BRANCH  44  54
ATOM     54  C   UNL     1      -7.368   3.385 123.210  0.00  0.00    +0.000 C 
BRANCH  54  55
ATOM     55  N   UNL     1      -8.427   3.495 122.200  0.00  0.00    +0.000 NA
ATOM     56  H   UNL     1      -8.314   4.321 121.595  0.00  0.00    +0.000 HD
ATOM     57  H   UNL     1      -9.315   3.714 122.655  0.00  0.00    +0.000 HD
ENDBRANCH  54  55
ENDBRANCH  44  54
ENDBRANCH  41  42
ENDBRANCH   4  41
TORSDOF 22
ENDMDL
MODEL 8
REMARK VINA RESULT:      -5.8      2.245      7.152
REMARK  Name = Amikacin
REMARK  22 active torsions:
REMARK  status: ('A' for Active; 'I' for Inactive)
REMARK    1  A    between atoms: N_1  and  C_2
REMARK    2  A    between atoms: C_2  and  C_3
REMARK    3  A    between atoms: C_3  and  C_4
REMARK    4  A    between atoms: C_4  and  O_5
REMARK    5  A    between atoms: C_4  and  C_6
REMARK    6  A    between atoms: N_8  and  C_9
REMARK    7  A    between atoms: C_11  and  N_12
REMARK    8  A    between atoms: C_13  and  O_14
REMARK    9  A    between atoms: O_14  and  C_15
REMARK   10  A    between atoms: C_17  and  C_18
REMARK   11  A    between atoms: C_18  and  N_19
REMARK   12  A    between atoms: C_20  and  O_21
REMARK   13  A    between atoms: C_22  and  O_23
REMARK   14  A    between atoms: C_24  and  O_25
REMARK   15  A    between atoms: C_26  and  O_27
REMARK   16  A    between atoms: C_28  and  O_29
REMARK   17  A    between atoms: O_29  and  C_30
REMARK   18  A    between atoms: C_32  and  C_33
REMARK   19  A    between atoms: C_33  and  O_34
REMARK   20  A    between atoms: C_35  and  O_36
REMARK   21  A    between atoms: C_37  and  N_38
REMARK   22  A    between atoms: C_39  and  O_40
REMARK                            x       y       z     vdW  Elec       q    Type
REMARK                         _______ _______ _______ _____ _____    ______ ____
ROOT
ATOM      1  C   UNL     1      -7.417   0.554 130.447  0.00  0.00    +0.000 C 
ATOM      2  C   UNL     1      -6.121   0.678 129.648  0.00  0.00    +0.000 C 
ATOM      3  C   UNL     1      -4.907   1.126 130.545  0.00  0.00    +0.000 C 
ATOM      4  C   UNL     1      -5.253   2.531 131.048  0.00  0.00    +0.000 C 
ATOM      5  C   UNL     1      -6.539   2.412 131.975  0.00  0.00    +0.000 C 
ATOM      6  C   UNL     1      -7.738   1.965 131.133  0.00  0.00    +0.000 C 
ENDROOT
BRANCH   1   9
ATOM      7  C   UNL     1      -7.500  -1.924 131.139  0.00  0.00    +0.000 C 
ATOM      8  O   UNL     1      -7.909  -2.331 130.084  0.00  0.00    +0.000 OA
ATOM      9  N   UNL     1      -7.330  -0.562 131.441  0.00  0.00    +0.000 N 
ATOM     10  H   UNL     1      -7.468  -0.278 132.397  0.00  0.00    +0.000 HD
BRANCH   7  11
ATOM     11  C   UNL     1      -6.878  -2.956 132.140  0.00  0.00    +0.000 C 
BRANCH  11  12
ATOM     12  O   UNL     1      -5.508  -2.585 132.391  0.00  0.00    +0.000 OA
ATOM     13  H   UNL     1      -4.912  -3.230 131.970  0.00  0.00    +0.000 HD
ENDBRANCH  11  12
BRANCH  11  14
ATOM     14  C   UNL     1      -7.515  -3.123 133.520  0.00  0.00    +0.000 C 
BRANCH  14  15
ATOM     15  C   UNL     1      -6.640  -2.483 134.583  0.00  0.00    +0.000 C 
BRANCH  15  16
ATOM     16  N   UNL     1      -6.745  -1.039 134.553  0.00  0.00    +0.000 NA
ATOM     17  H   UNL     1      -6.046  -0.638 135.179  0.00  0.00    +0.000 HD
ATOM     18  H   UNL     1      -7.655  -0.741 134.907  0.00  0.00    +0.000 HD
ENDBRANCH  15  16
ENDBRANCH  14  15
ENDBRANCH  11  14
ENDBRANCH   7  11
ENDBRANCH   1   9
BRANCH   3  19
ATOM     19  N   UNL     1      -4.416   0.507 131.774  0.00  0.00    +0.000 NA
ATOM     20  H   UNL     1      -3.950   1.142 132.378  0.00  0.00    +0.000 HD
ATOM     21  H   UNL     1      -5.156   0.040 132.290  0.00  0.00    +0.000 HD
ENDBRANCH   3  19
BRANCH   5  22
ATOM     22  O   UNL     1      -6.484   1.538 133.101  0.00  0.00    +0.000 OA
ATOM     23  H   UNL     1      -6.705   0.670 132.724  0.00  0.00    +0.000 HD
ENDBRANCH   5  22
BRANCH   6  24
ATOM     24  O   UNL     1      -7.993   2.950 130.142  0.00  0.00    +0.000 OA
BRANCH  24  25
ATOM     25  C   UNL     1      -8.853   4.050 130.526  0.00  0.00    +0.000 C 
ATOM     26  O   UNL     1      -8.341   4.957 131.527  0.00  0.00    +0.000 OA
ATOM     27  C   UNL     1      -9.153   6.120 131.835  0.00  0.00    +0.000 C 
ATOM     28  C   UNL     1      -9.275   6.968 130.565  0.00  0.00    +0.000 C 
ATOM     29  C   UNL     1      -9.787   6.095 129.378  0.00  0.00    +0.000 C 
ATOM     30  C   UNL     1      -8.950   4.841 129.224  0.00  0.00    +0.000 C 
BRANCH  29  31
ATOM     31  N   UNL     1     -11.184   5.637 129.509  0.00  0.00    +0.000 NA
ATOM     32  H   UNL     1     -11.403   5.429 130.481  0.00  0.00    +0.000 HD
ATOM     33  H   UNL     1     -11.250   4.718 129.065  0.00  0.00    +0.000 HD
ENDBRANCH  29  31
BRANCH  30  34
ATOM     34  O   UNL     1      -7.655   5.264 128.867  0.00  0.00    +0.000 OA
ATOM     35  H   UNL     1      -7.125   5.153 129.684  0.00  0.00    +0.000 HD
ENDBRANCH  30  34
BRANCH  28  36
ATOM     36  O   UNL     1      -7.990   7.565 130.313  0.00  0.00    +0.000 OA
ATOM     37  H   UNL     1      -7.392   6.855 130.022  0.00  0.00    +0.000 HD
ENDBRANCH  28  36
BRANCH  27  38
ATOM     38  C   UNL     1     -10.530   5.785 132.437  0.00  0.00    +0.000 C 
BRANCH  38  39
ATOM     39  O   UNL     1     -11.448   6.858 132.280  0.00  0.00    +0.000 OA
ATOM     40  H   UNL     1     -11.282   7.488 133.003  0.00  0.00    +0.000 HD
ENDBRANCH  38  39
ENDBRANCH  27  38
ENDBRANCH  24  25
ENDBRANCH   6  24
BRANCH   4  41
ATOM     41  O   UNL     1      -5.448   3.415 129.916  0.00  0.00    +0.000 OA
BRANCH  41  42
ATOM     42  C   UNL     1      -4.505   4.492 129.848  0.00  0.00    +0.000 C 
ATOM     43  O   UNL     1      -4.745   5.381 128.761  0.00  0.00    +0.000 OA
ATOM     44  C   UNL     1      -3.778   6.439 128.594  0.00  0.00    +0.000 C 
ATOM     45  C   UNL     1      -3.806   7.310 129.851  0.00  0.00    +0.000 C 
ATOM     46  C   UNL     1      -3.564   6.418 131.108  0.00  0.00    +0.000 C 
ATOM     47  C   UNL     1      -4.610   5.341 131.134  0.00  0.00    +0.000 C 
BRANCH  47  48
ATOM     48  O   UNL     1      -5.861   6.042 131.207  0.00  0.00    +0.000 OA
ATOM     49  H   UNL     1      -6.227   6.104 130.306  0.00  0.00    +0.000 HD
ENDBRANCH  47  48
BRANCH  46  50
ATOM     50  O   UNL     1      -2.281   5.777 131.192  0.00  0.00    +0.000 OA
ATOM     51  H   UNL     1      -2.379   4.826 131.397  0.00  0.00    +0.000 HD
ENDBRANCH  46  50
BRANCH  45  52
ATOM     52  O   UNL     1      -5.065   8.010 129.861  0.00  0.00    +0.000 OA
ATOM     53  H   UNL     1      -5.689   7.478 130.398  0.00  0.00    +0.000 HD
ENDBRANCH  45  52
BRANCH  44  54
ATOM     54  C   UNL     1      -2.360   5.934 128.210  0.00  0.00    +0.000 C 
BRANCH  54  55
ATOM     55  N   UNL     1      -2.283   4.698 127.423  0.00  0.00    +0.000 NA
ATOM     56  H   UNL     1      -2.675   4.806 126.476  0.00  0.00    +0.000 HD
ATOM     57  H   UNL     1      -2.921   4.001 127.813  0.00  0.00    +0.000 HD
ENDBRANCH  54  55
ENDBRANCH  44  54
ENDBRANCH  41  42
ENDBRANCH   4  41
TORSDOF 22
ENDMDL
MODEL 9
REMARK VINA RESULT:      -5.7      3.528      8.227
REMARK  Name = Amikacin
REMARK  22 active torsions:
REMARK  status: ('A' for Active; 'I' for Inactive)
REMARK    1  A    between atoms: N_1  and  C_2
REMARK    2  A    between atoms: C_2  and  C_3
REMARK    3  A    between atoms: C_3  and  C_4
REMARK    4  A    between atoms: C_4  and  O_5
REMARK    5  A    between atoms: C_4  and  C_6
REMARK    6  A    between atoms: N_8  and  C_9
REMARK    7  A    between atoms: C_11  and  N_12
REMARK    8  A    between atoms: C_13  and  O_14
REMARK    9  A    between atoms: O_14  and  C_15
REMARK   10  A    between atoms: C_17  and  C_18
REMARK   11  A    between atoms: C_18  and  N_19
REMARK   12  A    between atoms: C_20  and  O_21
REMARK   13  A    between atoms: C_22  and  O_23
REMARK   14  A    between atoms: C_24  and  O_25
REMARK   15  A    between atoms: C_26  and  O_27
REMARK   16  A    between atoms: C_28  and  O_29
REMARK   17  A    between atoms: O_29  and  C_30
REMARK   18  A    between atoms: C_32  and  C_33
REMARK   19  A    between atoms: C_33  and  O_34
REMARK   20  A    between atoms: C_35  and  O_36
REMARK   21  A    between atoms: C_37  and  N_38
REMARK   22  A    between atoms: C_39  and  O_40
REMARK                            x       y       z     vdW  Elec       q    Type
REMARK                         _______ _______ _______ _____ _____    ______ ____
ROOT
ATOM      1  C   UNL     1      -5.493  -0.355 129.290  0.00  0.00    +0.000 C 
ATOM      2  C   UNL     1      -4.885   0.732 130.176  0.00  0.00    +0.000 C 
ATOM      3  C   UNL     1      -5.669   0.907 131.530  0.00  0.00    +0.000 C 
ATOM      4  C   UNL     1      -7.072   1.384 131.145  0.00  0.00    +0.000 C 
ATOM      5  C   UNL     1      -7.769   0.221 130.313  0.00  0.00    +0.000 C 
ATOM      6  C   UNL     1      -7.021   0.018 128.992  0.00  0.00    +0.000 C 
ENDROOT
BRANCH   1   9
ATOM      7  C   UNL     1      -4.860  -2.850 129.261  0.00  0.00    +0.000 C 
ATOM      8  O   UNL     1      -4.679  -2.914 128.074  0.00  0.00    +0.000 OA
ATOM      9  N   UNL     1      -5.343  -1.705 129.919  0.00  0.00    +0.000 N 
ATOM     10  H   UNL     1      -5.908  -1.846 130.740  0.00  0.00    +0.000 HD
BRANCH   7  11
ATOM     11  C   UNL     1      -4.287  -3.996 130.161  0.00  0.00    +0.000 C 
BRANCH  11  12
ATOM     12  O   UNL     1      -3.385  -3.418 131.125  0.00  0.00    +0.000 OA
ATOM     13  H   UNL     1      -3.142  -2.518 130.846  0.00  0.00    +0.000 HD
ENDBRANCH  11  12
BRANCH  11  14
ATOM     14  C   UNL     1      -5.259  -4.852 130.975  0.00  0.00    +0.000 C 
BRANCH  14  15
ATOM     15  C   UNL     1      -5.334  -4.346 132.404  0.00  0.00    +0.000 C 
BRANCH  15  16
ATOM     16  N   UNL     1      -6.228  -3.212 132.518  0.00  0.00    +0.000 NA
ATOM     17  H   UNL     1      -7.006  -3.331 131.869  0.00  0.00    +0.000 HD
ATOM     18  H   UNL     1      -5.750  -2.353 132.241  0.00  0.00    +0.000 HD
ENDBRANCH  15  16
ENDBRANCH  14  15
ENDBRANCH  11  14
ENDBRANCH   7  11
ENDBRANCH   1   9
BRANCH   3  19
ATOM     19  N   UNL     1      -5.990  -0.114 132.526  0.00  0.00    +0.000 NA
ATOM     20  H   UNL     1      -5.649   0.098 133.434  0.00  0.00    +0.000 HD
ATOM     21  H   UNL     1      -6.987  -0.297 132.580  0.00  0.00    +0.000 HD
ENDBRANCH   3  19
BRANCH   5  22
ATOM     22  O   UNL     1      -7.888  -1.066 130.916  0.00  0.00    +0.000 OA
ATOM     23  H   UNL     1      -6.966  -1.324 131.079  0.00  0.00    +0.000 HD
ENDBRANCH   5  22
BRANCH   6  24
ATOM     24  O   UNL     1      -7.099   1.216 128.233  0.00  0.00    +0.000 OA
BRANCH  24  25
ATOM     25  C   UNL     1      -7.639   1.103 126.894  0.00  0.00    +0.000 C 
ATOM     26  O   UNL     1      -8.999   1.552 126.700  0.00  0.00    +0.000 OA
ATOM     27  C   UNL     1      -9.505   1.541 125.340  0.00  0.00    +0.000 C 
ATOM     28  C   UNL     1      -8.653   2.503 124.505  0.00  0.00    +0.000 C 
ATOM     29  C   UNL     1      -7.140   2.154 124.653  0.00  0.00    +0.000 C 
ATOM     30  C   UNL     1      -6.744   2.062 126.113  0.00  0.00    +0.000 C 
BRANCH  29  31
ATOM     31  N   UNL     1      -6.742   0.871 124.043  0.00  0.00    +0.000 NA
ATOM     32  H   UNL     1      -7.560   0.295 123.853  0.00  0.00    +0.000 HD
ATOM     33  H   UNL     1      -6.249   0.329 124.757  0.00  0.00    +0.000 HD
ENDBRANCH  29  31
BRANCH  30  34
ATOM     34  O   UNL     1      -6.902   3.352 126.654  0.00  0.00    +0.000 OA
ATOM     35  H   UNL     1      -7.106   3.920 125.882  0.00  0.00    +0.000 HD
ENDBRANCH  30  34
BRANCH  28  36
ATOM     36  O   UNL     1      -8.967   3.843 124.925  0.00  0.00    +0.000 OA
ATOM     37  H   UNL     1      -8.518   4.452 124.312  0.00  0.00    +0.000 HD
ENDBRANCH  28  36
BRANCH  27  38
ATOM     38  C   UNL     1      -9.579   0.139 124.707  0.00  0.00    +0.000 C 
BRANCH  38  39
ATOM     39  O   UNL     1      -9.796   0.207 123.304  0.00  0.00    +0.000 OA
ATOM     40  H   UNL     1      -9.085   0.756 122.928  0.00  0.00    +0.000 HD
ENDBRANCH  38  39
ENDBRANCH  27  38
ENDBRANCH  24  25
ENDBRANCH   6  24
BRANCH   4  41
ATOM     41  O   UNL     1      -6.974   2.629 130.409  0.00  0.00    +0.000 OA
BRANCH  41  42
ATOM     42  C   UNL     1      -7.954   3.606 130.784  0.00  0.00    +0.000 C 
ATOM     43  O   UNL     1      -7.472   4.944 130.702  0.00  0.00    +0.000 OA
ATOM     44  C   UNL     1      -8.388   5.967 131.146  0.00  0.00    +0.000 C 
ATOM     45  C   UNL     1      -9.624   5.919 130.246  0.00  0.00    +0.000 C 
ATOM     46  C   UNL     1     -10.223   4.478 130.258  0.00  0.00    +0.000 C 
ATOM     47  C   UNL     1      -9.155   3.518 129.817  0.00  0.00    +0.000 C 
BRANCH  47  48
ATOM     48  O   UNL     1      -8.803   3.940 128.490  0.00  0.00    +0.000 OA
ATOM     49  H   UNL     1      -8.696   3.145 127.937  0.00  0.00    +0.000 HD
ENDBRANCH  47  48
BRANCH  46  50
ATOM     50  O   UNL     1     -10.728   4.013 131.520  0.00  0.00    +0.000 OA
ATOM     51  H   UNL     1     -10.143   3.328 131.900  0.00  0.00    +0.000 HD
ENDBRANCH  46  50
BRANCH  45  52
ATOM     52  O   UNL     1      -9.223   6.378 128.940  0.00  0.00    +0.000 OA
ATOM     53  H   UNL     1      -8.294   6.094 128.805  0.00  0.00    +0.000 HD
ENDBRANCH  45  52
BRANCH  44  54
ATOM     54  C   UNL     1      -8.712   5.898 132.663  0.00  0.00    +0.000 C 
BRANCH  54  55
ATOM     55  N   UNL     1     -10.020   6.409 133.090  0.00  0.00    +0.000 NA
ATOM     56  H   UNL     1     -10.723   5.663 133.193  0.00  0.00    +0.000 HD
ATOM     57  H   UNL     1     -10.436   6.960 132.336  0.00  0.00    +0.000 HD
ENDBRANCH  54  55
ENDBRANCH  44  54
ENDBRANCH  41  42
ENDBRANCH   4  41
TORSDOF 22
ENDMDL
