MODEL 1
REMARK VINA RESULT:      -6.4      0.000      0.000
REMARK  Name = Amiloride
REMARK  2 active torsions:
REMARK  status: ('A' for Active; 'I' for Inactive)
REMARK    1  A    between atoms: C_5  and  C_7
REMARK    2  A    between atoms: C_11  and  N_12
REMARK                            x       y       z     vdW  Elec       q    Type
REMARK                         _______ _______ _______ _____ _____    ______ ____
ROOT
ATOM      1  C   UNL     1      -9.904   6.840 130.632  0.00  0.00    +0.000 A 
ATOM      2  N   UNL     1      -8.619   7.179 130.326  0.00  0.00    +0.000 NA
ATOM      3  C   UNL     1      -7.689   6.780 131.217  0.00  0.00    +0.000 A 
ATOM      4 CL   UNL     1      -6.077   7.243 130.814  0.00  0.00    +0.000 Cl
ATOM      5  C   UNL     1      -7.978   6.055 132.385  0.00  0.00    +0.000 A 
ATOM      6  N   UNL     1      -9.269   5.721 132.675  0.00  0.00    +0.000 NA
ATOM      7  C   UNL     1     -10.235   6.112 131.789  0.00  0.00    +0.000 A 
ATOM      8  N   UNL     1     -11.569   5.864 132.154  0.00  0.00    +0.000 N 
ATOM      9  H   UNL     1     -11.596   5.182 132.911  0.00  0.00    +0.000 HD
ATOM     10  H   UNL     1     -12.165   5.599 131.373  0.00  0.00    +0.000 HD
ENDROOT
BRANCH   1  15
ATOM     11  N   UNL     1     -13.127   9.946 128.734  0.00  0.00    +0.000 N 
ATOM     12  C   UNL     1     -12.563   8.723 128.645  0.00  0.00    +0.000 C 
ATOM     13  N   UNL     1     -12.956   7.905 127.735  0.00  0.00    +0.000 NA
ATOM     14  N   UNL     1     -11.577   8.350 129.533  0.00  0.00    +0.000 N 
ATOM     15  C   UNL     1     -10.914   7.110 129.555  0.00  0.00    +0.000 C 
ATOM     16  O   UNL     1     -11.116   6.180 128.768  0.00  0.00    +0.000 OA
ATOM     17  H   UNL     1     -13.821  10.220 128.049  0.00  0.00    +0.000 HD
ATOM     18  H   UNL     1     -12.861  10.657 129.399  0.00  0.00    +0.000 HD
ATOM     19  H   UNL     1     -13.675   8.305 127.141  0.00  0.00    +0.000 HD
ATOM     20  H   UNL     1     -11.288   9.046 130.209  0.00  0.00    +0.000 HD
ENDBRANCH   1  15
BRANCH   5  21
ATOM     21  N   UNL     1      -6.985   5.713 133.294  0.00  0.00    +0.000 N 
ATOM     22  H   UNL     1      -6.011   5.763 133.018  0.00  0.00    +0.000 HD
ATOM     23  H   UNL     1      -7.237   5.310 134.183  0.00  0.00    +0.000 HD
ENDBRANCH   5  21
TORSDOF 2
ENDMDL
MODEL 2
REMARK VINA RESULT:      -5.9      9.550     10.655
REMARK  Name = Amiloride
REMARK  2 active torsions:
REMARK  status: ('A' for Active; 'I' for Inactive)
REMARK    1  A    between atoms: C_5  and  C_7
REMARK    2  A    between atoms: C_11  and  N_12
REMARK                            x       y       z     vdW  Elec       q    Type
REMARK                         _______ _______ _______ _____ _____    ______ ____
ROOT
ATOM      1  C   UNL     1      -6.981   3.402 122.093  0.00  0.00    +0.000 A 
ATOM      2  N   UNL     1      -7.590   3.446 120.873  0.00  0.00    +0.000 NA
ATOM      3  C   UNL     1      -6.961   4.189 119.940  0.00  0.00    +0.000 A 
ATOM      4 CL   UNL     1      -7.766   4.244 118.416  0.00  0.00    +0.000 Cl
ATOM      5  C   UNL     1      -5.755   4.876 120.162  0.00  0.00    +0.000 A 
ATOM      6  N   UNL     1      -5.158   4.819 121.388  0.00  0.00    +0.000 NA
ATOM      7  C   UNL     1      -5.773   4.073 122.355  0.00  0.00    +0.000 A 
ATOM      8  N   UNL     1      -5.211   4.114 123.643  0.00  0.00    +0.000 N 
ATOM      9  H   UNL     1      -4.264   4.487 123.592  0.00  0.00    +0.000 HD
ATOM     10  H   UNL     1      -5.250   3.224 124.135  0.00  0.00    +0.000 HD
ENDROOT
BRANCH   1  15
ATOM     11  N   UNL     1     -10.999   1.571 124.126  0.00  0.00    +0.000 N 
ATOM     12  C   UNL     1      -9.651   1.548 124.092  0.00  0.00    +0.000 C 
ATOM     13  N   UNL     1      -9.007   0.782 124.898  0.00  0.00    +0.000 NA
ATOM     14  N   UNL     1      -8.967   2.351 123.204  0.00  0.00    +0.000 N 
ATOM     15  C   UNL     1      -7.570   2.427 123.070  0.00  0.00    +0.000 C 
ATOM     16  O   UNL     1      -6.754   1.772 123.727  0.00  0.00    +0.000 OA
ATOM     17  H   UNL     1     -11.488   0.947 124.756  0.00  0.00    +0.000 HD
ATOM     18  H   UNL     1     -11.582   2.122 123.513  0.00  0.00    +0.000 HD
ATOM     19  H   UNL     1      -9.626   0.237 125.489  0.00  0.00    +0.000 HD
ATOM     20  H   UNL     1      -9.528   2.911 122.574  0.00  0.00    +0.000 HD
ENDBRANCH   1  15
BRANCH   5  21
ATOM     21  N   UNL     1      -5.177   5.668 119.180  0.00  0.00    +0.000 N 
ATOM     22  H   UNL     1      -4.193   5.908 119.240  0.00  0.00    +0.000 HD
ATOM     23  H   UNL     1      -5.757   6.094 118.474  0.00  0.00    +0.000 HD
ENDBRANCH   5  21
TORSDOF 2
ENDMDL
MODEL 3
REMARK VINA RESULT:      -5.9      2.686      5.345
REMARK  Name = Amiloride
REMARK  2 active torsions:
REMARK  status: ('A' for Active; 'I' for Inactive)
REMARK    1  A    between atoms: C_5  and  C_7
REMARK    2  A    between atoms: C_11  and  N_12
REMARK                            x       y       z     vdW  Elec       q    Type
REMARK                         _______ _______ _______ _____ _____    ______ ____
ROOT
ATOM      1  C   UNL     1     -10.815   5.859 129.767  0.00  0.00    +0.000 A 
ATOM      2  N   UNL     1     -10.623   6.282 128.485  0.00  0.00    +0.000 NA
ATOM      3  C   UNL     1     -11.185   7.469 128.179  0.00  0.00    +0.000 A 
ATOM      4 CL   UNL     1     -10.944   7.967 126.546  0.00  0.00    +0.000 Cl
ATOM      5  C   UNL     1     -11.915   8.252 129.088  0.00  0.00    +0.000 A 
ATOM      6  N   UNL     1     -12.096   7.815 130.368  0.00  0.00    +0.000 NA
ATOM      7  C   UNL     1     -11.537   6.613 130.709  0.00  0.00    +0.000 A 
ATOM      8  N   UNL     1     -11.825   6.120 131.993  0.00  0.00    +0.000 N 
ATOM      9  H   UNL     1     -12.193   6.871 132.574  0.00  0.00    +0.000 HD
ATOM     10  H   UNL     1     -11.043   5.639 132.431  0.00  0.00    +0.000 HD
ENDROOT
BRANCH   1  15
ATOM     11  N   UNL     1      -6.496   3.987 130.983  0.00  0.00    +0.000 N 
ATOM     12  C   UNL     1      -7.802   3.736 130.755  0.00  0.00    +0.000 C 
ATOM     13  N   UNL     1      -8.240   2.530 130.830  0.00  0.00    +0.000 NA
ATOM     14  N   UNL     1      -8.659   4.765 130.432  0.00  0.00    +0.000 N 
ATOM     15  C   UNL     1     -10.034   4.640 130.166  0.00  0.00    +0.000 C 
ATOM     16  O   UNL     1     -10.672   3.583 130.195  0.00  0.00    +0.000 OA
ATOM     17  H   UNL     1      -5.887   3.226 131.258  0.00  0.00    +0.000 HD
ATOM     18  H   UNL     1      -6.075   4.904 130.971  0.00  0.00    +0.000 HD
ATOM     19  H   UNL     1      -7.513   1.870 131.086  0.00  0.00    +0.000 HD
ATOM     20  H   UNL     1      -8.263   5.697 130.417  0.00  0.00    +0.000 HD
ENDBRANCH   1  15
BRANCH   5  21
ATOM     21  N   UNL     1     -12.516   9.444 128.705  0.00  0.00    +0.000 N 
ATOM     22  H   UNL     1     -13.509   9.578 128.854  0.00  0.00    +0.000 HD
ATOM     23  H   UNL     1     -11.989  10.124 128.179  0.00  0.00    +0.000 HD
ENDBRANCH   5  21
TORSDOF 2
ENDMDL
MODEL 4
REMARK VINA RESULT:      -5.8      9.674     10.476
REMARK  Name = Amiloride
REMARK  2 active torsions:
REMARK  status: ('A' for Active; 'I' for Inactive)
REMARK    1  A    between atoms: C_5  and  C_7
REMARK    2  A    between atoms: C_11  and  N_12
REMARK                            x       y       z     vdW  Elec       q    Type
REMARK                         _______ _______ _______ _____ _____    ______ ____
ROOT
ATOM      1  C   UNL     1      -7.790   0.923 123.738  0.00  0.00    +0.000 A 
ATOM      2  N   UNL     1      -6.903  -0.108 123.633  0.00  0.00    +0.000 NA
ATOM      3  C   UNL     1      -7.452  -1.325 123.443  0.00  0.00    +0.000 A 
ATOM      4 CL   UNL     1      -6.307  -2.610 123.336  0.00  0.00    +0.000 Cl
ATOM      5  C   UNL     1      -8.833  -1.558 123.342  0.00  0.00    +0.000 A 
ATOM      6  N   UNL     1      -9.707  -0.514 123.446  0.00  0.00    +0.000 NA
ATOM      7  C   UNL     1      -9.179   0.733 123.640  0.00  0.00    +0.000 A 
ATOM      8  N   UNL     1     -10.090   1.780 123.860  0.00  0.00    +0.000 N 
ATOM      9  H   UNL     1     -11.023   1.490 123.572  0.00  0.00    +0.000 HD
ATOM     10  H   UNL     1      -9.811   2.662 123.435  0.00  0.00    +0.000 HD
ENDROOT
BRANCH   1  15
ATOM     11  N   UNL     1      -5.233   4.294 121.343  0.00  0.00    +0.000 N 
ATOM     12  C   UNL     1      -5.852   3.967 122.496  0.00  0.00    +0.000 C 
ATOM     13  N   UNL     1      -5.822   4.784 123.488  0.00  0.00    +0.000 NA
ATOM     14  N   UNL     1      -6.505   2.759 122.614  0.00  0.00    +0.000 N 
ATOM     15  C   UNL     1      -7.181   2.295 123.756  0.00  0.00    +0.000 C 
ATOM     16  O   UNL     1      -7.295   2.916 124.818  0.00  0.00    +0.000 OA
ATOM     17  H   UNL     1      -4.792   5.201 121.259  0.00  0.00    +0.000 HD
ATOM     18  H   UNL     1      -5.230   3.725 120.509  0.00  0.00    +0.000 HD
ATOM     19  H   UNL     1      -5.321   5.639 123.269  0.00  0.00    +0.000 HD
ATOM     20  H   UNL     1      -6.520   2.170 121.790  0.00  0.00    +0.000 HD
ENDBRANCH   1  15
BRANCH   5  21
ATOM     21  N   UNL     1      -9.347  -2.839 123.196  0.00  0.00    +0.000 N 
ATOM     22  H   UNL     1      -9.175  -3.536 123.913  0.00  0.00    +0.000 HD
ATOM     23  H   UNL     1      -9.790  -3.106 122.331  0.00  0.00    +0.000 HD
ENDBRANCH   5  21
TORSDOF 2
ENDMDL
MODEL 5
REMARK VINA RESULT:      -5.8      2.500      5.319
REMARK  Name = Amiloride
REMARK  2 active torsions:
REMARK  status: ('A' for Active; 'I' for Inactive)
REMARK    1  A    between atoms: C_5  and  C_7
REMARK    2  A    between atoms: C_11  and  N_12
REMARK                            x       y       z     vdW  Elec       q    Type
REMARK                         _______ _______ _______ _____ _____    ______ ____
ROOT
ATOM      1  C   UNL     1      -9.210   6.589 131.057  0.00  0.00    +0.000 A 
ATOM      2  N   UNL     1      -9.275   7.298 129.894  0.00  0.00    +0.000 NA
ATOM      3  C   UNL     1     -10.513   7.679 129.519  0.00  0.00    +0.000 A 
ATOM      4 CL   UNL     1     -10.565   8.555 128.034  0.00  0.00    +0.000 Cl
ATOM      5  C   UNL     1     -11.679   7.397 130.250  0.00  0.00    +0.000 A 
ATOM      6  N   UNL     1     -11.596   6.689 131.413  0.00  0.00    +0.000 NA
ATOM      7  C   UNL     1     -10.353   6.288 131.820  0.00  0.00    +0.000 A 
ATOM      8  N   UNL     1     -10.292   5.463 132.956  0.00  0.00    +0.000 N 
ATOM      9  H   UNL     1     -11.174   5.511 133.463  0.00  0.00    +0.000 HD
ATOM     10  H   UNL     1      -9.491   5.650 133.555  0.00  0.00    +0.000 HD
ENDROOT
BRANCH   1  15
ATOM     11  N   UNL     1      -4.466   7.595 130.727  0.00  0.00    +0.000 N 
ATOM     12  C   UNL     1      -5.415   6.864 131.346  0.00  0.00    +0.000 C 
ATOM     13  N   UNL     1      -5.075   6.005 132.240  0.00  0.00    +0.000 NA
ATOM     14  N   UNL     1      -6.743   7.030 131.015  0.00  0.00    +0.000 N 
ATOM     15  C   UNL     1      -7.826   6.331 131.576  0.00  0.00    +0.000 C 
ATOM     16  O   UNL     1      -7.739   5.472 132.461  0.00  0.00    +0.000 OA
ATOM     17  H   UNL     1      -3.499   7.490 131.009  0.00  0.00    +0.000 HD
ATOM     18  H   UNL     1      -4.646   8.307 130.035  0.00  0.00    +0.000 HD
ATOM     19  H   UNL     1      -4.072   5.989 132.398  0.00  0.00    +0.000 HD
ATOM     20  H   UNL     1      -6.953   7.741 130.326  0.00  0.00    +0.000 HD
ENDBRANCH   1  15
BRANCH   5  21
ATOM     21  N   UNL     1     -12.935   7.771 129.791  0.00  0.00    +0.000 N 
ATOM     22  H   UNL     1     -13.755   7.582 130.356  0.00  0.00    +0.000 HD
ATOM     23  H   UNL     1     -13.040   8.124 128.852  0.00  0.00    +0.000 HD
ENDBRANCH   5  21
TORSDOF 2
ENDMDL
MODEL 6
REMARK VINA RESULT:      -5.5      8.665      9.659
REMARK  Name = Amiloride
REMARK  2 active torsions:
REMARK  status: ('A' for Active; 'I' for Inactive)
REMARK    1  A    between atoms: C_5  and  C_7
REMARK    2  A    between atoms: C_11  and  N_12
REMARK                            x       y       z     vdW  Elec       q    Type
REMARK                         _______ _______ _______ _____ _____    ______ ____
ROOT
ATOM      1  C   UNL     1      -8.343   1.035 124.892  0.00  0.00    +0.000 A 
ATOM      2  N   UNL     1      -7.072   1.199 125.361  0.00  0.00    +0.000 NA
ATOM      3  C   UNL     1      -6.568   2.443 125.239  0.00  0.00    +0.000 A 
ATOM      4 CL   UNL     1      -4.953   2.613 125.820  0.00  0.00    +0.000 Cl
ATOM      5  C   UNL     1      -7.271   3.526 124.686  0.00  0.00    +0.000 A 
ATOM      6  N   UNL     1      -8.542   3.346 124.224  0.00  0.00    +0.000 NA
ATOM      7  C   UNL     1      -9.081   2.094 124.334  0.00  0.00    +0.000 A 
ATOM      8  N   UNL     1     -10.345   1.893 123.753  0.00  0.00    +0.000 N 
ATOM      9  H   UNL     1     -10.785   2.793 123.571  0.00  0.00    +0.000 HD
ATOM     10  H   UNL     1     -10.946   1.269 124.287  0.00  0.00    +0.000 HD
ENDROOT
BRANCH   1  15
ATOM     11  N   UNL     1      -8.047  -3.808 124.581  0.00  0.00    +0.000 N 
ATOM     12  C   UNL     1      -8.784  -2.754 124.990  0.00  0.00    +0.000 C 
ATOM     13  N   UNL     1      -9.936  -2.953 125.524  0.00  0.00    +0.000 NA
ATOM     14  N   UNL     1      -8.309  -1.471 124.825  0.00  0.00    +0.000 N 
ATOM     15  C   UNL     1      -8.976  -0.291 125.199  0.00  0.00    +0.000 C 
ATOM     16  O   UNL     1     -10.084  -0.240 125.743  0.00  0.00    +0.000 OA
ATOM     17  H   UNL     1      -8.392  -4.746 124.745  0.00  0.00    +0.000 HD
ATOM     18  H   UNL     1      -7.125  -3.744 124.177  0.00  0.00    +0.000 HD
ATOM     19  H   UNL     1     -10.163  -3.939 125.598  0.00  0.00    +0.000 HD
ATOM     20  H   UNL     1      -7.383  -1.378 124.426  0.00  0.00    +0.000 HD
ENDBRANCH   1  15
BRANCH   5  21
ATOM     21  N   UNL     1      -6.684   4.776 124.539  0.00  0.00    +0.000 N 
ATOM     22  H   UNL     1      -6.474   5.334 125.360  0.00  0.00    +0.000 HD
ATOM     23  H   UNL     1      -6.573   5.172 123.619  0.00  0.00    +0.000 HD
ENDBRANCH   5  21
TORSDOF 2
ENDMDL
MODEL 7
REMARK VINA RESULT:      -5.5      2.713      5.911
REMARK  Name = Amiloride
REMARK  2 active torsions:
REMARK  status: ('A' for Active; 'I' for Inactive)
REMARK    1  A    between atoms: C_5  and  C_7
REMARK    2  A    between atoms: C_11  and  N_12
REMARK                            x       y       z     vdW  Elec       q    Type
REMARK                         _______ _______ _______ _____ _____    ______ ____
ROOT
ATOM      1  C   UNL     1      -9.308   6.438 131.781  0.00  0.00    +0.000 A 
ATOM      2  N   UNL     1     -10.672   6.446 131.797  0.00  0.00    +0.000 NA
ATOM      3  C   UNL     1     -11.257   7.061 130.750  0.00  0.00    +0.000 A 
ATOM      4 CL   UNL     1     -12.981   7.074 130.809  0.00  0.00    +0.000 Cl
ATOM      5  C   UNL     1     -10.552   7.655 129.691  0.00  0.00    +0.000 A 
ATOM      6  N   UNL     1      -9.187   7.636 129.689  0.00  0.00    +0.000 NA
ATOM      7  C   UNL     1      -8.564   7.018 130.739  0.00  0.00    +0.000 A 
ATOM      8  N   UNL     1      -7.162   7.104 130.785  0.00  0.00    +0.000 N 
ATOM      9  H   UNL     1      -6.806   7.389 129.874  0.00  0.00    +0.000 HD
ATOM     10  H   UNL     1      -6.711   6.259 131.129  0.00  0.00    +0.000 HD
ENDROOT
BRANCH   1  15
ATOM     11  N   UNL     1      -8.006   5.999 136.445  0.00  0.00    +0.000 N 
ATOM     12  C   UNL     1      -7.995   5.432 135.221  0.00  0.00    +0.000 C 
ATOM     13  N   UNL     1      -7.406   4.303 135.047  0.00  0.00    +0.000 NA
ATOM     14  N   UNL     1      -8.602   6.067 134.158  0.00  0.00    +0.000 N 
ATOM     15  C   UNL     1      -8.658   5.591 132.837  0.00  0.00    +0.000 C 
ATOM     16  O   UNL     1      -8.176   4.524 132.442  0.00  0.00    +0.000 OA
ATOM     17  H   UNL     1      -7.590   5.502 137.223  0.00  0.00    +0.000 HD
ATOM     18  H   UNL     1      -8.466   6.868 136.674  0.00  0.00    +0.000 HD
ATOM     19  H   UNL     1      -7.011   3.938 135.908  0.00  0.00    +0.000 HD
ATOM     20  H   UNL     1      -9.075   6.939 134.361  0.00  0.00    +0.000 HD
ENDBRANCH   1  15
BRANCH   5  21
ATOM     21  N   UNL     1     -11.206   8.320 128.662  0.00  0.00    +0.000 N 
ATOM     22  H   UNL     1     -10.912   8.176 127.702  0.00  0.00    +0.000 HD
ATOM     23  H   UNL     1     -11.891   9.027 128.879  0.00  0.00    +0.000 HD
ENDBRANCH   5  21
TORSDOF 2
ENDMDL
MODEL 8
REMARK VINA RESULT:      -5.3      9.301     10.275
REMARK  Name = Amiloride
REMARK  2 active torsions:
REMARK  status: ('A' for Active; 'I' for Inactive)
REMARK    1  A    between atoms: C_5  and  C_7
REMARK    2  A    between atoms: C_11  and  N_12
REMARK                            x       y       z     vdW  Elec       q    Type
REMARK                         _______ _______ _______ _____ _____    ______ ____
ROOT
ATOM      1  C   UNL     1      -8.248   1.015 124.469  0.00  0.00    +0.000 A 
ATOM      2  N   UNL     1      -8.778   1.597 123.355  0.00  0.00    +0.000 NA
ATOM      3  C   UNL     1      -8.066   2.624 122.847  0.00  0.00    +0.000 A 
ATOM      4 CL   UNL     1      -8.772   3.354 121.453  0.00  0.00    +0.000 Cl
ATOM      5  C   UNL     1      -6.855   3.086 123.388  0.00  0.00    +0.000 A 
ATOM      6  N   UNL     1      -6.338   2.490 124.501  0.00  0.00    +0.000 NA
ATOM      7  C   UNL     1      -7.037   1.445 125.039  0.00  0.00    +0.000 A 
ATOM      8  N   UNL     1      -6.555   0.914 126.248  0.00  0.00    +0.000 N 
ATOM      9  H   UNL     1      -5.596   1.220 126.399  0.00  0.00    +0.000 HD
ATOM     10  H   UNL     1      -6.655  -0.096 126.320  0.00  0.00    +0.000 HD
ENDROOT
BRANCH   1  15
ATOM     11  N   UNL     1      -8.248  -3.847 124.516  0.00  0.00    +0.000 N 
ATOM     12  C   UNL     1      -8.893  -2.723 124.892  0.00  0.00    +0.000 C 
ATOM     13  N   UNL     1     -10.011  -2.810 125.519  0.00  0.00    +0.000 NA
ATOM     14  N   UNL     1      -8.360  -1.487 124.595  0.00  0.00    +0.000 N 
ATOM     15  C   UNL     1      -8.930  -0.244 124.922  0.00  0.00    +0.000 C 
ATOM     16  O   UNL     1      -9.990  -0.085 125.535  0.00  0.00    +0.000 OA
ATOM     17  H   UNL     1      -8.633  -4.747 124.776  0.00  0.00    +0.000 HD
ATOM     18  H   UNL     1      -7.356  -3.869 124.045  0.00  0.00    +0.000 HD
ATOM     19  H   UNL     1     -10.287  -3.773 125.685  0.00  0.00    +0.000 HD
ATOM     20  H   UNL     1      -7.463  -1.481 124.126  0.00  0.00    +0.000 HD
ENDBRANCH   1  15
BRANCH   5  21
ATOM     21  N   UNL     1      -6.189   4.181 122.853  0.00  0.00    +0.000 N 
ATOM     22  H   UNL     1      -6.716   4.994 122.554  0.00  0.00    +0.000 HD
ATOM     23  H   UNL     1      -5.202   4.121 122.658  0.00  0.00    +0.000 HD
ENDBRANCH   5  21
TORSDOF 2
ENDMDL
MODEL 9
REMARK VINA RESULT:      -5.2      7.190      8.947
REMARK  Name = Amiloride
REMARK  2 active torsions:
REMARK  status: ('A' for Active; 'I' for Inactive)
REMARK    1  A    between atoms: C_5  and  C_7
REMARK    2  A    between atoms: C_11  and  N_12
REMARK                            x       y       z     vdW  Elec       q    Type
REMARK                         _______ _______ _______ _____ _____    ______ ____
ROOT
ATOM      1  C   UNL     1      -6.342   3.597 126.195  0.00  0.00    +0.000 A 
ATOM      2  N   UNL     1      -6.684   2.334 126.583  0.00  0.00    +0.000 NA
ATOM      3  C   UNL     1      -7.794   1.833 126.005  0.00  0.00    +0.000 A 
ATOM      4 CL   UNL     1      -8.211   0.245 126.531  0.00  0.00    +0.000 Cl
ATOM      5  C   UNL     1      -8.567   2.523 125.057  0.00  0.00    +0.000 A 
ATOM      6  N   UNL     1      -8.210   3.784 124.678  0.00  0.00    +0.000 NA
ATOM      7  C   UNL     1      -7.088   4.320 125.247  0.00  0.00    +0.000 A 
ATOM      8  N   UNL     1      -6.795   5.659 124.937  0.00  0.00    +0.000 N 
ATOM      9  H   UNL     1      -7.325   5.944 124.114  0.00  0.00    +0.000 HD
ATOM     10  H   UNL     1      -5.800   5.849 124.841  0.00  0.00    +0.000 HD
ENDROOT
BRANCH   1  15
ATOM     11  N   UNL     1      -1.595   2.684 126.712  0.00  0.00    +0.000 N 
ATOM     12  C   UNL     1      -2.601   3.552 126.946  0.00  0.00    +0.000 C 
ATOM     13  N   UNL     1      -2.367   4.639 127.590  0.00  0.00    +0.000 NA
ATOM     14  N   UNL     1      -3.876   3.270 126.505  0.00  0.00    +0.000 N 
ATOM     15  C   UNL     1      -5.009   4.082 126.686  0.00  0.00    +0.000 C 
ATOM     16  O   UNL     1      -5.018   5.176 127.261  0.00  0.00    +0.000 OA
ATOM     17  H   UNL     1      -0.657   2.924 127.008  0.00  0.00    +0.000 HD
ATOM     18  H   UNL     1      -1.686   1.823 126.193  0.00  0.00    +0.000 HD
ATOM     19  H   UNL     1      -1.389   4.732 127.848  0.00  0.00    +0.000 HD
ATOM     20  H   UNL     1      -3.994   2.414 125.978  0.00  0.00    +0.000 HD
ENDBRANCH   1  15
BRANCH   5  21
ATOM     21  N   UNL     1      -9.731   1.978 124.530  0.00  0.00    +0.000 N 
ATOM     22  H   UNL     1     -10.049   2.261 123.610  0.00  0.00    +0.000 HD
ATOM     23  H   UNL     1     -10.314   1.391 125.106  0.00  0.00    +0.000 HD
ENDBRANCH   5  21
TORSDOF 2
ENDMDL
