MODEL 1
REMARK VINA RESULT:      -6.2      0.000      0.000
REMARK  Name = Amiloxate
REMARK  10 active torsions:
REMARK  status: ('A' for Active; 'I' for Inactive)
REMARK    1  A    between atoms: C_1  and  O_2
REMARK    2  A    between atoms: O_2  and  C_3
REMARK    3  A    between atoms: C_6  and  C_7
REMARK    4  A    between atoms: C_8  and  C_9
REMARK    5  A    between atoms: C_9  and  O_11
REMARK    6  A    between atoms: O_11  and  C_12
REMARK    7  A    between atoms: C_12  and  C_13
REMARK    8  A    between atoms: C_13  and  C_14
REMARK    9  A    between atoms: C_14  and  C_15
REMARK   10  A    between atoms: C_14  and  C_16
REMARK                            x       y       z     vdW  Elec       q    Type
REMARK                         _______ _______ _______ _____ _____    ______ ____
ROOT
ATOM      1  C   UNL     1      -8.989  -2.494 125.234  0.00  0.00    +0.000 C 
ATOM      2  C   UNL     1      -8.614  -1.459 124.456  0.00  0.00    +0.000 C 
ENDROOT
BRANCH   1   6
ATOM      3  C   UNL     1      -7.960  -2.963 129.405  0.00  0.00    +0.000 A 
ATOM      4  C   UNL     1      -7.627  -1.796 128.718  0.00  0.00    +0.000 A 
ATOM      5  C   UNL     1      -8.022  -1.615 127.379  0.00  0.00    +0.000 A 
ATOM      6  C   UNL     1      -8.697  -2.630 126.682  0.00  0.00    +0.000 A 
ATOM      7  C   UNL     1      -9.041  -3.781 127.400  0.00  0.00    +0.000 A 
ATOM      8  C   UNL     1      -8.683  -3.947 128.742  0.00  0.00    +0.000 A 
BRANCH   3  10
ATOM      9  C   UNL     1      -7.548  -1.754 131.396  0.00  0.00    +0.000 C 
ATOM     10  O   UNL     1      -7.635  -3.015 130.732  0.00  0.00    +0.000 OA
ENDBRANCH   3  10
ENDBRANCH   1   6
BRANCH   2  11
ATOM     11  C   UNL     1      -8.994  -1.379 123.027  0.00  0.00    +0.000 C 
ATOM     12  O   UNL     1     -10.076  -0.966 122.626  0.00  0.00    +0.000 OA
BRANCH  11  13
ATOM     13  O   UNL     1      -7.968  -1.825 122.244  0.00  0.00    +0.000 OA
BRANCH  13  14
ATOM     14  C   UNL     1      -6.671  -1.429 122.733  0.00  0.00    +0.000 C 
BRANCH  14  15
ATOM     15  C   UNL     1      -5.643  -2.561 122.595  0.00  0.00    +0.000 C 
BRANCH  15  16
ATOM     16  C   UNL     1      -5.534  -3.429 123.870  0.00  0.00    +0.000 C 
ATOM     17  C   UNL     1      -4.440  -4.491 123.740  0.00  0.00    +0.000 C 
ATOM     18  C   UNL     1      -5.243  -2.562 125.097  0.00  0.00    +0.000 C 
ENDBRANCH  15  16
ENDBRANCH  14  15
ENDBRANCH  13  14
ENDBRANCH  11  13
ENDBRANCH   2  11
TORSDOF 7
ENDMDL
MODEL 2
REMARK VINA RESULT:      -6.0      4.554      7.918
REMARK  Name = Amiloxate
REMARK  10 active torsions:
REMARK  status: ('A' for Active; 'I' for Inactive)
REMARK    1  A    between atoms: C_1  and  O_2
REMARK    2  A    between atoms: O_2  and  C_3
REMARK    3  A    between atoms: C_6  and  C_7
REMARK    4  A    between atoms: C_8  and  C_9
REMARK    5  A    between atoms: C_9  and  O_11
REMARK    6  A    between atoms: O_11  and  C_12
REMARK    7  A    between atoms: C_12  and  C_13
REMARK    8  A    between atoms: C_13  and  C_14
REMARK    9  A    between atoms: C_14  and  C_15
REMARK   10  A    between atoms: C_14  and  C_16
REMARK                            x       y       z     vdW  Elec       q    Type
REMARK                         _______ _______ _______ _____ _____    ______ ____
ROOT
ATOM      1  C   UNL     1      -8.431   2.452 123.466  0.00  0.00    +0.000 C 
ATOM      2  C   UNL     1      -8.415   1.144 123.795  0.00  0.00    +0.000 C 
ENDROOT
BRANCH   1   6
ATOM      3  C   UNL     1      -6.114   4.449 120.412  0.00  0.00    +0.000 A 
ATOM      4  C   UNL     1      -5.523   4.063 121.616  0.00  0.00    +0.000 A 
ATOM      5  C   UNL     1      -6.259   3.353 122.582  0.00  0.00    +0.000 A 
ATOM      6  C   UNL     1      -7.623   3.077 122.390  0.00  0.00    +0.000 A 
ATOM      7  C   UNL     1      -8.187   3.452 121.165  0.00  0.00    +0.000 A 
ATOM      8  C   UNL     1      -7.446   4.124 120.187  0.00  0.00    +0.000 A 
BRANCH   3  10
ATOM      9  C   UNL     1      -5.970   5.712 118.418  0.00  0.00    +0.000 C 
ATOM     10  O   UNL     1      -5.302   5.038 119.484  0.00  0.00    +0.000 OA
ENDBRANCH   3  10
ENDBRANCH   1   6
BRANCH   2  11
ATOM     11  C   UNL     1      -9.295   0.595 124.851  0.00  0.00    +0.000 C 
ATOM     12  O   UNL     1     -10.520   0.594 124.794  0.00  0.00    +0.000 OA
BRANCH  11  13
ATOM     13  O   UNL     1      -8.542   0.096 125.876  0.00  0.00    +0.000 OA
BRANCH  13  14
ATOM     14  C   UNL     1      -7.943  -1.178 125.568  0.00  0.00    +0.000 C 
BRANCH  14  15
ATOM     15  C   UNL     1      -8.944  -2.331 125.734  0.00  0.00    +0.000 C 
BRANCH  15  16
ATOM     16  C   UNL     1      -8.753  -3.446 124.681  0.00  0.00    +0.000 C 
ATOM     17  C   UNL     1      -9.480  -3.121 123.374  0.00  0.00    +0.000 C 
ATOM     18  C   UNL     1      -7.268  -3.667 124.383  0.00  0.00    +0.000 C 
ENDBRANCH  15  16
ENDBRANCH  14  15
ENDBRANCH  13  14
ENDBRANCH  11  13
ENDBRANCH   2  11
TORSDOF 7
ENDMDL
MODEL 3
REMARK VINA RESULT:      -5.9     10.111     11.386
REMARK  Name = Amiloxate
REMARK  10 active torsions:
REMARK  status: ('A' for Active; 'I' for Inactive)
REMARK    1  A    between atoms: C_1  and  O_2
REMARK    2  A    between atoms: O_2  and  C_3
REMARK    3  A    between atoms: C_6  and  C_7
REMARK    4  A    between atoms: C_8  and  C_9
REMARK    5  A    between atoms: C_9  and  O_11
REMARK    6  A    between atoms: O_11  and  C_12
REMARK    7  A    between atoms: C_12  and  C_13
REMARK    8  A    between atoms: C_13  and  C_14
REMARK    9  A    between atoms: C_14  and  C_15
REMARK   10  A    between atoms: C_14  and  C_16
REMARK                            x       y       z     vdW  Elec       q    Type
REMARK                         _______ _______ _______ _____ _____    ______ ____
ROOT
ATOM      1  C   UNL     1      -9.451   6.470 131.695  0.00  0.00    +0.000 C 
ATOM      2  C   UNL     1     -10.169   5.745 130.814  0.00  0.00    +0.000 C 
ENDROOT
BRANCH   1   6
ATOM      3  C   UNL     1      -5.160   6.108 132.069  0.00  0.00    +0.000 A 
ATOM      4  C   UNL     1      -5.723   6.874 131.048  0.00  0.00    +0.000 A 
ATOM      5  C   UNL     1      -7.116   7.047 130.966  0.00  0.00    +0.000 A 
ATOM      6  C   UNL     1      -7.979   6.399 131.866  0.00  0.00    +0.000 A 
ATOM      7  C   UNL     1      -7.389   5.656 132.896  0.00  0.00    +0.000 A 
ATOM      8  C   UNL     1      -6.002   5.514 133.002  0.00  0.00    +0.000 A 
BRANCH   3  10
ATOM      9  C   UNL     1      -3.148   5.185 131.236  0.00  0.00    +0.000 C 
ATOM     10  O   UNL     1      -3.795   6.078 132.141  0.00  0.00    +0.000 OA
ENDBRANCH   3  10
ENDBRANCH   1   6
BRANCH   2  11
ATOM     11  C   UNL     1     -11.634   5.918 130.673  0.00  0.00    +0.000 C 
ATOM     12  O   UNL     1     -12.366   6.331 131.565  0.00  0.00    +0.000 OA
BRANCH  11  13
ATOM     13  O   UNL     1     -12.030   5.553 129.418  0.00  0.00    +0.000 OA
BRANCH  13  14
ATOM     14  C   UNL     1     -13.050   6.414 128.876  0.00  0.00    +0.000 C 
BRANCH  14  15
ATOM     15  C   UNL     1     -12.553   7.171 127.635  0.00  0.00    +0.000 C 
BRANCH  15  16
ATOM     16  C   UNL     1     -11.986   8.569 127.973  0.00  0.00    +0.000 C 
ATOM     17  C   UNL     1     -12.667   9.174 129.202  0.00  0.00    +0.000 C 
ATOM     18  C   UNL     1     -10.477   8.499 128.225  0.00  0.00    +0.000 C 
ENDBRANCH  15  16
ENDBRANCH  14  15
ENDBRANCH  13  14
ENDBRANCH  11  13
ENDBRANCH   2  11
TORSDOF 7
ENDMDL
MODEL 4
REMARK VINA RESULT:      -5.8      2.213      3.254
REMARK  Name = Amiloxate
REMARK  10 active torsions:
REMARK  status: ('A' for Active; 'I' for Inactive)
REMARK    1  A    between atoms: C_1  and  O_2
REMARK    2  A    between atoms: O_2  and  C_3
REMARK    3  A    between atoms: C_6  and  C_7
REMARK    4  A    between atoms: C_8  and  C_9
REMARK    5  A    between atoms: C_9  and  O_11
REMARK    6  A    between atoms: O_11  and  C_12
REMARK    7  A    between atoms: C_12  and  C_13
REMARK    8  A    between atoms: C_13  and  C_14
REMARK    9  A    between atoms: C_14  and  C_15
REMARK   10  A    between atoms: C_14  and  C_16
REMARK                            x       y       z     vdW  Elec       q    Type
REMARK                         _______ _______ _______ _____ _____    ______ ____
ROOT
ATOM      1  C   UNL     1      -7.803  -2.868 128.255  0.00  0.00    +0.000 C 
ATOM      2  C   UNL     1      -8.677  -3.617 127.552  0.00  0.00    +0.000 C 
ENDROOT
BRANCH   1   6
ATOM      3  C   UNL     1      -6.286  -3.594 132.236  0.00  0.00    +0.000 A 
ATOM      4  C   UNL     1      -7.265  -2.625 132.014  0.00  0.00    +0.000 A 
ATOM      5  C   UNL     1      -7.808  -2.435 130.730  0.00  0.00    +0.000 A 
ATOM      6  C   UNL     1      -7.329  -3.166 129.628  0.00  0.00    +0.000 A 
ATOM      7  C   UNL     1      -6.365  -4.148 129.881  0.00  0.00    +0.000 A 
ATOM      8  C   UNL     1      -5.851  -4.364 131.165  0.00  0.00    +0.000 A 
BRANCH   3  10
ATOM      9  C   UNL     1      -6.336  -5.000 134.137  0.00  0.00    +0.000 C 
ATOM     10  O   UNL     1      -5.890  -3.788 133.530  0.00  0.00    +0.000 OA
ENDBRANCH   3  10
ENDBRANCH   1   6
BRANCH   2  11
ATOM     11  C   UNL     1      -9.057  -3.274 126.162  0.00  0.00    +0.000 C 
ATOM     12  O   UNL     1      -9.857  -2.393 125.866  0.00  0.00    +0.000 OA
BRANCH  11  13
ATOM     13  O   UNL     1      -8.386  -4.074 125.282  0.00  0.00    +0.000 OA
BRANCH  13  14
ATOM     14  C   UNL     1      -7.631  -3.331 124.306  0.00  0.00    +0.000 C 
BRANCH  14  15
ATOM     15  C   UNL     1      -6.274  -2.876 124.863  0.00  0.00    +0.000 C 
BRANCH  15  16
ATOM     16  C   UNL     1      -5.202  -2.704 123.764  0.00  0.00    +0.000 C 
ATOM     17  C   UNL     1      -4.441  -4.006 123.506  0.00  0.00    +0.000 C 
ATOM     18  C   UNL     1      -5.835  -2.230 122.453  0.00  0.00    +0.000 C 
ENDBRANCH  15  16
ENDBRANCH  14  15
ENDBRANCH  13  14
ENDBRANCH  11  13
ENDBRANCH   2  11
TORSDOF 7
ENDMDL
MODEL 5
REMARK VINA RESULT:      -5.7      2.308      3.121
REMARK  Name = Amiloxate
REMARK  10 active torsions:
REMARK  status: ('A' for Active; 'I' for Inactive)
REMARK    1  A    between atoms: C_1  and  O_2
REMARK    2  A    between atoms: O_2  and  C_3
REMARK    3  A    between atoms: C_6  and  C_7
REMARK    4  A    between atoms: C_8  and  C_9
REMARK    5  A    between atoms: C_9  and  O_11
REMARK    6  A    between atoms: O_11  and  C_12
REMARK    7  A    between atoms: C_12  and  C_13
REMARK    8  A    between atoms: C_13  and  C_14
REMARK    9  A    between atoms: C_14  and  C_15
REMARK   10  A    between atoms: C_14  and  C_16
REMARK                            x       y       z     vdW  Elec       q    Type
REMARK                         _______ _______ _______ _____ _____    ______ ____
ROOT
ATOM      1  C   UNL     1      -7.485  -1.949 127.162  0.00  0.00    +0.000 C 
ATOM      2  C   UNL     1      -8.579  -2.591 126.705  0.00  0.00    +0.000 C 
ENDROOT
BRANCH   1   6
ATOM      3  C   UNL     1      -4.772  -3.609 130.088  0.00  0.00    +0.000 A 
ATOM      4  C   UNL     1      -4.289  -2.859 129.015  0.00  0.00    +0.000 A 
ATOM      5  C   UNL     1      -5.176  -2.262 128.101  0.00  0.00    +0.000 A 
ATOM      6  C   UNL     1      -6.563  -2.463 128.204  0.00  0.00    +0.000 A 
ATOM      7  C   UNL     1      -7.023  -3.198 129.302  0.00  0.00    +0.000 A 
ATOM      8  C   UNL     1      -6.145  -3.760 130.234  0.00  0.00    +0.000 A 
BRANCH   3  10
ATOM      9  C   UNL     1      -4.347  -4.322 132.303  0.00  0.00    +0.000 C 
ATOM     10  O   UNL     1      -3.850  -4.064 130.990  0.00  0.00    +0.000 OA
ENDBRANCH   3  10
ENDBRANCH   1   6
BRANCH   2  11
ATOM     11  C   UNL     1      -9.419  -2.026 125.622  0.00  0.00    +0.000 C 
ATOM     12  O   UNL     1      -9.780  -0.856 125.572  0.00  0.00    +0.000 OA
BRANCH  11  13
ATOM     13  O   UNL     1      -9.716  -2.996 124.707  0.00  0.00    +0.000 OA
BRANCH  13  14
ATOM     14  C   UNL     1      -8.586  -3.375 123.899  0.00  0.00    +0.000 C 
BRANCH  14  15
ATOM     15  C   UNL     1      -8.293  -2.334 122.808  0.00  0.00    +0.000 C 
BRANCH  15  16
ATOM     16  C   UNL     1      -6.862  -1.756 122.901  0.00  0.00    +0.000 C 
ATOM     17  C   UNL     1      -6.856  -0.357 123.521  0.00  0.00    +0.000 C 
ATOM     18  C   UNL     1      -5.956  -2.671 123.729  0.00  0.00    +0.000 C 
ENDBRANCH  15  16
ENDBRANCH  14  15
ENDBRANCH  13  14
ENDBRANCH  11  13
ENDBRANCH   2  11
TORSDOF 7
ENDMDL
MODEL 6
REMARK VINA RESULT:      -5.5      9.194     10.895
REMARK  Name = Amiloxate
REMARK  10 active torsions:
REMARK  status: ('A' for Active; 'I' for Inactive)
REMARK    1  A    between atoms: C_1  and  O_2
REMARK    2  A    between atoms: O_2  and  C_3
REMARK    3  A    between atoms: C_6  and  C_7
REMARK    4  A    between atoms: C_8  and  C_9
REMARK    5  A    between atoms: C_9  and  O_11
REMARK    6  A    between atoms: O_11  and  C_12
REMARK    7  A    between atoms: C_12  and  C_13
REMARK    8  A    between atoms: C_13  and  C_14
REMARK    9  A    between atoms: C_14  and  C_15
REMARK   10  A    between atoms: C_14  and  C_16
REMARK                            x       y       z     vdW  Elec       q    Type
REMARK                         _______ _______ _______ _____ _____    ______ ____
ROOT
ATOM      1  C   UNL     1      -6.485   6.710 131.285  0.00  0.00    +0.000 C 
ATOM      2  C   UNL     1      -5.615   6.195 132.177  0.00  0.00    +0.000 C 
ENDROOT
BRANCH   1   6
ATOM      3  C   UNL     1     -10.788   6.383 131.540  0.00  0.00    +0.000 A 
ATOM      4  C   UNL     1      -9.975   5.890 132.562  0.00  0.00    +0.000 A 
ATOM      5  C   UNL     1      -8.579   6.057 132.511  0.00  0.00    +0.000 A 
ATOM      6  C   UNL     1      -7.963   6.659 131.401  0.00  0.00    +0.000 A 
ATOM      7  C   UNL     1      -8.801   7.167 130.401  0.00  0.00    +0.000 A 
ATOM      8  C   UNL     1     -10.192   7.037 130.468  0.00  0.00    +0.000 A 
BRANCH   3  10
ATOM      9  C   UNL     1     -12.927   7.276 131.073  0.00  0.00    +0.000 C 
ATOM     10  O   UNL     1     -12.139   6.276 131.717  0.00  0.00    +0.000 OA
ENDBRANCH   3  10
ENDBRANCH   1   6
BRANCH   2  11
ATOM     11  C   UNL     1      -4.150   6.336 132.008  0.00  0.00    +0.000 C 
ATOM     12  O   UNL     1      -3.568   7.412 131.933  0.00  0.00    +0.000 OA
BRANCH  11  13
ATOM     13  O   UNL     1      -3.564   5.103 131.953  0.00  0.00    +0.000 OA
BRANCH  13  14
ATOM     14  C   UNL     1      -2.635   4.969 130.860  0.00  0.00    +0.000 C 
BRANCH  14  15
ATOM     15  C   UNL     1      -3.209   4.101 129.730  0.00  0.00    +0.000 C 
BRANCH  15  16
ATOM     16  C   UNL     1      -3.100   4.774 128.343  0.00  0.00    +0.000 C 
ATOM     17  C   UNL     1      -2.350   6.106 128.418  0.00  0.00    +0.000 C 
ATOM     18  C   UNL     1      -2.386   3.857 127.346  0.00  0.00    +0.000 C 
ENDBRANCH  15  16
ENDBRANCH  14  15
ENDBRANCH  13  14
ENDBRANCH  11  13
ENDBRANCH   2  11
TORSDOF 7
ENDMDL
MODEL 7
REMARK VINA RESULT:      -5.5      8.976     11.626
REMARK  Name = Amiloxate
REMARK  10 active torsions:
REMARK  status: ('A' for Active; 'I' for Inactive)
REMARK    1  A    between atoms: C_1  and  O_2
REMARK    2  A    between atoms: O_2  and  C_3
REMARK    3  A    between atoms: C_6  and  C_7
REMARK    4  A    between atoms: C_8  and  C_9
REMARK    5  A    between atoms: C_9  and  O_11
REMARK    6  A    between atoms: O_11  and  C_12
REMARK    7  A    between atoms: C_12  and  C_13
REMARK    8  A    between atoms: C_13  and  C_14
REMARK    9  A    between atoms: C_14  and  C_15
REMARK   10  A    between atoms: C_14  and  C_16
REMARK                            x       y       z     vdW  Elec       q    Type
REMARK                         _______ _______ _______ _____ _____    ______ ____
ROOT
ATOM      1  C   UNL     1      -9.497   6.299 130.918  0.00  0.00    +0.000 C 
ATOM      2  C   UNL     1      -8.260   6.665 131.313  0.00  0.00    +0.000 C 
ENDROOT
BRANCH   1   6
ATOM      3  C   UNL     1     -12.479   8.755 128.980  0.00  0.00    +0.000 A 
ATOM      4  C   UNL     1     -12.772   8.086 130.169  0.00  0.00    +0.000 A 
ATOM      5  C   UNL     1     -11.781   7.342 130.836  0.00  0.00    +0.000 A 
ATOM      6  C   UNL     1     -10.496   7.196 130.287  0.00  0.00    +0.000 A 
ATOM      7  C   UNL     1     -10.220   7.896 129.107  0.00  0.00    +0.000 A 
ATOM      8  C   UNL     1     -11.192   8.668 128.463  0.00  0.00    +0.000 A 
BRANCH   3  10
ATOM      9  C   UNL     1     -13.691  10.780 129.127  0.00  0.00    +0.000 C 
ATOM     10  O   UNL     1     -13.465   9.543 128.454  0.00  0.00    +0.000 OA
ENDBRANCH   3  10
ENDBRANCH   1   6
BRANCH   2  11
ATOM     11  C   UNL     1      -7.305   5.690 131.888  0.00  0.00    +0.000 C 
ATOM     12  O   UNL     1      -6.137   5.580 131.533  0.00  0.00    +0.000 OA
BRANCH  11  13
ATOM     13  O   UNL     1      -7.919   4.950 132.859  0.00  0.00    +0.000 OA
BRANCH  13  14
ATOM     14  C   UNL     1      -7.696   3.534 132.715  0.00  0.00    +0.000 C 
BRANCH  14  15
ATOM     15  C   UNL     1      -8.941   2.721 133.099  0.00  0.00    +0.000 C 
BRANCH  15  16
ATOM     16  C   UNL     1      -9.587   2.009 131.889  0.00  0.00    +0.000 C 
ATOM     17  C   UNL     1      -9.189   2.666 130.566  0.00  0.00    +0.000 C 
ATOM     18  C   UNL     1      -9.189   0.531 131.850  0.00  0.00    +0.000 C 
ENDBRANCH  15  16
ENDBRANCH  14  15
ENDBRANCH  13  14
ENDBRANCH  11  13
ENDBRANCH   2  11
TORSDOF 7
ENDMDL
MODEL 8
REMARK VINA RESULT:      -5.4      8.960     11.746
REMARK  Name = Amiloxate
REMARK  10 active torsions:
REMARK  status: ('A' for Active; 'I' for Inactive)
REMARK    1  A    between atoms: C_1  and  O_2
REMARK    2  A    between atoms: O_2  and  C_3
REMARK    3  A    between atoms: C_6  and  C_7
REMARK    4  A    between atoms: C_8  and  C_9
REMARK    5  A    between atoms: C_9  and  O_11
REMARK    6  A    between atoms: O_11  and  C_12
REMARK    7  A    between atoms: C_12  and  C_13
REMARK    8  A    between atoms: C_13  and  C_14
REMARK    9  A    between atoms: C_14  and  C_15
REMARK   10  A    between atoms: C_14  and  C_16
REMARK                            x       y       z     vdW  Elec       q    Type
REMARK                         _______ _______ _______ _____ _____    ______ ____
ROOT
ATOM      1  C   UNL     1     -10.090   5.301 130.194  0.00  0.00    +0.000 C 
ATOM      2  C   UNL     1     -10.610   4.133 130.621  0.00  0.00    +0.000 C 
ENDROOT
BRANCH   1   6
ATOM      3  C   UNL     1     -12.471   8.780 129.240  0.00  0.00    +0.000 A 
ATOM      4  C   UNL     1     -12.815   7.955 130.312  0.00  0.00    +0.000 A 
ATOM      5  C   UNL     1     -12.002   6.862 130.665  0.00  0.00    +0.000 A 
ATOM      6  C   UNL     1     -10.866   6.532 129.906  0.00  0.00    +0.000 A 
ATOM      7  C   UNL     1     -10.529   7.388 128.852  0.00  0.00    +0.000 A 
ATOM      8  C   UNL     1     -11.315   8.498 128.523  0.00  0.00    +0.000 A 
BRANCH   3  10
ATOM      9  C   UNL     1     -13.317  10.808 130.114  0.00  0.00    +0.000 C 
ATOM     10  O   UNL     1     -13.254   9.881 129.031  0.00  0.00    +0.000 OA
ENDBRANCH   3  10
ENDBRANCH   1   6
BRANCH   2  11
ATOM     11  C   UNL     1      -9.754   2.966 130.935  0.00  0.00    +0.000 C 
ATOM     12  O   UNL     1      -9.098   2.351 130.102  0.00  0.00    +0.000 OA
BRANCH  11  13
ATOM     13  O   UNL     1      -9.806   2.693 132.273  0.00  0.00    +0.000 OA
BRANCH  13  14
ATOM     14  C   UNL     1      -8.560   2.944 132.950  0.00  0.00    +0.000 C 
BRANCH  14  15
ATOM     15  C   UNL     1      -8.751   3.851 134.174  0.00  0.00    +0.000 C 
BRANCH  15  16
ATOM     16  C   UNL     1      -7.581   4.840 134.375  0.00  0.00    +0.000 C 
ATOM     17  C   UNL     1      -7.444   5.804 133.194  0.00  0.00    +0.000 C 
ATOM     18  C   UNL     1      -7.767   5.651 135.660  0.00  0.00    +0.000 C 
ENDBRANCH  15  16
ENDBRANCH  14  15
ENDBRANCH  13  14
ENDBRANCH  11  13
ENDBRANCH   2  11
TORSDOF 7
ENDMDL
MODEL 9
REMARK VINA RESULT:      -5.4      9.106     11.409
REMARK  Name = Amiloxate
REMARK  10 active torsions:
REMARK  status: ('A' for Active; 'I' for Inactive)
REMARK    1  A    between atoms: C_1  and  O_2
REMARK    2  A    between atoms: O_2  and  C_3
REMARK    3  A    between atoms: C_6  and  C_7
REMARK    4  A    between atoms: C_8  and  C_9
REMARK    5  A    between atoms: C_9  and  O_11
REMARK    6  A    between atoms: O_11  and  C_12
REMARK    7  A    between atoms: C_12  and  C_13
REMARK    8  A    between atoms: C_13  and  C_14
REMARK    9  A    between atoms: C_14  and  C_15
REMARK   10  A    between atoms: C_14  and  C_16
REMARK                            x       y       z     vdW  Elec       q    Type
REMARK                         _______ _______ _______ _____ _____    ______ ____
ROOT
ATOM      1  C   UNL     1      -8.092   6.560 131.613  0.00  0.00    +0.000 C 
ATOM      2  C   UNL     1      -7.166   5.697 131.149  0.00  0.00    +0.000 C 
ENDROOT
BRANCH   1   6
ATOM      3  C   UNL     1     -12.016   7.358 129.986  0.00  0.00    +0.000 A 
ATOM      4  C   UNL     1     -10.867   7.737 129.291  0.00  0.00    +0.000 A 
ATOM      5  C   UNL     1      -9.590   7.417 129.787  0.00  0.00    +0.000 A 
ATOM      6  C   UNL     1      -9.438   6.772 131.026  0.00  0.00    +0.000 A 
ATOM      7  C   UNL     1     -10.605   6.382 131.693  0.00  0.00    +0.000 A 
ATOM      8  C   UNL     1     -11.876   6.665 131.182  0.00  0.00    +0.000 A 
BRANCH   3  10
ATOM      9  C   UNL     1     -13.227   8.699 128.460  0.00  0.00    +0.000 C 
ATOM     10  O   UNL     1     -13.217   7.611 129.383  0.00  0.00    +0.000 OA
ENDBRANCH   3  10
ENDBRANCH   1   6
BRANCH   2  11
ATOM     11  C   UNL     1      -5.863   5.511 131.829  0.00  0.00    +0.000 C 
ATOM     12  O   UNL     1      -5.231   6.415 132.362  0.00  0.00    +0.000 OA
BRANCH  11  13
ATOM     13  O   UNL     1      -5.489   4.198 131.772  0.00  0.00    +0.000 OA
BRANCH  13  14
ATOM     14  C   UNL     1      -6.606   3.290 131.824  0.00  0.00    +0.000 C 
BRANCH  14  15
ATOM     15  C   UNL     1      -6.813   2.725 133.237  0.00  0.00    +0.000 C 
BRANCH  15  16
ATOM     16  C   UNL     1      -8.219   3.027 133.803  0.00  0.00    +0.000 C 
ATOM     17  C   UNL     1      -8.266   4.387 134.504  0.00  0.00    +0.000 C 
ATOM     18  C   UNL     1      -9.272   3.003 132.692  0.00  0.00    +0.000 C 
ENDBRANCH  15  16
ENDBRANCH  14  15
ENDBRANCH  13  14
ENDBRANCH  11  13
ENDBRANCH   2  11
TORSDOF 7
ENDMDL
