MODEL 1
REMARK VINA RESULT:      -4.7      0.000      0.000
REMARK  Name = Aminolevulinic acid
REMARK  6 active torsions:
REMARK  status: ('A' for Active; 'I' for Inactive)
REMARK    1  A    between atoms: N_1  and  C_2
REMARK    2  A    between atoms: C_2  and  C_3
REMARK    3  A    between atoms: C_3  and  C_5
REMARK    4  A    between atoms: C_5  and  C_6
REMARK    5  A    between atoms: C_6  and  C_7
REMARK    6  A    between atoms: C_7  and  O_8
REMARK                            x       y       z     vdW  Elec       q    Type
REMARK                         _______ _______ _______ _____ _____    ______ ____
ROOT
ATOM      1  C   UNL     1     -12.499   6.794 129.598  0.00  0.00    +0.000 C 
ATOM      2  O   UNL     1     -12.180   5.661 129.235  0.00  0.00    +0.000 OA
ENDROOT
BRANCH   1   3
ATOM      3  C   UNL     1     -12.597   7.199 131.073  0.00  0.00    +0.000 C 
BRANCH   3   4
ATOM      4  N   UNL     1     -11.995   6.173 131.922  0.00  0.00    +0.000 NA
ATOM      5  H   UNL     1     -12.631   5.394 132.071  0.00  0.00    +0.000 HD
ATOM      6  H   UNL     1     -11.781   6.579 132.835  0.00  0.00    +0.000 HD
ENDBRANCH   3   4
ENDBRANCH   1   3
BRANCH   1   7
ATOM      7  C   UNL     1     -12.767   7.896 128.588  0.00  0.00    +0.000 C 
BRANCH   7   8
ATOM      8  C   UNL     1     -11.513   8.240 127.797  0.00  0.00    +0.000 C 
BRANCH   8   9
ATOM      9  C   UNL     1     -11.374   7.592 126.440  0.00  0.00    +0.000 C 
ATOM     10  O   UNL     1     -10.688   8.089 125.554  0.00  0.00    +0.000 OA
BRANCH   9  11
ATOM     11  O   UNL     1     -12.037   6.440 126.233  0.00  0.00    +0.000 OA
ATOM     12  H   UNL     1     -12.281   6.202 125.325  0.00  0.00    +0.000 HD
ENDBRANCH   9  11
ENDBRANCH   8   9
ENDBRANCH   7   8
ENDBRANCH   1   7
TORSDOF 6
ENDMDL
MODEL 2
REMARK VINA RESULT:      -4.6      2.655      2.807
REMARK  Name = Aminolevulinic acid
REMARK  6 active torsions:
REMARK  status: ('A' for Active; 'I' for Inactive)
REMARK    1  A    between atoms: N_1  and  C_2
REMARK    2  A    between atoms: C_2  and  C_3
REMARK    3  A    between atoms: C_3  and  C_5
REMARK    4  A    between atoms: C_5  and  C_6
REMARK    5  A    between atoms: C_6  and  C_7
REMARK    6  A    between atoms: C_7  and  O_8
REMARK                            x       y       z     vdW  Elec       q    Type
REMARK                         _______ _______ _______ _____ _____    ______ ____
ROOT
ATOM      1  C   UNL     1     -12.855   8.958 128.846  0.00  0.00    +0.000 C 
ATOM      2  O   UNL     1     -13.703   8.596 128.028  0.00  0.00    +0.000 OA
ENDROOT
BRANCH   1   3
ATOM      3  C   UNL     1     -13.116  10.054 129.886  0.00  0.00    +0.000 C 
BRANCH   3   4
ATOM      4  N   UNL     1     -13.238  11.356 129.233  0.00  0.00    +0.000 NA
ATOM      5  H   UNL     1     -13.217  12.114 129.909  0.00  0.00    +0.000 HD
ATOM      6  H   UNL     1     -14.133  11.400 128.742  0.00  0.00    +0.000 HD
ENDBRANCH   3   4
ENDBRANCH   1   3
BRANCH   1   7
ATOM      7  C   UNL     1     -11.492   8.294 128.910  0.00  0.00    +0.000 C 
BRANCH   7   8
ATOM      8  C   UNL     1     -10.780   8.357 127.565  0.00  0.00    +0.000 C 
BRANCH   8   9
ATOM      9  C   UNL     1     -10.823   7.106 126.722  0.00  0.00    +0.000 C 
ATOM     10  O   UNL     1      -9.822   6.427 126.521  0.00  0.00    +0.000 OA
BRANCH   9  11
ATOM     11  O   UNL     1     -12.008   6.758 126.189  0.00  0.00    +0.000 OA
ATOM     12  H   UNL     1     -12.815   7.158 126.551  0.00  0.00    +0.000 HD
ENDBRANCH   9  11
ENDBRANCH   8   9
ENDBRANCH   7   8
ENDBRANCH   1   7
TORSDOF 6
ENDMDL
MODEL 3
REMARK VINA RESULT:      -4.6      2.435      4.094
REMARK  Name = Aminolevulinic acid
REMARK  6 active torsions:
REMARK  status: ('A' for Active; 'I' for Inactive)
REMARK    1  A    between atoms: N_1  and  C_2
REMARK    2  A    between atoms: C_2  and  C_3
REMARK    3  A    between atoms: C_3  and  C_5
REMARK    4  A    between atoms: C_5  and  C_6
REMARK    5  A    between atoms: C_6  and  C_7
REMARK    6  A    between atoms: C_7  and  O_8
REMARK                            x       y       z     vdW  Elec       q    Type
REMARK                         _______ _______ _______ _____ _____    ______ ____
ROOT
ATOM      1  C   UNL     1     -10.997   8.292 127.816  0.00  0.00    +0.000 C 
ATOM      2  O   UNL     1      -9.962   8.637 128.387  0.00  0.00    +0.000 OA
ENDROOT
BRANCH   1   3
ATOM      3  C   UNL     1     -11.007   7.655 126.421  0.00  0.00    +0.000 C 
BRANCH   3   4
ATOM      4  N   UNL     1     -12.084   6.672 126.320  0.00  0.00    +0.000 NA
ATOM      5  H   UNL     1     -12.146   6.284 125.383  0.00  0.00    +0.000 HD
ATOM      6  H   UNL     1     -12.974   7.131 126.526  0.00  0.00    +0.000 HD
ENDBRANCH   3   4
ENDBRANCH   1   3
BRANCH   1   7
ATOM      7  C   UNL     1     -12.350   8.429 128.493  0.00  0.00    +0.000 C 
BRANCH   7   8
ATOM      8  C   UNL     1     -12.282   8.014 129.956  0.00  0.00    +0.000 C 
BRANCH   8   9
ATOM      9  C   UNL     1     -12.260   6.531 130.236  0.00  0.00    +0.000 C 
ATOM     10  O   UNL     1     -12.246   5.703 129.332  0.00  0.00    +0.000 OA
BRANCH   9  11
ATOM     11  O   UNL     1     -12.260   6.143 131.524  0.00  0.00    +0.000 OA
ATOM     12  H   UNL     1     -11.486   5.666 131.865  0.00  0.00    +0.000 HD
ENDBRANCH   9  11
ENDBRANCH   8   9
ENDBRANCH   7   8
ENDBRANCH   1   7
TORSDOF 6
ENDMDL
MODEL 4
REMARK VINA RESULT:      -4.4      1.843      1.905
REMARK  Name = Aminolevulinic acid
REMARK  6 active torsions:
REMARK  status: ('A' for Active; 'I' for Inactive)
REMARK    1  A    between atoms: N_1  and  C_2
REMARK    2  A    between atoms: C_2  and  C_3
REMARK    3  A    between atoms: C_3  and  C_5
REMARK    4  A    between atoms: C_5  and  C_6
REMARK    5  A    between atoms: C_6  and  C_7
REMARK    6  A    between atoms: C_7  and  O_8
REMARK                            x       y       z     vdW  Elec       q    Type
REMARK                         _______ _______ _______ _____ _____    ______ ____
ROOT
ATOM      1  C   UNL     1     -12.717   8.584 129.604  0.00  0.00    +0.000 C 
ATOM      2  O   UNL     1     -12.958   9.580 130.287  0.00  0.00    +0.000 OA
ENDROOT
BRANCH   1   3
ATOM      3  C   UNL     1     -12.801   7.156 130.156  0.00  0.00    +0.000 C 
BRANCH   3   4
ATOM      4  N   UNL     1     -13.048   7.183 131.597  0.00  0.00    +0.000 NA
ATOM      5  H   UNL     1     -13.067   8.134 131.953  0.00  0.00    +0.000 HD
ATOM      6  H   UNL     1     -12.292   6.687 132.073  0.00  0.00    +0.000 HD
ENDBRANCH   3   4
ENDBRANCH   1   3
BRANCH   1   7
ATOM      7  C   UNL     1     -12.368   8.706 128.131  0.00  0.00    +0.000 C 
BRANCH   7   8
ATOM      8  C   UNL     1     -10.914   8.333 127.874  0.00  0.00    +0.000 C 
BRANCH   8   9
ATOM      9  C   UNL     1     -10.675   7.098 127.039  0.00  0.00    +0.000 C 
ATOM     10  O   UNL     1      -9.663   6.417 127.166  0.00  0.00    +0.000 OA
BRANCH   9  11
ATOM     11  O   UNL     1     -11.617   6.767 126.137  0.00  0.00    +0.000 OA
ATOM     12  H   UNL     1     -12.543   6.734 126.425  0.00  0.00    +0.000 HD
ENDBRANCH   9  11
ENDBRANCH   8   9
ENDBRANCH   7   8
ENDBRANCH   1   7
TORSDOF 6
ENDMDL
MODEL 5
REMARK VINA RESULT:      -4.2      2.592      4.383
REMARK  Name = Aminolevulinic acid
REMARK  6 active torsions:
REMARK  status: ('A' for Active; 'I' for Inactive)
REMARK    1  A    between atoms: N_1  and  C_2
REMARK    2  A    between atoms: C_2  and  C_3
REMARK    3  A    between atoms: C_3  and  C_5
REMARK    4  A    between atoms: C_5  and  C_6
REMARK    5  A    between atoms: C_6  and  C_7
REMARK    6  A    between atoms: C_7  and  O_8
REMARK                            x       y       z     vdW  Elec       q    Type
REMARK                         _______ _______ _______ _____ _____    ______ ____
ROOT
ATOM      1  C   UNL     1     -12.064   7.185 128.590  0.00  0.00    +0.000 C 
ATOM      2  O   UNL     1     -12.670   6.113 128.557  0.00  0.00    +0.000 OA
ENDROOT
BRANCH   1   3
ATOM      3  C   UNL     1     -11.354   7.779 127.368  0.00  0.00    +0.000 C 
BRANCH   3   4
ATOM      4  N   UNL     1     -11.435   6.857 126.237  0.00  0.00    +0.000 NA
ATOM      5  H   UNL     1     -10.933   5.994 126.424  0.00  0.00    +0.000 HD
ATOM      6  H   UNL     1     -11.007   7.295 125.419  0.00  0.00    +0.000 HD
ENDBRANCH   3   4
ENDBRANCH   1   3
BRANCH   1   7
ATOM      7  C   UNL     1     -12.026   8.027 129.854  0.00  0.00    +0.000 C 
BRANCH   7   8
ATOM      8  C   UNL     1     -12.477   7.225 131.067  0.00  0.00    +0.000 C 
BRANCH   8   9
ATOM      9  C   UNL     1     -11.463   6.282 131.666  0.00  0.00    +0.000 C 
ATOM     10  O   UNL     1     -10.710   6.629 132.570  0.00  0.00    +0.000 OA
BRANCH   9  11
ATOM     11  O   UNL     1     -11.408   5.033 131.168  0.00  0.00    +0.000 OA
ATOM     12  H   UNL     1     -12.103   4.403 131.418  0.00  0.00    +0.000 HD
ENDBRANCH   9  11
ENDBRANCH   8   9
ENDBRANCH   7   8
ENDBRANCH   1   7
TORSDOF 6
ENDMDL
MODEL 6
REMARK VINA RESULT:      -4.2      1.544      1.690
REMARK  Name = Aminolevulinic acid
REMARK  6 active torsions:
REMARK  status: ('A' for Active; 'I' for Inactive)
REMARK    1  A    between atoms: N_1  and  C_2
REMARK    2  A    between atoms: C_2  and  C_3
REMARK    3  A    between atoms: C_3  and  C_5
REMARK    4  A    between atoms: C_5  and  C_6
REMARK    5  A    between atoms: C_6  and  C_7
REMARK    6  A    between atoms: C_7  and  O_8
REMARK                            x       y       z     vdW  Elec       q    Type
REMARK                         _______ _______ _______ _____ _____    ______ ____
ROOT
ATOM      1  C   UNL     1     -12.426   6.825 130.755  0.00  0.00    +0.000 C 
ATOM      2  O   UNL     1     -13.230   7.285 131.567  0.00  0.00    +0.000 OA
ENDROOT
BRANCH   1   3
ATOM      3  C   UNL     1     -10.988   6.447 131.129  0.00  0.00    +0.000 C 
BRANCH   3   4
ATOM      4  N   UNL     1     -10.932   5.965 132.508  0.00  0.00    +0.000 NA
ATOM      5  H   UNL     1      -9.993   6.040 132.889  0.00  0.00    +0.000 HD
ATOM      6  H   UNL     1     -11.198   4.979 132.527  0.00  0.00    +0.000 HD
ENDBRANCH   3   4
ENDBRANCH   1   3
BRANCH   1   7
ATOM      7  C   UNL     1     -12.832   6.548 129.318  0.00  0.00    +0.000 C 
BRANCH   7   8
ATOM      8  C   UNL     1     -12.334   7.640 128.382  0.00  0.00    +0.000 C 
BRANCH   8   9
ATOM      9  C   UNL     1     -11.236   7.254 127.421  0.00  0.00    +0.000 C 
ATOM     10  O   UNL     1     -10.052   7.421 127.690  0.00  0.00    +0.000 OA
BRANCH   9  11
ATOM     11  O   UNL     1     -11.604   6.715 126.243  0.00  0.00    +0.000 OA
ATOM     12  H   UNL     1     -12.521   6.417 126.136  0.00  0.00    +0.000 HD
ENDBRANCH   9  11
ENDBRANCH   8   9
ENDBRANCH   7   8
ENDBRANCH   1   7
TORSDOF 6
ENDMDL
MODEL 7
REMARK VINA RESULT:      -4.1      3.035      4.658
REMARK  Name = Aminolevulinic acid
REMARK  6 active torsions:
REMARK  status: ('A' for Active; 'I' for Inactive)
REMARK    1  A    between atoms: N_1  and  C_2
REMARK    2  A    between atoms: C_2  and  C_3
REMARK    3  A    between atoms: C_3  and  C_5
REMARK    4  A    between atoms: C_5  and  C_6
REMARK    5  A    between atoms: C_6  and  C_7
REMARK    6  A    between atoms: C_7  and  O_8
REMARK                            x       y       z     vdW  Elec       q    Type
REMARK                         _______ _______ _______ _____ _____    ______ ____
ROOT
ATOM      1  C   UNL     1     -10.520   7.057 128.185  0.00  0.00    +0.000 C 
ATOM      2  O   UNL     1      -9.692   6.318 127.652  0.00  0.00    +0.000 OA
ENDROOT
BRANCH   1   3
ATOM      3  C   UNL     1     -11.920   7.295 127.606  0.00  0.00    +0.000 C 
BRANCH   3   4
ATOM      4  N   UNL     1     -12.010   6.748 126.254  0.00  0.00    +0.000 NA
ATOM      5  H   UNL     1     -12.913   6.314 126.088  0.00  0.00    +0.000 HD
ATOM      6  H   UNL     1     -11.292   6.030 126.137  0.00  0.00    +0.000 HD
ENDBRANCH   3   4
ENDBRANCH   1   3
BRANCH   1   7
ATOM      7  C   UNL     1     -10.220   7.751 129.502  0.00  0.00    +0.000 C 
BRANCH   7   8
ATOM      8  C   UNL     1      -9.804   6.752 130.573  0.00  0.00    +0.000 C 
BRANCH   8   9
ATOM      9  C   UNL     1     -10.826   6.448 131.642  0.00  0.00    +0.000 C 
ATOM     10  O   UNL     1     -12.005   6.251 131.373  0.00  0.00    +0.000 OA
BRANCH   9  11
ATOM     11  O   UNL     1     -10.394   6.401 132.916  0.00  0.00    +0.000 OA
ATOM     12  H   UNL     1     -11.011   6.643 133.624  0.00  0.00    +0.000 HD
ENDBRANCH   9  11
ENDBRANCH   8   9
ENDBRANCH   7   8
ENDBRANCH   1   7
TORSDOF 6
ENDMDL
MODEL 8
REMARK VINA RESULT:      -4.1      2.759      4.266
REMARK  Name = Aminolevulinic acid
REMARK  6 active torsions:
REMARK  status: ('A' for Active; 'I' for Inactive)
REMARK    1  A    between atoms: N_1  and  C_2
REMARK    2  A    between atoms: C_2  and  C_3
REMARK    3  A    between atoms: C_3  and  C_5
REMARK    4  A    between atoms: C_5  and  C_6
REMARK    5  A    between atoms: C_6  and  C_7
REMARK    6  A    between atoms: C_7  and  O_8
REMARK                            x       y       z     vdW  Elec       q    Type
REMARK                         _______ _______ _______ _____ _____    ______ ____
ROOT
ATOM      1  C   UNL     1     -12.423   8.556 129.034  0.00  0.00    +0.000 C 
ATOM      2  O   UNL     1     -12.802   9.673 129.386  0.00  0.00    +0.000 OA
ENDROOT
BRANCH   1   3
ATOM      3  C   UNL     1     -11.329   8.340 127.982  0.00  0.00    +0.000 C 
BRANCH   3   4
ATOM      4  N   UNL     1     -10.026   8.192 128.627  0.00  0.00    +0.000 NA
ATOM      5  H   UNL     1      -9.271   8.480 128.011  0.00  0.00    +0.000 HD
ATOM      6  H   UNL     1      -9.879   7.208 128.860  0.00  0.00    +0.000 HD
ENDBRANCH   3   4
ENDBRANCH   1   3
BRANCH   1   7
ATOM      7  C   UNL     1     -12.988   7.298 129.671  0.00  0.00    +0.000 C 
BRANCH   7   8
ATOM      8  C   UNL     1     -12.535   7.158 131.118  0.00  0.00    +0.000 C 
BRANCH   8   9
ATOM      9  C   UNL     1     -11.358   6.246 131.368  0.00  0.00    +0.000 C 
ATOM     10  O   UNL     1     -10.691   5.783 130.450  0.00  0.00    +0.000 OA
BRANCH   9  11
ATOM     11  O   UNL     1     -11.062   5.954 132.648  0.00  0.00    +0.000 OA
ATOM     12  H   UNL     1     -10.891   6.684 133.264  0.00  0.00    +0.000 HD
ENDBRANCH   9  11
ENDBRANCH   8   9
ENDBRANCH   7   8
ENDBRANCH   1   7
TORSDOF 6
ENDMDL
MODEL 9
REMARK VINA RESULT:      -4.0      2.660      3.316
REMARK  Name = Aminolevulinic acid
REMARK  6 active torsions:
REMARK  status: ('A' for Active; 'I' for Inactive)
REMARK    1  A    between atoms: N_1  and  C_2
REMARK    2  A    between atoms: C_2  and  C_3
REMARK    3  A    between atoms: C_3  and  C_5
REMARK    4  A    between atoms: C_5  and  C_6
REMARK    5  A    between atoms: C_6  and  C_7
REMARK    6  A    between atoms: C_7  and  O_8
REMARK                            x       y       z     vdW  Elec       q    Type
REMARK                         _______ _______ _______ _____ _____    ______ ____
ROOT
ATOM      1  C   UNL     1     -11.156   5.774 130.036  0.00  0.00    +0.000 C 
ATOM      2  O   UNL     1     -11.566   4.623 129.878  0.00  0.00    +0.000 OA
ENDROOT
BRANCH   1   3
ATOM      3  C   UNL     1      -9.812   6.263 129.485  0.00  0.00    +0.000 C 
BRANCH   3   4
ATOM      4  N   UNL     1      -9.904   6.481 128.042  0.00  0.00    +0.000 NA
ATOM      5  H   UNL     1      -9.885   7.472 127.815  0.00  0.00    +0.000 HD
ATOM      6  H   UNL     1     -10.790   6.100 127.703  0.00  0.00    +0.000 HD
ENDBRANCH   3   4
ENDBRANCH   1   3
BRANCH   1   7
ATOM      7  C   UNL     1     -11.997   6.815 130.754  0.00  0.00    +0.000 C 
BRANCH   7   8
ATOM      8  C   UNL     1     -12.954   7.512 129.797  0.00  0.00    +0.000 C 
BRANCH   8   9
ATOM      9  C   UNL     1     -12.568   8.903 129.354  0.00  0.00    +0.000 C 
ATOM     10  O   UNL     1     -13.023   9.904 129.895  0.00  0.00    +0.000 OA
BRANCH   9  11
ATOM     11  O   UNL     1     -11.699   9.008 128.331  0.00  0.00    +0.000 OA
ATOM     12  H   UNL     1     -11.624   9.860 127.873  0.00  0.00    +0.000 HD
ENDBRANCH   9  11
ENDBRANCH   8   9
ENDBRANCH   7   8
ENDBRANCH   1   7
TORSDOF 6
ENDMDL
