MODEL 1
REMARK VINA RESULT:      -5.3      0.000      0.000
REMARK  Name = Aminobenzoic acid
REMARK  3 active torsions:
REMARK  status: ('A' for Active; 'I' for Inactive)
REMARK    1  A    between atoms: N_1  and  C_2
REMARK    2  A    between atoms: C_5  and  C_8
REMARK    3  A    between atoms: C_8  and  O_9
REMARK                            x       y       z     vdW  Elec       q    Type
REMARK                         _______ _______ _______ _____ _____    ______ ____
ROOT
ATOM      1  C   UNL     1     -10.562   6.226 131.865  0.00  0.00    +0.000 A 
ATOM      2  C   UNL     1      -9.529   6.622 131.016  0.00  0.00    +0.000 A 
ATOM      3  C   UNL     1      -9.781   7.390 129.871  0.00  0.00    +0.000 A 
ATOM      4  C   UNL     1     -11.087   7.781 129.558  0.00  0.00    +0.000 A 
ATOM      5  C   UNL     1     -12.126   7.390 130.418  0.00  0.00    +0.000 A 
ATOM      6  C   UNL     1     -11.861   6.630 131.565  0.00  0.00    +0.000 A 
ENDROOT
BRANCH   1   7
ATOM      7  N   UNL     1     -10.289   5.511 133.015  0.00  0.00    +0.000 N 
ATOM      8  H   UNL     1     -10.914   5.554 133.809  0.00  0.00    +0.000 HD
ATOM      9  H   UNL     1      -9.388   5.072 133.145  0.00  0.00    +0.000 HD
ENDBRANCH   1   7
BRANCH   4  10
ATOM     10  C   UNL     1     -11.450   8.595 128.358  0.00  0.00    +0.000 C 
ATOM     11  O   UNL     1     -10.838   8.498 127.302  0.00  0.00    +0.000 OA
BRANCH  10  12
ATOM     12  O   UNL     1     -12.487   9.447 128.486  0.00  0.00    +0.000 OA
ATOM     13  H   UNL     1     -13.106   9.537 127.745  0.00  0.00    +0.000 HD
ENDBRANCH  10  12
ENDBRANCH   4  10
TORSDOF 3
ENDMDL
MODEL 2
REMARK VINA RESULT:      -5.2     10.645     11.633
REMARK  Name = Aminobenzoic acid
REMARK  3 active torsions:
REMARK  status: ('A' for Active; 'I' for Inactive)
REMARK    1  A    between atoms: N_1  and  C_2
REMARK    2  A    between atoms: C_5  and  C_8
REMARK    3  A    between atoms: C_8  and  O_9
REMARK                            x       y       z     vdW  Elec       q    Type
REMARK                         _______ _______ _______ _____ _____    ______ ____
ROOT
ATOM      1  C   UNL     1      -6.110   5.226 118.915  0.00  0.00    +0.000 A 
ATOM      2  C   UNL     1      -5.221   5.076 119.979  0.00  0.00    +0.000 A 
ATOM      3  C   UNL     1      -5.579   4.365 121.133  0.00  0.00    +0.000 A 
ATOM      4  C   UNL     1      -6.847   3.784 121.238  0.00  0.00    +0.000 A 
ATOM      5  C   UNL     1      -7.739   3.927 120.162  0.00  0.00    +0.000 A 
ATOM      6  C   UNL     1      -7.367   4.632 119.010  0.00  0.00    +0.000 A 
ENDROOT
BRANCH   1   7
ATOM      7  N   UNL     1      -5.722   5.887 117.766  0.00  0.00    +0.000 N 
ATOM      8  H   UNL     1      -4.743   6.041 117.565  0.00  0.00    +0.000 HD
ATOM      9  H   UNL     1      -6.404   6.370 117.197  0.00  0.00    +0.000 HD
ENDBRANCH   1   7
BRANCH   4  10
ATOM     10  C   UNL     1      -7.317   3.014 122.430  0.00  0.00    +0.000 C 
ATOM     11  O   UNL     1      -6.833   1.930 122.730  0.00  0.00    +0.000 OA
BRANCH  10  12
ATOM     12  O   UNL     1      -8.303   3.565 123.165  0.00  0.00    +0.000 OA
ATOM     13  H   UNL     1      -8.133   3.747 124.103  0.00  0.00    +0.000 HD
ENDBRANCH  10  12
ENDBRANCH   4  10
TORSDOF 3
ENDMDL
MODEL 3
REMARK VINA RESULT:      -5.2      3.381      4.466
REMARK  Name = Aminobenzoic acid
REMARK  3 active torsions:
REMARK  status: ('A' for Active; 'I' for Inactive)
REMARK    1  A    between atoms: N_1  and  C_2
REMARK    2  A    between atoms: C_5  and  C_8
REMARK    3  A    between atoms: C_8  and  O_9
REMARK                            x       y       z     vdW  Elec       q    Type
REMARK                         _______ _______ _______ _____ _____    ______ ____
ROOT
ATOM      1  C   UNL     1     -11.384   7.658 127.153  0.00  0.00    +0.000 A 
ATOM      2  C   UNL     1     -12.603   7.048 127.450  0.00  0.00    +0.000 A 
ATOM      3  C   UNL     1     -13.002   6.826 128.774  0.00  0.00    +0.000 A 
ATOM      4  C   UNL     1     -12.178   7.216 129.835  0.00  0.00    +0.000 A 
ATOM      5  C   UNL     1     -10.954   7.839 129.536  0.00  0.00    +0.000 A 
ATOM      6  C   UNL     1     -10.570   8.065 128.208  0.00  0.00    +0.000 A 
ENDROOT
BRANCH   1   7
ATOM      7  N   UNL     1     -11.029   7.915 125.843  0.00  0.00    +0.000 N 
ATOM      8  H   UNL     1     -10.235   7.451 125.424  0.00  0.00    +0.000 HD
ATOM      9  H   UNL     1     -11.448   8.685 125.339  0.00  0.00    +0.000 HD
ENDBRANCH   1   7
BRANCH   4  10
ATOM     10  C   UNL     1     -12.519   7.015 131.276  0.00  0.00    +0.000 C 
ATOM     11  O   UNL     1     -13.264   7.778 131.877  0.00  0.00    +0.000 OA
BRANCH  10  12
ATOM     12  O   UNL     1     -11.968   5.950 131.893  0.00  0.00    +0.000 OA
ATOM     13  H   UNL     1     -11.029   5.762 131.739  0.00  0.00    +0.000 HD
ENDBRANCH  10  12
ENDBRANCH   4  10
TORSDOF 3
ENDMDL
MODEL 4
REMARK VINA RESULT:      -5.2      2.209      3.152
REMARK  Name = Aminobenzoic acid
REMARK  3 active torsions:
REMARK  status: ('A' for Active; 'I' for Inactive)
REMARK    1  A    between atoms: N_1  and  C_2
REMARK    2  A    between atoms: C_5  and  C_8
REMARK    3  A    between atoms: C_8  and  O_9
REMARK                            x       y       z     vdW  Elec       q    Type
REMARK                         _______ _______ _______ _____ _____    ______ ____
ROOT
ATOM      1  C   UNL     1     -12.522   7.502 130.229  0.00  0.00    +0.000 A 
ATOM      2  C   UNL     1     -13.296   7.337 129.081  0.00  0.00    +0.000 A 
ATOM      3  C   UNL     1     -12.710   7.256 127.811  0.00  0.00    +0.000 A 
ATOM      4  C   UNL     1     -11.321   7.338 127.669  0.00  0.00    +0.000 A 
ATOM      5  C   UNL     1     -10.539   7.495 128.826  0.00  0.00    +0.000 A 
ATOM      6  C   UNL     1     -11.136   7.564 130.092  0.00  0.00    +0.000 A 
ENDROOT
BRANCH   1   7
ATOM      7  N   UNL     1     -13.113   7.529 131.477  0.00  0.00    +0.000 N 
ATOM      8  H   UNL     1     -12.748   6.965 132.232  0.00  0.00    +0.000 HD
ATOM      9  H   UNL     1     -14.009   7.978 131.610  0.00  0.00    +0.000 HD
ENDBRANCH   1   7
BRANCH   4  10
ATOM     10  C   UNL     1     -10.609   7.267 126.357  0.00  0.00    +0.000 C 
ATOM     11  O   UNL     1     -10.857   8.046 125.445  0.00  0.00    +0.000 OA
BRANCH  10  12
ATOM     12  O   UNL     1      -9.676   6.304 126.217  0.00  0.00    +0.000 OA
ATOM     13  H   UNL     1      -8.922   6.299 126.827  0.00  0.00    +0.000 HD
ENDBRANCH  10  12
ENDBRANCH   4  10
TORSDOF 3
ENDMDL
MODEL 5
REMARK VINA RESULT:      -5.1      3.485      4.252
REMARK  Name = Aminobenzoic acid
REMARK  3 active torsions:
REMARK  status: ('A' for Active; 'I' for Inactive)
REMARK    1  A    between atoms: N_1  and  C_2
REMARK    2  A    between atoms: C_5  and  C_8
REMARK    3  A    between atoms: C_8  and  O_9
REMARK                            x       y       z     vdW  Elec       q    Type
REMARK                         _______ _______ _______ _____ _____    ______ ____
ROOT
ATOM      1  C   UNL     1     -13.039   9.583 129.252  0.00  0.00    +0.000 A 
ATOM      2  C   UNL     1     -12.510   8.684 128.326  0.00  0.00    +0.000 A 
ATOM      3  C   UNL     1     -12.059   7.416 128.717  0.00  0.00    +0.000 A 
ATOM      4  C   UNL     1     -12.134   7.023 130.057  0.00  0.00    +0.000 A 
ATOM      5  C   UNL     1     -12.676   7.925 130.988  0.00  0.00    +0.000 A 
ATOM      6  C   UNL     1     -13.132   9.187 130.584  0.00  0.00    +0.000 A 
ENDROOT
BRANCH   1   7
ATOM      7  N   UNL     1     -13.525  10.809 128.840  0.00  0.00    +0.000 N 
ATOM      8  H   UNL     1     -13.052  11.334 128.117  0.00  0.00    +0.000 HD
ATOM      9  H   UNL     1     -14.255  11.273 129.363  0.00  0.00    +0.000 HD
ENDBRANCH   1   7
BRANCH   4  10
ATOM     10  C   UNL     1     -11.673   5.695 130.566  0.00  0.00    +0.000 C 
ATOM     11  O   UNL     1     -11.514   4.738 129.820  0.00  0.00    +0.000 OA
BRANCH  10  12
ATOM     12  O   UNL     1     -11.440   5.594 131.890  0.00  0.00    +0.000 OA
ATOM     13  H   UNL     1     -11.596   6.373 132.447  0.00  0.00    +0.000 HD
ENDBRANCH  10  12
ENDBRANCH   4  10
TORSDOF 3
ENDMDL
MODEL 6
REMARK VINA RESULT:      -5.0      3.538      4.434
REMARK  Name = Aminobenzoic acid
REMARK  3 active torsions:
REMARK  status: ('A' for Active; 'I' for Inactive)
REMARK    1  A    between atoms: N_1  and  C_2
REMARK    2  A    between atoms: C_5  and  C_8
REMARK    3  A    between atoms: C_8  and  O_9
REMARK                            x       y       z     vdW  Elec       q    Type
REMARK                         _______ _______ _______ _____ _____    ______ ____
ROOT
ATOM      1  C   UNL     1     -11.878   8.237 129.345  0.00  0.00    +0.000 A 
ATOM      2  C   UNL     1     -12.621   7.758 130.423  0.00  0.00    +0.000 A 
ATOM      3  C   UNL     1     -12.041   6.942 131.404  0.00  0.00    +0.000 A 
ATOM      4  C   UNL     1     -10.689   6.591 131.320  0.00  0.00    +0.000 A 
ATOM      5  C   UNL     1      -9.938   7.082 130.239  0.00  0.00    +0.000 A 
ATOM      6  C   UNL     1     -10.526   7.905 129.270  0.00  0.00    +0.000 A 
ENDROOT
BRANCH   1   7
ATOM      7  N   UNL     1     -12.453   9.081 128.416  0.00  0.00    +0.000 N 
ATOM      8  H   UNL     1     -12.434  10.083 128.548  0.00  0.00    +0.000 HD
ATOM      9  H   UNL     1     -13.043   8.711 127.682  0.00  0.00    +0.000 HD
ENDBRANCH   1   7
BRANCH   4  10
ATOM     10  C   UNL     1      -9.988   5.724 132.315  0.00  0.00    +0.000 C 
ATOM     11  O   UNL     1      -9.737   4.549 132.082  0.00  0.00    +0.000 OA
BRANCH  10  12
ATOM     12  O   UNL     1      -9.642   6.292 133.487  0.00  0.00    +0.000 OA
ATOM     13  H   UNL     1      -9.780   7.246 133.596  0.00  0.00    +0.000 HD
ENDBRANCH  10  12
ENDBRANCH   4  10
TORSDOF 3
ENDMDL
MODEL 7
REMARK VINA RESULT:      -4.7      1.156      1.629
REMARK  Name = Aminobenzoic acid
REMARK  3 active torsions:
REMARK  status: ('A' for Active; 'I' for Inactive)
REMARK    1  A    between atoms: N_1  and  C_2
REMARK    2  A    between atoms: C_5  and  C_8
REMARK    3  A    between atoms: C_8  and  O_9
REMARK                            x       y       z     vdW  Elec       q    Type
REMARK                         _______ _______ _______ _____ _____    ______ ____
ROOT
ATOM      1  C   UNL     1     -10.491   6.098 131.607  0.00  0.00    +0.000 A 
ATOM      2  C   UNL     1      -9.356   6.702 131.067  0.00  0.00    +0.000 A 
ATOM      3  C   UNL     1      -9.328   7.141 129.736  0.00  0.00    +0.000 A 
ATOM      4  C   UNL     1     -10.449   6.981 128.916  0.00  0.00    +0.000 A 
ATOM      5  C   UNL     1     -11.596   6.380 129.463  0.00  0.00    +0.000 A 
ATOM      6  C   UNL     1     -11.617   5.955 130.798  0.00  0.00    +0.000 A 
ENDROOT
BRANCH   1   7
ATOM      7  N   UNL     1     -10.519   5.718 132.934  0.00  0.00    +0.000 N 
ATOM      8  H   UNL     1      -9.979   4.925 133.255  0.00  0.00    +0.000 HD
ATOM      9  H   UNL     1     -11.200   6.115 133.568  0.00  0.00    +0.000 HD
ENDBRANCH   1   7
BRANCH   4  10
ATOM     10  C   UNL     1     -10.508   7.412 127.487  0.00  0.00    +0.000 C 
ATOM     11  O   UNL     1     -10.982   8.491 127.157  0.00  0.00    +0.000 OA
BRANCH  10  12
ATOM     12  O   UNL     1     -10.015   6.557 126.568  0.00  0.00    +0.000 OA
ATOM     13  H   UNL     1      -9.052   6.479 126.480  0.00  0.00    +0.000 HD
ENDBRANCH  10  12
ENDBRANCH   4  10
TORSDOF 3
ENDMDL
MODEL 8
REMARK VINA RESULT:      -4.5     12.526     13.055
REMARK  Name = Aminobenzoic acid
REMARK  3 active torsions:
REMARK  status: ('A' for Active; 'I' for Inactive)
REMARK    1  A    between atoms: N_1  and  C_2
REMARK    2  A    between atoms: C_5  and  C_8
REMARK    3  A    between atoms: C_8  and  O_9
REMARK                            x       y       z     vdW  Elec       q    Type
REMARK                         _______ _______ _______ _____ _____    ______ ____
ROOT
ATOM      1  C   UNL     1      -5.102  -3.522 123.504  0.00  0.00    +0.000 A 
ATOM      2  C   UNL     1      -5.487  -2.416 122.747  0.00  0.00    +0.000 A 
ATOM      3  C   UNL     1      -6.807  -1.945 122.763  0.00  0.00    +0.000 A 
ATOM      4  C   UNL     1      -7.773  -2.580 123.549  0.00  0.00    +0.000 A 
ATOM      5  C   UNL     1      -7.384  -3.689 124.319  0.00  0.00    +0.000 A 
ATOM      6  C   UNL     1      -6.059  -4.145 124.303  0.00  0.00    +0.000 A 
ENDROOT
BRANCH   1   7
ATOM      7  N   UNL     1      -3.787  -3.941 123.515  0.00  0.00    +0.000 N 
ATOM      8  H   UNL     1      -3.164  -3.663 124.262  0.00  0.00    +0.000 HD
ATOM      9  H   UNL     1      -3.384  -4.388 122.703  0.00  0.00    +0.000 HD
ENDBRANCH   1   7
BRANCH   4  10
ATOM     10  C   UNL     1      -9.203  -2.152 123.624  0.00  0.00    +0.000 C 
ATOM     11  O   UNL     1      -9.519  -0.997 123.875  0.00  0.00    +0.000 OA
BRANCH  10  12
ATOM     12  O   UNL     1     -10.138  -3.098 123.402  0.00  0.00    +0.000 OA
ATOM     13  H   UNL     1     -10.875  -2.889 122.807  0.00  0.00    +0.000 HD
ENDBRANCH  10  12
ENDBRANCH   4  10
TORSDOF 3
ENDMDL
MODEL 9
REMARK VINA RESULT:      -4.3      1.631      2.135
REMARK  Name = Aminobenzoic acid
REMARK  3 active torsions:
REMARK  status: ('A' for Active; 'I' for Inactive)
REMARK    1  A    between atoms: N_1  and  C_2
REMARK    2  A    between atoms: C_5  and  C_8
REMARK    3  A    between atoms: C_8  and  O_9
REMARK                            x       y       z     vdW  Elec       q    Type
REMARK                         _______ _______ _______ _____ _____    ______ ____
ROOT
ATOM      1  C   UNL     1      -8.604   6.073 132.357  0.00  0.00    +0.000 A 
ATOM      2  C   UNL     1      -8.264   6.727 131.172  0.00  0.00    +0.000 A 
ATOM      3  C   UNL     1      -9.244   7.128 130.255  0.00  0.00    +0.000 A 
ATOM      4  C   UNL     1     -10.596   6.880 130.513  0.00  0.00    +0.000 A 
ATOM      5  C   UNL     1     -10.939   6.230 131.710  0.00  0.00    +0.000 A 
ATOM      6  C   UNL     1      -9.951   5.842 132.625  0.00  0.00    +0.000 A 
ENDROOT
BRANCH   1   7
ATOM      7  N   UNL     1      -7.629   5.730 133.273  0.00  0.00    +0.000 N 
ATOM      8  H   UNL     1      -7.386   6.358 134.027  0.00  0.00    +0.000 HD
ATOM      9  H   UNL     1      -7.031   4.930 133.111  0.00  0.00    +0.000 HD
ENDBRANCH   1   7
BRANCH   4  10
ATOM     10  C   UNL     1     -11.707   7.267 129.591  0.00  0.00    +0.000 C 
ATOM     11  O   UNL     1     -12.182   8.395 129.589  0.00  0.00    +0.000 OA
BRANCH  10  12
ATOM     12  O   UNL     1     -12.170   6.314 128.757  0.00  0.00    +0.000 OA
ATOM     13  H   UNL     1     -12.768   5.638 129.113  0.00  0.00    +0.000 HD
ENDBRANCH  10  12
ENDBRANCH   4  10
TORSDOF 3
ENDMDL
