MODEL 1
REMARK VINA RESULT:      -6.9      0.000      0.000
REMARK  Name = Aminoglutethimide
REMARK  4 active torsions:
REMARK  status: ('A' for Active; 'I' for Inactive)
REMARK    1  A    between atoms: C_1  and  C_2
REMARK    2  A    between atoms: C_2  and  C_3
REMARK    3  A    between atoms: C_3  and  C_11
REMARK    4  A    between atoms: C_14  and  N_15
REMARK                            x       y       z     vdW  Elec       q    Type
REMARK                         _______ _______ _______ _____ _____    ______ ____
ROOT
ATOM      1  C   UNL     1      -9.582   6.083 130.939  0.00  0.00    +0.000 C 
ATOM      2  C   UNL     1     -10.210   5.893 132.346  0.00  0.00    +0.000 C 
ATOM      3  C   UNL     1      -9.454   5.042 133.307  0.00  0.00    +0.000 C 
ATOM      4  C   UNL     1      -9.221   3.695 132.704  0.00  0.00    +0.000 C 
ATOM      5  O   UNL     1      -9.158   2.685 133.383  0.00  0.00    +0.000 OA
ATOM      6  N   UNL     1      -9.043   3.675 131.337  0.00  0.00    +0.000 N 
ATOM      7  C   UNL     1      -9.248   4.675 130.401  0.00  0.00    +0.000 C 
ATOM      8  O   UNL     1      -8.974   4.441 129.221  0.00  0.00    +0.000 OA
ATOM      9  H   UNL     1      -8.766   2.778 130.965  0.00  0.00    +0.000 HD
ENDROOT
BRANCH   1  10
ATOM     10  C   UNL     1     -10.701   6.929 130.305  0.00  0.00    +0.000 A 
ATOM     11  C   UNL     1     -10.390   7.640 129.110  0.00  0.00    +0.000 A 
ATOM     12  C   UNL     1     -11.217   8.623 128.597  0.00  0.00    +0.000 A 
ATOM     13  C   UNL     1     -12.449   8.842 129.185  0.00  0.00    +0.000 A 
ATOM     14  C   UNL     1     -12.780   8.131 130.351  0.00  0.00    +0.000 A 
ATOM     15  C   UNL     1     -11.918   7.182 130.917  0.00  0.00    +0.000 A 
BRANCH  13  16
ATOM     16  N   UNL     1     -13.227   9.910 128.750  0.00  0.00    +0.000 N 
ATOM     17  H   UNL     1     -13.044  10.234 127.806  0.00  0.00    +0.000 HD
ATOM     18  H   UNL     1     -14.206   9.876 129.007  0.00  0.00    +0.000 HD
ENDBRANCH  13  16
ENDBRANCH   1  10
BRANCH   1  20
ATOM     19  C   UNL     1      -7.083   6.536 131.550  0.00  0.00    +0.000 C 
ATOM     20  C   UNL     1      -8.250   6.835 130.648  0.00  0.00    +0.000 C 
ENDBRANCH   1  20
TORSDOF 3
ENDMDL
MODEL 2
REMARK VINA RESULT:      -6.7      9.651     11.319
REMARK  Name = Aminoglutethimide
REMARK  4 active torsions:
REMARK  status: ('A' for Active; 'I' for Inactive)
REMARK    1  A    between atoms: C_1  and  C_2
REMARK    2  A    between atoms: C_2  and  C_3
REMARK    3  A    between atoms: C_3  and  C_11
REMARK    4  A    between atoms: C_14  and  N_15
REMARK                            x       y       z     vdW  Elec       q    Type
REMARK                         _______ _______ _______ _____ _____    ______ ____
ROOT
ATOM      1  C   UNL     1      -7.217  -2.006 125.058  0.00  0.00    +0.000 C 
ATOM      2  C   UNL     1      -8.501  -2.774 124.647  0.00  0.00    +0.000 C 
ATOM      3  C   UNL     1      -9.013  -2.532 123.269  0.00  0.00    +0.000 C 
ATOM      4  C   UNL     1      -9.250  -1.070 123.075  0.00  0.00    +0.000 C 
ATOM      5  O   UNL     1     -10.129  -0.649 122.344  0.00  0.00    +0.000 OA
ATOM      6  N   UNL     1      -8.386  -0.230 123.745  0.00  0.00    +0.000 N 
ATOM      7  C   UNL     1      -7.458  -0.516 124.733  0.00  0.00    +0.000 C 
ATOM      8  O   UNL     1      -6.752   0.400 125.160  0.00  0.00    +0.000 OA
ATOM      9  H   UNL     1      -8.484   0.746 123.506  0.00  0.00    +0.000 HD
ENDROOT
BRANCH   1  10
ATOM     10  C   UNL     1      -7.119  -2.493 126.515  0.00  0.00    +0.000 A 
ATOM     11  C   UNL     1      -8.275  -3.104 127.083  0.00  0.00    +0.000 A 
ATOM     12  C   UNL     1      -8.395  -3.343 128.440  0.00  0.00    +0.000 A 
ATOM     13  C   UNL     1      -7.313  -3.101 129.265  0.00  0.00    +0.000 A 
ATOM     14  C   UNL     1      -6.157  -2.522 128.716  0.00  0.00    +0.000 A 
ATOM     15  C   UNL     1      -6.052  -2.213 127.353  0.00  0.00    +0.000 A 
BRANCH  13  16
ATOM     16  N   UNL     1      -7.471  -3.223 130.642  0.00  0.00    +0.000 N 
ATOM     17  H   UNL     1      -8.031  -4.009 130.955  0.00  0.00    +0.000 HD
ATOM     18  H   UNL     1      -6.645  -3.040 131.199  0.00  0.00    +0.000 HD
ENDBRANCH  13  16
ENDBRANCH   1  10
BRANCH   1  20
ATOM     19  C   UNL     1      -5.459  -3.616 123.990  0.00  0.00    +0.000 C 
ATOM     20  C   UNL     1      -5.806  -2.221 124.433  0.00  0.00    +0.000 C 
ENDBRANCH   1  20
TORSDOF 3
ENDMDL
MODEL 3
REMARK VINA RESULT:      -6.7      8.001      9.163
REMARK  Name = Aminoglutethimide
REMARK  4 active torsions:
REMARK  status: ('A' for Active; 'I' for Inactive)
REMARK    1  A    between atoms: C_1  and  C_2
REMARK    2  A    between atoms: C_2  and  C_3
REMARK    3  A    between atoms: C_3  and  C_11
REMARK    4  A    between atoms: C_14  and  N_15
REMARK                            x       y       z     vdW  Elec       q    Type
REMARK                         _______ _______ _______ _____ _____    ______ ____
ROOT
ATOM      1  C   UNL     1      -6.845   3.198 124.085  0.00  0.00    +0.000 C 
ATOM      2  C   UNL     1      -5.385   3.724 124.111  0.00  0.00    +0.000 C 
ATOM      3  C   UNL     1      -4.730   3.813 125.446  0.00  0.00    +0.000 C 
ATOM      4  C   UNL     1      -5.558   4.664 126.352  0.00  0.00    +0.000 C 
ATOM      5  O   UNL     1      -5.062   5.346 127.232  0.00  0.00    +0.000 OA
ATOM      6  N   UNL     1      -6.921   4.596 126.156  0.00  0.00    +0.000 N 
ATOM      7  C   UNL     1      -7.640   4.024 125.119  0.00  0.00    +0.000 C 
ATOM      8  O   UNL     1      -8.872   4.043 125.177  0.00  0.00    +0.000 OA
ATOM      9  H   UNL     1      -7.468   5.080 126.853  0.00  0.00    +0.000 HD
ENDROOT
BRANCH   1  10
ATOM     10  C   UNL     1      -7.112   3.349 122.576  0.00  0.00    +0.000 A 
ATOM     11  C   UNL     1      -6.005   3.682 121.743  0.00  0.00    +0.000 A 
ATOM     12  C   UNL     1      -6.163   4.094 120.432  0.00  0.00    +0.000 A 
ATOM     13  C   UNL     1      -7.422   4.063 119.862  0.00  0.00    +0.000 A 
ATOM     14  C   UNL     1      -8.521   3.713 120.665  0.00  0.00    +0.000 A 
ATOM     15  C   UNL     1      -8.378   3.361 122.014  0.00  0.00    +0.000 A 
BRANCH  13  16
ATOM     16  N   UNL     1      -7.603   4.591 118.588  0.00  0.00    +0.000 N 
ATOM     17  H   UNL     1      -6.986   4.229 117.868  0.00  0.00    +0.000 HD
ATOM     18  H   UNL     1      -8.563   4.726 118.298  0.00  0.00    +0.000 HD
ENDBRANCH  13  16
ENDBRANCH   1  10
BRANCH   1  20
ATOM     19  C   UNL     1      -6.829   0.641 123.553  0.00  0.00    +0.000 C 
ATOM     20  C   UNL     1      -7.282   1.752 124.461  0.00  0.00    +0.000 C 
ENDBRANCH   1  20
TORSDOF 3
ENDMDL
MODEL 4
REMARK VINA RESULT:      -6.3      9.544     11.211
REMARK  Name = Aminoglutethimide
REMARK  4 active torsions:
REMARK  status: ('A' for Active; 'I' for Inactive)
REMARK    1  A    between atoms: C_1  and  C_2
REMARK    2  A    between atoms: C_2  and  C_3
REMARK    3  A    between atoms: C_3  and  C_11
REMARK    4  A    between atoms: C_14  and  N_15
REMARK                            x       y       z     vdW  Elec       q    Type
REMARK                         _______ _______ _______ _____ _____    ______ ____
ROOT
ATOM      1  C   UNL     1      -7.764  -2.065 125.102  0.00  0.00    +0.000 C 
ATOM      2  C   UNL     1      -8.695  -0.865 125.425  0.00  0.00    +0.000 C 
ATOM      3  C   UNL     1      -9.139  -0.034 124.272  0.00  0.00    +0.000 C 
ATOM      4  C   UNL     1      -7.944   0.476 123.535  0.00  0.00    +0.000 C 
ATOM      5  O   UNL     1      -7.949   1.550 122.959  0.00  0.00    +0.000 OA
ATOM      6  N   UNL     1      -6.850  -0.363 123.516  0.00  0.00    +0.000 N 
ATOM      7  C   UNL     1      -6.605  -1.517 124.241  0.00  0.00    +0.000 C 
ATOM      8  O   UNL     1      -5.563  -2.140 124.022  0.00  0.00    +0.000 OA
ATOM      9  H   UNL     1      -6.099  -0.058 122.913  0.00  0.00    +0.000 HD
ENDROOT
BRANCH   1  10
ATOM     10  C   UNL     1      -7.520  -2.554 126.541  0.00  0.00    +0.000 A 
ATOM     11  C   UNL     1      -8.574  -3.266 127.182  0.00  0.00    +0.000 A 
ATOM     12  C   UNL     1      -8.574  -3.527 128.540  0.00  0.00    +0.000 A 
ATOM     13  C   UNL     1      -7.458  -3.201 129.289  0.00  0.00    +0.000 A 
ATOM     14  C   UNL     1      -6.399  -2.519 128.666  0.00  0.00    +0.000 A 
ATOM     15  C   UNL     1      -6.421  -2.191 127.304  0.00  0.00    +0.000 A 
BRANCH  13  16
ATOM     16  N   UNL     1      -7.504  -3.347 130.671  0.00  0.00    +0.000 N 
ATOM     17  H   UNL     1      -8.398  -3.634 131.056  0.00  0.00    +0.000 HD
ATOM     18  H   UNL     1      -6.696  -3.787 131.095  0.00  0.00    +0.000 HD
ENDBRANCH  13  16
ENDBRANCH   1  10
BRANCH   1  20
ATOM     19  C   UNL     1      -9.477  -3.250 123.526  0.00  0.00    +0.000 C 
ATOM     20  C   UNL     1      -8.177  -3.321 124.280  0.00  0.00    +0.000 C 
ENDBRANCH   1  20
TORSDOF 3
ENDMDL
MODEL 5
REMARK VINA RESULT:      -6.2      9.284     11.823
REMARK  Name = Aminoglutethimide
REMARK  4 active torsions:
REMARK  status: ('A' for Active; 'I' for Inactive)
REMARK    1  A    between atoms: C_1  and  C_2
REMARK    2  A    between atoms: C_2  and  C_3
REMARK    3  A    between atoms: C_3  and  C_11
REMARK    4  A    between atoms: C_14  and  N_15
REMARK                            x       y       z     vdW  Elec       q    Type
REMARK                         _______ _______ _______ _____ _____    ______ ____
ROOT
ATOM      1  C   UNL     1      -8.150  -1.668 124.762  0.00  0.00    +0.000 C 
ATOM      2  C   UNL     1      -7.339  -0.630 125.583  0.00  0.00    +0.000 C 
ATOM      3  C   UNL     1      -8.120   0.435 126.273  0.00  0.00    +0.000 C 
ATOM      4  C   UNL     1      -8.954   1.167 125.273  0.00  0.00    +0.000 C 
ATOM      5  O   UNL     1      -9.229   2.347 125.401  0.00  0.00    +0.000 OA
ATOM      6  N   UNL     1      -9.426   0.412 124.221  0.00  0.00    +0.000 N 
ATOM      7  C   UNL     1      -9.084  -0.872 123.826  0.00  0.00    +0.000 C 
ATOM      8  O   UNL     1      -9.679  -1.371 122.868  0.00  0.00    +0.000 OA
ATOM      9  H   UNL     1     -10.086   0.891 123.625  0.00  0.00    +0.000 HD
ENDROOT
BRANCH   1  10
ATOM     10  C   UNL     1      -6.970  -2.482 124.199  0.00  0.00    +0.000 A 
ATOM     11  C   UNL     1      -6.995  -3.893 124.390  0.00  0.00    +0.000 A 
ATOM     12  C   UNL     1      -5.888  -4.691 124.163  0.00  0.00    +0.000 A 
ATOM     13  C   UNL     1      -4.752  -4.126 123.612  0.00  0.00    +0.000 A 
ATOM     14  C   UNL     1      -4.721  -2.739 123.396  0.00  0.00    +0.000 A 
ATOM     15  C   UNL     1      -5.815  -1.913 123.687  0.00  0.00    +0.000 A 
BRANCH  13  16
ATOM     16  N   UNL     1      -3.599  -4.897 123.499  0.00  0.00    +0.000 N 
ATOM     17  H   UNL     1      -2.938  -4.819 124.265  0.00  0.00    +0.000 HD
ATOM     18  H   UNL     1      -3.729  -5.836 123.142  0.00  0.00    +0.000 HD
ENDBRANCH  13  16
ENDBRANCH   1  10
BRANCH   1  20
ATOM     19  C   UNL     1      -8.970  -3.061 126.814  0.00  0.00    +0.000 C 
ATOM     20  C   UNL     1      -9.145  -2.704 125.363  0.00  0.00    +0.000 C 
ENDBRANCH   1  20
TORSDOF 3
ENDMDL
MODEL 6
REMARK VINA RESULT:      -6.1      1.776      2.794
REMARK  Name = Aminoglutethimide
REMARK  4 active torsions:
REMARK  status: ('A' for Active; 'I' for Inactive)
REMARK    1  A    between atoms: C_1  and  C_2
REMARK    2  A    between atoms: C_2  and  C_3
REMARK    3  A    between atoms: C_3  and  C_11
REMARK    4  A    between atoms: C_14  and  N_15
REMARK                            x       y       z     vdW  Elec       q    Type
REMARK                         _______ _______ _______ _____ _____    ______ ____
ROOT
ATOM      1  C   UNL     1      -9.731   5.722 130.800  0.00  0.00    +0.000 C 
ATOM      2  C   UNL     1      -8.759   5.700 129.590  0.00  0.00    +0.000 C 
ATOM      3  C   UNL     1      -7.509   4.905 129.750  0.00  0.00    +0.000 C 
ATOM      4  C   UNL     1      -6.763   5.387 130.950  0.00  0.00    +0.000 C 
ATOM      5  O   UNL     1      -5.547   5.350 131.013  0.00  0.00    +0.000 OA
ATOM      6  N   UNL     1      -7.539   5.838 131.996  0.00  0.00    +0.000 N 
ATOM      7  C   UNL     1      -8.897   6.109 132.041  0.00  0.00    +0.000 C 
ATOM      8  O   UNL     1      -9.392   6.463 133.114  0.00  0.00    +0.000 OA
ATOM      9  H   UNL     1      -7.025   6.043 132.841  0.00  0.00    +0.000 HD
ENDROOT
BRANCH   1  10
ATOM     10  C   UNL     1     -10.787   6.683 130.224  0.00  0.00    +0.000 A 
ATOM     11  C   UNL     1     -10.441   7.413 129.050  0.00  0.00    +0.000 A 
ATOM     12  C   UNL     1     -11.192   8.481 128.594  0.00  0.00    +0.000 A 
ATOM     13  C   UNL     1     -12.389   8.778 129.218  0.00  0.00    +0.000 A 
ATOM     14  C   UNL     1     -12.756   8.051 130.363  0.00  0.00    +0.000 A 
ATOM     15  C   UNL     1     -11.966   7.012 130.872  0.00  0.00    +0.000 A 
BRANCH  13  16
ATOM     16  N   UNL     1     -13.083   9.924 128.842  0.00  0.00    +0.000 N 
ATOM     17  H   UNL     1     -14.080   9.920 129.032  0.00  0.00    +0.000 HD
ATOM     18  H   UNL     1     -12.617  10.803 129.028  0.00  0.00    +0.000 HD
ENDBRANCH  13  16
ENDBRANCH   1  10
BRANCH   1  20
ATOM     19  C   UNL     1     -10.888   3.425 130.347  0.00  0.00    +0.000 C 
ATOM     20  C   UNL     1     -10.514   4.490 131.342  0.00  0.00    +0.000 C 
ENDBRANCH   1  20
TORSDOF 3
ENDMDL
MODEL 7
REMARK VINA RESULT:      -5.9      9.692     10.618
REMARK  Name = Aminoglutethimide
REMARK  4 active torsions:
REMARK  status: ('A' for Active; 'I' for Inactive)
REMARK    1  A    between atoms: C_1  and  C_2
REMARK    2  A    between atoms: C_2  and  C_3
REMARK    3  A    between atoms: C_3  and  C_11
REMARK    4  A    between atoms: C_14  and  N_15
REMARK                            x       y       z     vdW  Elec       q    Type
REMARK                         _______ _______ _______ _____ _____    ______ ____
ROOT
ATOM      1  C   UNL     1      -6.583  -2.963 130.505  0.00  0.00    +0.000 C 
ATOM      2  C   UNL     1      -5.966  -4.382 130.381  0.00  0.00    +0.000 C 
ATOM      3  C   UNL     1      -5.179  -4.873 131.547  0.00  0.00    +0.000 C 
ATOM      4  C   UNL     1      -4.085  -3.903 131.854  0.00  0.00    +0.000 C 
ATOM      5  O   UNL     1      -3.018  -4.259 132.322  0.00  0.00    +0.000 OA
ATOM      6  N   UNL     1      -4.376  -2.577 131.613  0.00  0.00    +0.000 N 
ATOM      7  C   UNL     1      -5.446  -2.012 130.938  0.00  0.00    +0.000 C 
ATOM      8  O   UNL     1      -5.526  -0.783 130.885  0.00  0.00    +0.000 OA
ATOM      9  H   UNL     1      -3.674  -1.929 131.939  0.00  0.00    +0.000 HD
ENDROOT
BRANCH   1  10
ATOM     10  C   UNL     1      -7.206  -2.865 129.100  0.00  0.00    +0.000 A 
ATOM     11  C   UNL     1      -8.441  -3.540 128.880  0.00  0.00    +0.000 A 
ATOM     12  C   UNL     1      -8.960  -3.741 127.614  0.00  0.00    +0.000 A 
ATOM     13  C   UNL     1      -8.332  -3.159 126.528  0.00  0.00    +0.000 A 
ATOM     14  C   UNL     1      -7.125  -2.469 126.733  0.00  0.00    +0.000 A 
ATOM     15  C   UNL     1      -6.556  -2.321 128.004  0.00  0.00    +0.000 A 
BRANCH  13  16
ATOM     16  N   UNL     1      -8.779  -3.460 125.246  0.00  0.00    +0.000 N 
ATOM     17  H   UNL     1      -8.975  -2.664 124.647  0.00  0.00    +0.000 HD
ATOM     18  H   UNL     1      -8.315  -4.234 124.787  0.00  0.00    +0.000 HD
ENDBRANCH  13  16
ENDBRANCH   1  10
BRANCH   1  20
ATOM     19  C   UNL     1      -7.561  -3.038 132.926  0.00  0.00    +0.000 C 
ATOM     20  C   UNL     1      -7.705  -2.559 131.507  0.00  0.00    +0.000 C 
ENDBRANCH   1  20
TORSDOF 3
ENDMDL
MODEL 8
REMARK VINA RESULT:      -5.9      8.406      9.560
REMARK  Name = Aminoglutethimide
REMARK  4 active torsions:
REMARK  status: ('A' for Active; 'I' for Inactive)
REMARK    1  A    between atoms: C_1  and  C_2
REMARK    2  A    between atoms: C_2  and  C_3
REMARK    3  A    between atoms: C_3  and  C_11
REMARK    4  A    between atoms: C_14  and  N_15
REMARK                            x       y       z     vdW  Elec       q    Type
REMARK                         _______ _______ _______ _____ _____    ______ ____
ROOT
ATOM      1  C   UNL     1      -6.910  -1.248 125.278  0.00  0.00    +0.000 C 
ATOM      2  C   UNL     1      -5.942  -1.137 126.486  0.00  0.00    +0.000 C 
ATOM      3  C   UNL     1      -5.900  -2.298 127.419  0.00  0.00    +0.000 C 
ATOM      4  C   UNL     1      -7.275  -2.573 127.934  0.00  0.00    +0.000 C 
ATOM      5  O   UNL     1      -7.469  -3.030 129.047  0.00  0.00    +0.000 OA
ATOM      6  N   UNL     1      -8.305  -2.316 127.056  0.00  0.00    +0.000 N 
ATOM      7  C   UNL     1      -8.290  -1.649 125.841  0.00  0.00    +0.000 C 
ATOM      8  O   UNL     1      -9.339  -1.578 125.196  0.00  0.00    +0.000 OA
ATOM      9  H   UNL     1      -9.213  -2.622 127.375  0.00  0.00    +0.000 HD
ENDROOT
BRANCH   1  10
ATOM     10  C   UNL     1      -6.676   0.148 124.673  0.00  0.00    +0.000 A 
ATOM     11  C   UNL     1      -6.093   1.140 125.513  0.00  0.00    +0.000 A 
ATOM     12  C   UNL     1      -6.073   2.480 125.173  0.00  0.00    +0.000 A 
ATOM     13  C   UNL     1      -6.517   2.865 123.921  0.00  0.00    +0.000 A 
ATOM     14  C   UNL     1      -7.072   1.894 123.072  0.00  0.00    +0.000 A 
ATOM     15  C   UNL     1      -7.159   0.544 123.436  0.00  0.00    +0.000 A 
BRANCH  13  16
ATOM     16  N   UNL     1      -6.613   4.221 123.624  0.00  0.00    +0.000 N 
ATOM     17  H   UNL     1      -5.732   4.721 123.553  0.00  0.00    +0.000 HD
ATOM     18  H   UNL     1      -7.303   4.472 122.928  0.00  0.00    +0.000 HD
ENDBRANCH  13  16
ENDBRANCH   1  10
BRANCH   1  20
ATOM     19  C   UNL     1      -5.369  -2.703 123.751  0.00  0.00    +0.000 C 
ATOM     20  C   UNL     1      -6.763  -2.261 124.104  0.00  0.00    +0.000 C 
ENDBRANCH   1  20
TORSDOF 3
ENDMDL
MODEL 9
REMARK VINA RESULT:      -5.8      8.828     11.264
REMARK  Name = Aminoglutethimide
REMARK  4 active torsions:
REMARK  status: ('A' for Active; 'I' for Inactive)
REMARK    1  A    between atoms: C_1  and  C_2
REMARK    2  A    between atoms: C_2  and  C_3
REMARK    3  A    between atoms: C_3  and  C_11
REMARK    4  A    between atoms: C_14  and  N_15
REMARK                            x       y       z     vdW  Elec       q    Type
REMARK                         _______ _______ _______ _____ _____    ______ ____
ROOT
ATOM      1  C   UNL     1      -7.183  -2.037 126.526  0.00  0.00    +0.000 C 
ATOM      2  C   UNL     1      -5.717  -1.696 126.151  0.00  0.00    +0.000 C 
ATOM      3  C   UNL     1      -5.456  -1.340 124.728  0.00  0.00    +0.000 C 
ATOM      4  C   UNL     1      -5.929  -2.447 123.843  0.00  0.00    +0.000 C 
ATOM      5  O   UNL     1      -5.387  -2.703 122.782  0.00  0.00    +0.000 OA
ATOM      6  N   UNL     1      -7.040  -3.132 124.284  0.00  0.00    +0.000 N 
ATOM      7  C   UNL     1      -7.673  -3.098 125.517  0.00  0.00    +0.000 C 
ATOM      8  O   UNL     1      -8.694  -3.771 125.673  0.00  0.00    +0.000 OA
ATOM      9  H   UNL     1      -7.417  -3.792 123.619  0.00  0.00    +0.000 HD
ENDROOT
BRANCH   1  10
ATOM     10  C   UNL     1      -6.959  -2.397 128.007  0.00  0.00    +0.000 A 
ATOM     11  C   UNL     1      -5.614  -2.561 128.447  0.00  0.00    +0.000 A 
ATOM     12  C   UNL     1      -5.298  -3.129 129.668  0.00  0.00    +0.000 A 
ATOM     13  C   UNL     1      -6.316  -3.435 130.552  0.00  0.00    +0.000 A 
ATOM     14  C   UNL     1      -7.647  -3.256 130.141  0.00  0.00    +0.000 A 
ATOM     15  C   UNL     1      -7.977  -2.745 128.879  0.00  0.00    +0.000 A 
BRANCH  13  16
ATOM     16  N   UNL     1      -6.011  -4.117 131.726  0.00  0.00    +0.000 N 
ATOM     17  H   UNL     1      -6.270  -3.650 132.589  0.00  0.00    +0.000 HD
ATOM     18  H   UNL     1      -6.183  -5.115 131.713  0.00  0.00    +0.000 HD
ENDBRANCH  13  16
ENDBRANCH   1  10
BRANCH   1  20
ATOM     19  C   UNL     1      -8.078   0.387 126.906  0.00  0.00    +0.000 C 
ATOM     20  C   UNL     1      -8.372  -1.031 126.499  0.00  0.00    +0.000 C 
ENDBRANCH   1  20
TORSDOF 3
ENDMDL
