MODEL 1
REMARK VINA RESULT:      -6.4      0.000      0.000
REMARK  Name = Aminohippuric acid
REMARK  5 active torsions:
REMARK  status: ('A' for Active; 'I' for Inactive)
REMARK    1  A    between atoms: N_1  and  C_2
REMARK    2  A    between atoms: C_5  and  C_8
REMARK    3  A    between atoms: N_10  and  C_11
REMARK    4  A    between atoms: C_11  and  C_12
REMARK    5  A    between atoms: C_12  and  O_13
REMARK                            x       y       z     vdW  Elec       q    Type
REMARK                         _______ _______ _______ _____ _____    ______ ____
ROOT
ATOM      1  C   UNL     1      -6.068   5.177 119.052  0.00  0.00    +0.000 A 
ATOM      2  C   UNL     1      -7.358   4.647 119.099  0.00  0.00    +0.000 A 
ATOM      3  C   UNL     1      -7.788   3.893 120.203  0.00  0.00    +0.000 A 
ATOM      4  C   UNL     1      -6.930   3.658 121.284  0.00  0.00    +0.000 A 
ATOM      5  C   UNL     1      -5.638   4.201 121.234  0.00  0.00    +0.000 A 
ATOM      6  C   UNL     1      -5.220   4.959 120.134  0.00  0.00    +0.000 A 
ENDROOT
BRANCH   4   7
ATOM      7  C   UNL     1      -7.428   2.840 122.444  0.00  0.00    +0.000 C 
ATOM      8  O   UNL     1      -6.641   2.310 123.222  0.00  0.00    +0.000 OA
ATOM      9  N   UNL     1      -8.797   2.724 122.580  0.00  0.00    +0.000 N 
ATOM     10  H   UNL     1      -9.371   3.183 121.907  0.00  0.00    +0.000 HD
BRANCH   9  11
ATOM     11  C   UNL     1      -9.405   1.957 123.663  0.00  0.00    +0.000 C 
BRANCH  11  12
ATOM     12  C   UNL     1     -10.649   1.125 123.333  0.00  0.00    +0.000 C 
ATOM     13  O   UNL     1     -10.660   0.270 122.456  0.00  0.00    +0.000 OA
BRANCH  12  14
ATOM     14  O   UNL     1     -11.765   1.369 124.057  0.00  0.00    +0.000 OA
ATOM     15  H   UNL     1     -11.662   1.570 124.996  0.00  0.00    +0.000 HD
ENDBRANCH  12  14
ENDBRANCH  11  12
ENDBRANCH   9  11
ENDBRANCH   4   7
BRANCH   1  16
ATOM     16  N   UNL     1      -5.654   5.959 117.992  0.00  0.00    +0.000 N 
ATOM     17  H   UNL     1      -4.796   6.492 118.050  0.00  0.00    +0.000 HD
ATOM     18  H   UNL     1      -6.270   6.136 117.211  0.00  0.00    +0.000 HD
ENDBRANCH   1  16
TORSDOF 5
ENDMDL
MODEL 2
REMARK VINA RESULT:      -6.0      1.602      1.778
REMARK  Name = Aminohippuric acid
REMARK  5 active torsions:
REMARK  status: ('A' for Active; 'I' for Inactive)
REMARK    1  A    between atoms: N_1  and  C_2
REMARK    2  A    between atoms: C_5  and  C_8
REMARK    3  A    between atoms: N_10  and  C_11
REMARK    4  A    between atoms: C_11  and  C_12
REMARK    5  A    between atoms: C_12  and  O_13
REMARK                            x       y       z     vdW  Elec       q    Type
REMARK                         _______ _______ _______ _____ _____    ______ ____
ROOT
ATOM      1  C   UNL     1      -6.081   5.347 118.763  0.00  0.00    +0.000 A 
ATOM      2  C   UNL     1      -7.331   4.730 118.823  0.00  0.00    +0.000 A 
ATOM      3  C   UNL     1      -7.702   3.960 119.937  0.00  0.00    +0.000 A 
ATOM      4  C   UNL     1      -6.824   3.795 121.015  0.00  0.00    +0.000 A 
ATOM      5  C   UNL     1      -5.573   4.425 120.952  0.00  0.00    +0.000 A 
ATOM      6  C   UNL     1      -5.214   5.198 119.842  0.00  0.00    +0.000 A 
ENDROOT
BRANCH   4   7
ATOM      7  C   UNL     1      -7.260   2.957 122.186  0.00  0.00    +0.000 C 
ATOM      8  O   UNL     1      -6.438   2.330 122.849  0.00  0.00    +0.000 OA
ATOM      9  N   UNL     1      -8.611   2.936 122.467  0.00  0.00    +0.000 N 
ATOM     10  H   UNL     1      -9.214   3.471 121.883  0.00  0.00    +0.000 HD
BRANCH   9  11
ATOM     11  C   UNL     1      -9.158   2.161 123.576  0.00  0.00    +0.000 C 
BRANCH  11  12
ATOM     12  C   UNL     1      -8.980   2.723 124.991  0.00  0.00    +0.000 C 
ATOM     13  O   UNL     1      -8.845   2.007 125.976  0.00  0.00    +0.000 OA
BRANCH  12  14
ATOM     14  O   UNL     1      -8.975   4.068 125.125  0.00  0.00    +0.000 OA
ATOM     15  H   UNL     1      -9.103   4.604 124.331  0.00  0.00    +0.000 HD
ENDBRANCH  12  14
ENDBRANCH  11  12
ENDBRANCH   9  11
ENDBRANCH   4   7
BRANCH   1  16
ATOM     16  N   UNL     1      -5.727   6.144 117.693  0.00  0.00    +0.000 N 
ATOM     17  H   UNL     1      -4.822   6.042 117.253  0.00  0.00    +0.000 HD
ATOM     18  H   UNL     1      -6.294   6.940 117.433  0.00  0.00    +0.000 HD
ENDBRANCH   1  16
TORSDOF 5
ENDMDL
MODEL 3
REMARK VINA RESULT:      -5.8      9.318     10.567
REMARK  Name = Aminohippuric acid
REMARK  5 active torsions:
REMARK  status: ('A' for Active; 'I' for Inactive)
REMARK    1  A    between atoms: N_1  and  C_2
REMARK    2  A    between atoms: C_5  and  C_8
REMARK    3  A    between atoms: N_10  and  C_11
REMARK    4  A    between atoms: C_11  and  C_12
REMARK    5  A    between atoms: C_12  and  O_13
REMARK                            x       y       z     vdW  Elec       q    Type
REMARK                         _______ _______ _______ _____ _____    ______ ____
ROOT
ATOM      1  C   UNL     1     -12.291   8.805 129.288  0.00  0.00    +0.000 A 
ATOM      2  C   UNL     1     -11.209   8.400 128.505  0.00  0.00    +0.000 A 
ATOM      3  C   UNL     1     -10.535   7.197 128.772  0.00  0.00    +0.000 A 
ATOM      4  C   UNL     1     -10.936   6.376 129.833  0.00  0.00    +0.000 A 
ATOM      5  C   UNL     1     -12.029   6.785 130.611  0.00  0.00    +0.000 A 
ATOM      6  C   UNL     1     -12.701   7.980 130.331  0.00  0.00    +0.000 A 
ENDROOT
BRANCH   4   7
ATOM      7  C   UNL     1     -10.183   5.099 130.089  0.00  0.00    +0.000 C 
ATOM      8  O   UNL     1      -9.365   4.679 129.276  0.00  0.00    +0.000 OA
ATOM      9  N   UNL     1     -10.459   4.440 131.270  0.00  0.00    +0.000 N 
ATOM     10  H   UNL     1     -11.136   4.844 131.879  0.00  0.00    +0.000 HD
BRANCH   9  11
ATOM     11  C   UNL     1      -9.795   3.192 131.633  0.00  0.00    +0.000 C 
BRANCH  11  12
ATOM     12  C   UNL     1      -9.295   3.048 133.075  0.00  0.00    +0.000 C 
ATOM     13  O   UNL     1      -8.441   2.231 133.401  0.00  0.00    +0.000 OA
BRANCH  12  14
ATOM     14  O   UNL     1      -9.837   3.869 134.002  0.00  0.00    +0.000 OA
ATOM     15  H   UNL     1      -9.879   4.813 133.802  0.00  0.00    +0.000 HD
ENDBRANCH  12  14
ENDBRANCH  11  12
ENDBRANCH   9  11
ENDBRANCH   4   7
BRANCH   1  16
ATOM     16  N   UNL     1     -12.988   9.962 129.001  0.00  0.00    +0.000 N 
ATOM     17  H   UNL     1     -13.662  10.332 129.658  0.00  0.00    +0.000 HD
ATOM     18  H   UNL     1     -12.955  10.368 128.076  0.00  0.00    +0.000 HD
ENDBRANCH   1  16
TORSDOF 5
ENDMDL
MODEL 4
REMARK VINA RESULT:      -5.5      4.490      6.785
REMARK  Name = Aminohippuric acid
REMARK  5 active torsions:
REMARK  status: ('A' for Active; 'I' for Inactive)
REMARK    1  A    between atoms: N_1  and  C_2
REMARK    2  A    between atoms: C_5  and  C_8
REMARK    3  A    between atoms: N_10  and  C_11
REMARK    4  A    between atoms: C_11  and  C_12
REMARK    5  A    between atoms: C_12  and  O_13
REMARK                            x       y       z     vdW  Elec       q    Type
REMARK                         _______ _______ _______ _____ _____    ______ ____
ROOT
ATOM      1  C   UNL     1      -5.742  -3.687 123.839  0.00  0.00    +0.000 A 
ATOM      2  C   UNL     1      -5.480  -2.528 123.108  0.00  0.00    +0.000 A 
ATOM      3  C   UNL     1      -6.488  -1.579 122.874  0.00  0.00    +0.000 A 
ATOM      4  C   UNL     1      -7.782  -1.776 123.371  0.00  0.00    +0.000 A 
ATOM      5  C   UNL     1      -8.037  -2.939 124.112  0.00  0.00    +0.000 A 
ATOM      6  C   UNL     1      -7.024  -3.875 124.349  0.00  0.00    +0.000 A 
ENDROOT
BRANCH   4   7
ATOM      7  C   UNL     1      -8.834  -0.737 123.092  0.00  0.00    +0.000 C 
ATOM      8  O   UNL     1      -9.971  -1.067 122.768  0.00  0.00    +0.000 OA
ATOM      9  N   UNL     1      -8.453   0.584 123.221  0.00  0.00    +0.000 N 
ATOM     10  H   UNL     1      -7.512   0.771 123.487  0.00  0.00    +0.000 HD
BRANCH   9  11
ATOM     11  C   UNL     1      -9.381   1.683 122.977  0.00  0.00    +0.000 C 
BRANCH  11  12
ATOM     12  C   UNL     1      -8.797   3.006 122.466  0.00  0.00    +0.000 C 
ATOM     13  O   UNL     1      -8.888   3.362 121.297  0.00  0.00    +0.000 OA
BRANCH  12  14
ATOM     14  O   UNL     1      -8.161   3.788 123.367  0.00  0.00    +0.000 OA
ATOM     15  H   UNL     1      -8.607   3.970 124.205  0.00  0.00    +0.000 HD
ENDBRANCH  12  14
ENDBRANCH  11  12
ENDBRANCH   9  11
ENDBRANCH   4   7
BRANCH   1  16
ATOM     16  N   UNL     1      -4.745  -4.602 124.114  0.00  0.00    +0.000 N 
ATOM     17  H   UNL     1      -4.560  -4.890 125.065  0.00  0.00    +0.000 HD
ATOM     18  H   UNL     1      -4.085  -4.875 123.398  0.00  0.00    +0.000 HD
ENDBRANCH   1  16
TORSDOF 5
ENDMDL
MODEL 5
REMARK VINA RESULT:      -5.5      1.814      2.165
REMARK  Name = Aminohippuric acid
REMARK  5 active torsions:
REMARK  status: ('A' for Active; 'I' for Inactive)
REMARK    1  A    between atoms: N_1  and  C_2
REMARK    2  A    between atoms: C_5  and  C_8
REMARK    3  A    between atoms: N_10  and  C_11
REMARK    4  A    between atoms: C_11  and  C_12
REMARK    5  A    between atoms: C_12  and  O_13
REMARK                            x       y       z     vdW  Elec       q    Type
REMARK                         _______ _______ _______ _____ _____    ______ ____
ROOT
ATOM      1  C   UNL     1      -6.144   5.254 118.751  0.00  0.00    +0.000 A 
ATOM      2  C   UNL     1      -7.434   4.722 118.790  0.00  0.00    +0.000 A 
ATOM      3  C   UNL     1      -7.888   4.014 119.914  0.00  0.00    +0.000 A 
ATOM      4  C   UNL     1      -7.055   3.826 121.024  0.00  0.00    +0.000 A 
ATOM      5  C   UNL     1      -5.763   4.370 120.981  0.00  0.00    +0.000 A 
ATOM      6  C   UNL     1      -5.322   5.083 119.861  0.00  0.00    +0.000 A 
ENDROOT
BRANCH   4   7
ATOM      7  C   UNL     1      -7.579   3.056 122.205  0.00  0.00    +0.000 C 
ATOM      8  O   UNL     1      -8.757   3.146 122.540  0.00  0.00    +0.000 OA
ATOM      9  N   UNL     1      -6.676   2.256 122.876  0.00  0.00    +0.000 N 
ATOM     10  H   UNL     1      -5.738   2.236 122.543  0.00  0.00    +0.000 HD
BRANCH   9  11
ATOM     11  C   UNL     1      -7.062   1.460 124.038  0.00  0.00    +0.000 C 
BRANCH  11  12
ATOM     12  C   UNL     1      -7.529   0.021 123.789  0.00  0.00    +0.000 C 
ATOM     13  O   UNL     1      -8.680  -0.255 123.473  0.00  0.00    +0.000 OA
BRANCH  12  14
ATOM     14  O   UNL     1      -6.610  -0.960 123.931  0.00  0.00    +0.000 OA
ATOM     15  H   UNL     1      -5.696  -0.765 123.684  0.00  0.00    +0.000 HD
ENDBRANCH  12  14
ENDBRANCH  11  12
ENDBRANCH   9  11
ENDBRANCH   4   7
BRANCH   1  16
ATOM     16  N   UNL     1      -5.707   5.992 117.669  0.00  0.00    +0.000 N 
ATOM     17  H   UNL     1      -5.278   5.535 116.875  0.00  0.00    +0.000 HD
ATOM     18  H   UNL     1      -5.664   7.000 117.717  0.00  0.00    +0.000 HD
ENDBRANCH   1  16
TORSDOF 5
ENDMDL
MODEL 6
REMARK VINA RESULT:      -5.4     10.051     10.894
REMARK  Name = Aminohippuric acid
REMARK  5 active torsions:
REMARK  status: ('A' for Active; 'I' for Inactive)
REMARK    1  A    between atoms: N_1  and  C_2
REMARK    2  A    between atoms: C_5  and  C_8
REMARK    3  A    between atoms: N_10  and  C_11
REMARK    4  A    between atoms: C_11  and  C_12
REMARK    5  A    between atoms: C_12  and  O_13
REMARK                            x       y       z     vdW  Elec       q    Type
REMARK                         _______ _______ _______ _____ _____    ______ ____
ROOT
ATOM      1  C   UNL     1     -11.881   8.258 129.395  0.00  0.00    +0.000 A 
ATOM      2  C   UNL     1     -12.553   7.734 130.500  0.00  0.00    +0.000 A 
ATOM      3  C   UNL     1     -11.887   6.914 131.426  0.00  0.00    +0.000 A 
ATOM      4  C   UNL     1     -10.532   6.605 131.260  0.00  0.00    +0.000 A 
ATOM      5  C   UNL     1      -9.861   7.142 130.152  0.00  0.00    +0.000 A 
ATOM      6  C   UNL     1     -10.529   7.966 129.239  0.00  0.00    +0.000 A 
ENDROOT
BRANCH   4   7
ATOM      7  C   UNL     1      -9.859   5.718 132.272  0.00  0.00    +0.000 C 
ATOM      8  O   UNL     1      -9.205   6.199 133.193  0.00  0.00    +0.000 OA
ATOM      9  N   UNL     1     -10.017   4.356 132.108  0.00  0.00    +0.000 N 
ATOM     10  H   UNL     1     -10.562   4.043 131.335  0.00  0.00    +0.000 HD
BRANCH   9  11
ATOM     11  C   UNL     1      -9.414   3.392 133.022  0.00  0.00    +0.000 C 
BRANCH  11  12
ATOM     12  C   UNL     1      -9.106   1.993 132.477  0.00  0.00    +0.000 C 
ATOM     13  O   UNL     1      -7.969   1.540 132.421  0.00  0.00    +0.000 OA
BRANCH  12  14
ATOM     14  O   UNL     1     -10.153   1.253 132.047  0.00  0.00    +0.000 OA
ATOM     15  H   UNL     1     -10.760   1.653 131.411  0.00  0.00    +0.000 HD
ENDBRANCH  12  14
ENDBRANCH  11  12
ENDBRANCH   9  11
ENDBRANCH   4   7
BRANCH   1  16
ATOM     16  N   UNL     1     -12.517   9.103 128.507  0.00  0.00    +0.000 N 
ATOM     17  H   UNL     1     -13.378   9.565 128.764  0.00  0.00    +0.000 HD
ATOM     18  H   UNL     1     -12.222   9.152 127.541  0.00  0.00    +0.000 HD
ENDBRANCH   1  16
TORSDOF 5
ENDMDL
MODEL 7
REMARK VINA RESULT:      -5.3      1.932      2.194
REMARK  Name = Aminohippuric acid
REMARK  5 active torsions:
REMARK  status: ('A' for Active; 'I' for Inactive)
REMARK    1  A    between atoms: N_1  and  C_2
REMARK    2  A    between atoms: C_5  and  C_8
REMARK    3  A    between atoms: N_10  and  C_11
REMARK    4  A    between atoms: C_11  and  C_12
REMARK    5  A    between atoms: C_12  and  O_13
REMARK                            x       y       z     vdW  Elec       q    Type
REMARK                         _______ _______ _______ _____ _____    ______ ____
ROOT
ATOM      1  C   UNL     1      -7.124   4.194 119.804  0.00  0.00    +0.000 A 
ATOM      2  C   UNL     1      -8.375   3.910 120.353  0.00  0.00    +0.000 A 
ATOM      3  C   UNL     1      -8.490   3.337 121.630  0.00  0.00    +0.000 A 
ATOM      4  C   UNL     1      -7.347   3.038 122.382  0.00  0.00    +0.000 A 
ATOM      5  C   UNL     1      -6.094   3.333 121.828  0.00  0.00    +0.000 A 
ATOM      6  C   UNL     1      -5.989   3.914 120.559  0.00  0.00    +0.000 A 
ENDROOT
BRANCH   4   7
ATOM      7  C   UNL     1      -7.514   2.419 123.743  0.00  0.00    +0.000 C 
ATOM      8  O   UNL     1      -7.360   3.088 124.760  0.00  0.00    +0.000 OA
ATOM      9  N   UNL     1      -7.846   1.079 123.780  0.00  0.00    +0.000 N 
ATOM     10  H   UNL     1      -7.954   0.604 122.911  0.00  0.00    +0.000 HD
BRANCH   9  11
ATOM     11  C   UNL     1      -8.035   0.364 125.038  0.00  0.00    +0.000 C 
BRANCH  11  12
ATOM     12  C   UNL     1      -9.283   0.697 125.864  0.00  0.00    +0.000 C 
ATOM     13  O   UNL     1     -10.383   0.214 125.625  0.00  0.00    +0.000 OA
BRANCH  12  14
ATOM     14  O   UNL     1      -9.131   1.563 126.891  0.00  0.00    +0.000 OA
ATOM     15  H   UNL     1      -8.817   1.214 127.736  0.00  0.00    +0.000 HD
ENDBRANCH  12  14
ENDBRANCH  11  12
ENDBRANCH   9  11
ENDBRANCH   4   7
BRANCH   1  16
ATOM     16  N   UNL     1      -7.006   4.802 118.570  0.00  0.00    +0.000 N 
ATOM     17  H   UNL     1      -7.627   5.555 118.306  0.00  0.00    +0.000 HD
ATOM     18  H   UNL     1      -6.410   4.406 117.856  0.00  0.00    +0.000 HD
ENDBRANCH   1  16
TORSDOF 5
ENDMDL
MODEL 8
REMARK VINA RESULT:      -5.1      8.961     10.433
REMARK  Name = Aminohippuric acid
REMARK  5 active torsions:
REMARK  status: ('A' for Active; 'I' for Inactive)
REMARK    1  A    between atoms: N_1  and  C_2
REMARK    2  A    between atoms: C_5  and  C_8
REMARK    3  A    between atoms: N_10  and  C_11
REMARK    4  A    between atoms: C_11  and  C_12
REMARK    5  A    between atoms: C_12  and  O_13
REMARK                            x       y       z     vdW  Elec       q    Type
REMARK                         _______ _______ _______ _____ _____    ______ ____
ROOT
ATOM      1  C   UNL     1      -8.339   4.874 132.687  0.00  0.00    +0.000 A 
ATOM      2  C   UNL     1      -9.305   4.200 131.940  0.00  0.00    +0.000 A 
ATOM      3  C   UNL     1      -9.839   4.768 130.771  0.00  0.00    +0.000 A 
ATOM      4  C   UNL     1      -9.410   6.026 130.329  0.00  0.00    +0.000 A 
ATOM      5  C   UNL     1      -8.433   6.694 131.081  0.00  0.00    +0.000 A 
ATOM      6  C   UNL     1      -7.900   6.117 132.239  0.00  0.00    +0.000 A 
ENDROOT
BRANCH   4   7
ATOM      7  C   UNL     1     -10.012   6.600 129.076  0.00  0.00    +0.000 C 
ATOM      8  O   UNL     1      -9.658   6.201 127.970  0.00  0.00    +0.000 OA
ATOM      9  N   UNL     1     -10.968   7.583 129.238  0.00  0.00    +0.000 N 
ATOM     10  H   UNL     1     -11.201   7.853 130.168  0.00  0.00    +0.000 HD
BRANCH   9  11
ATOM     11  C   UNL     1     -11.625   8.218 128.101  0.00  0.00    +0.000 C 
BRANCH  11  12
ATOM     12  C   UNL     1     -12.695   7.411 127.357  0.00  0.00    +0.000 C 
ATOM     13  O   UNL     1     -13.887   7.482 127.632  0.00  0.00    +0.000 OA
BRANCH  12  14
ATOM     14  O   UNL     1     -12.275   6.596 126.364  0.00  0.00    +0.000 OA
ATOM     15  H   UNL     1     -11.855   5.761 126.609  0.00  0.00    +0.000 HD
ENDBRANCH  12  14
ENDBRANCH  11  12
ENDBRANCH   9  11
ENDBRANCH   4   7
BRANCH   1  16
ATOM     16  N   UNL     1      -7.776   4.302 133.811  0.00  0.00    +0.000 N 
ATOM     17  H   UNL     1      -8.199   3.491 134.241  0.00  0.00    +0.000 HD
ATOM     18  H   UNL     1      -7.031   4.769 134.309  0.00  0.00    +0.000 HD
ENDBRANCH   1  16
TORSDOF 5
ENDMDL
MODEL 9
REMARK VINA RESULT:      -5.0      3.290      4.572
REMARK  Name = Aminohippuric acid
REMARK  5 active torsions:
REMARK  status: ('A' for Active; 'I' for Inactive)
REMARK    1  A    between atoms: N_1  and  C_2
REMARK    2  A    between atoms: C_5  and  C_8
REMARK    3  A    between atoms: N_10  and  C_11
REMARK    4  A    between atoms: C_11  and  C_12
REMARK    5  A    between atoms: C_12  and  O_13
REMARK                            x       y       z     vdW  Elec       q    Type
REMARK                         _______ _______ _______ _____ _____    ______ ____
ROOT
ATOM      1  C   UNL     1      -7.204   4.121 119.980  0.00  0.00    +0.000 A 
ATOM      2  C   UNL     1      -8.099   3.581 120.904  0.00  0.00    +0.000 A 
ATOM      3  C   UNL     1      -7.700   3.316 122.224  0.00  0.00    +0.000 A 
ATOM      4  C   UNL     1      -6.392   3.590 122.643  0.00  0.00    +0.000 A 
ATOM      5  C   UNL     1      -5.501   4.141 121.711  0.00  0.00    +0.000 A 
ATOM      6  C   UNL     1      -5.909   4.411 120.400  0.00  0.00    +0.000 A 
ENDROOT
BRANCH   4   7
ATOM      7  C   UNL     1      -6.005   3.286 124.064  0.00  0.00    +0.000 C 
ATOM      8  O   UNL     1      -6.525   2.354 124.671  0.00  0.00    +0.000 OA
ATOM      9  N   UNL     1      -5.046   4.099 124.635  0.00  0.00    +0.000 N 
ATOM     10  H   UNL     1      -4.671   4.835 124.078  0.00  0.00    +0.000 HD
BRANCH   9  11
ATOM     11  C   UNL     1      -4.586   3.906 126.007  0.00  0.00    +0.000 C 
BRANCH  11  12
ATOM     12  C   UNL     1      -5.141   4.849 127.081  0.00  0.00    +0.000 C 
ATOM     13  O   UNL     1      -6.245   4.695 127.590  0.00  0.00    +0.000 OA
BRANCH  12  14
ATOM     14  O   UNL     1      -4.358   5.883 127.460  0.00  0.00    +0.000 OA
ATOM     15  H   UNL     1      -3.491   5.681 127.838  0.00  0.00    +0.000 HD
ENDBRANCH  12  14
ENDBRANCH  11  12
ENDBRANCH   9  11
ENDBRANCH   4   7
BRANCH   1  16
ATOM     16  N   UNL     1      -7.602   4.429 118.694  0.00  0.00    +0.000 N 
ATOM     17  H   UNL     1      -8.134   5.268 118.507  0.00  0.00    +0.000 HD
ATOM     18  H   UNL     1      -7.509   3.751 117.950  0.00  0.00    +0.000 HD
ENDBRANCH   1  16
TORSDOF 5
ENDMDL
