MODEL 1
REMARK VINA RESULT:      -4.8      0.000      0.000
REMARK  Name = Aminocaproic acid
REMARK  7 active torsions:
REMARK  status: ('A' for Active; 'I' for Inactive)
REMARK    1  A    between atoms: N_1  and  C_2
REMARK    2  A    between atoms: C_2  and  C_3
REMARK    3  A    between atoms: C_3  and  C_4
REMARK    4  A    between atoms: C_4  and  C_5
REMARK    5  A    between atoms: C_5  and  C_6
REMARK    6  A    between atoms: C_6  and  C_7
REMARK    7  A    between atoms: C_7  and  O_8
REMARK                            x       y       z     vdW  Elec       q    Type
REMARK                         _______ _______ _______ _____ _____    ______ ____
ROOT
ATOM      1  C   UNL     1     -12.273   8.208 129.710  0.00  0.00    +0.000 C 
ENDROOT
BRANCH   1   2
ATOM      2  C   UNL     1     -12.930   9.390 129.001  0.00  0.00    +0.000 C 
BRANCH   2   3
ATOM      3  C   UNL     1     -13.297  10.479 129.999  0.00  0.00    +0.000 C 
BRANCH   3   4
ATOM      4  N   UNL     1     -13.367  11.763 129.319  0.00  0.00    +0.000 NA
ATOM      5  H   UNL     1     -14.323  11.925 129.004  0.00  0.00    +0.000 HD
ATOM      6  H   UNL     1     -12.789  11.740 128.480  0.00  0.00    +0.000 HD
ENDBRANCH   3   4
ENDBRANCH   2   3
ENDBRANCH   1   2
BRANCH   1   7
ATOM      7  C   UNL     1     -10.889   7.967 129.127  0.00  0.00    +0.000 C 
BRANCH   7   8
ATOM      8  C   UNL     1     -10.829   8.295 127.644  0.00  0.00    +0.000 C 
BRANCH   8   9
ATOM      9  C   UNL     1     -10.827   7.099 126.717  0.00  0.00    +0.000 C 
ATOM     10  O   UNL     1      -9.805   6.462 126.489  0.00  0.00    +0.000 OA
BRANCH   9  11
ATOM     11  O   UNL     1     -11.998   6.756 126.149  0.00  0.00    +0.000 OA
ATOM     12  H   UNL     1     -12.685   6.371 126.720  0.00  0.00    +0.000 HD
ENDBRANCH   9  11
ENDBRANCH   8   9
ENDBRANCH   7   8
ENDBRANCH   1   7
TORSDOF 7
ENDMDL
MODEL 2
REMARK VINA RESULT:      -4.6      2.621      3.069
REMARK  Name = Aminocaproic acid
REMARK  7 active torsions:
REMARK  status: ('A' for Active; 'I' for Inactive)
REMARK    1  A    between atoms: N_1  and  C_2
REMARK    2  A    between atoms: C_2  and  C_3
REMARK    3  A    between atoms: C_3  and  C_4
REMARK    4  A    between atoms: C_4  and  C_5
REMARK    5  A    between atoms: C_5  and  C_6
REMARK    6  A    between atoms: C_6  and  C_7
REMARK    7  A    between atoms: C_7  and  O_8
REMARK                            x       y       z     vdW  Elec       q    Type
REMARK                         _______ _______ _______ _____ _____    ______ ____
ROOT
ATOM      1  C   UNL     1     -12.996   7.150 129.060  0.00  0.00    +0.000 C 
ENDROOT
BRANCH   1   2
ATOM      2  C   UNL     1     -12.701   7.220 130.557  0.00  0.00    +0.000 C 
BRANCH   2   3
ATOM      3  C   UNL     1     -11.673   6.169 130.951  0.00  0.00    +0.000 C 
BRANCH   3   4
ATOM      4  N   UNL     1     -11.593   5.150 129.916  0.00  0.00    +0.000 NA
ATOM      5  H   UNL     1     -10.864   4.481 130.158  0.00  0.00    +0.000 HD
ATOM      6  H   UNL     1     -11.310   5.576 129.035  0.00  0.00    +0.000 HD
ENDBRANCH   3   4
ENDBRANCH   2   3
ENDBRANCH   1   2
BRANCH   1   7
ATOM      7  C   UNL     1     -12.581   8.453 128.395  0.00  0.00    +0.000 C 
BRANCH   7   8
ATOM      8  C   UNL     1     -11.124   8.433 127.961  0.00  0.00    +0.000 C 
BRANCH   8   9
ATOM      9  C   UNL     1     -10.679   7.176 127.245  0.00  0.00    +0.000 C 
ATOM     10  O   UNL     1      -9.803   6.451 127.701  0.00  0.00    +0.000 OA
BRANCH   9  11
ATOM     11  O   UNL     1     -11.287   6.880 126.081  0.00  0.00    +0.000 OA
ATOM     12  H   UNL     1     -10.957   6.115 125.578  0.00  0.00    +0.000 HD
ENDBRANCH   9  11
ENDBRANCH   8   9
ENDBRANCH   7   8
ENDBRANCH   1   7
TORSDOF 7
ENDMDL
MODEL 3
REMARK VINA RESULT:      -4.5      3.356      4.189
REMARK  Name = Aminocaproic acid
REMARK  7 active torsions:
REMARK  status: ('A' for Active; 'I' for Inactive)
REMARK    1  A    between atoms: N_1  and  C_2
REMARK    2  A    between atoms: C_2  and  C_3
REMARK    3  A    between atoms: C_3  and  C_4
REMARK    4  A    between atoms: C_4  and  C_5
REMARK    5  A    between atoms: C_5  and  C_6
REMARK    6  A    between atoms: C_6  and  C_7
REMARK    7  A    between atoms: C_7  and  O_8
REMARK                            x       y       z     vdW  Elec       q    Type
REMARK                         _______ _______ _______ _____ _____    ______ ____
ROOT
ATOM      1  C   UNL     1     -12.552   8.757 128.435  0.00  0.00    +0.000 C 
ENDROOT
BRANCH   1   2
ATOM      2  C   UNL     1     -11.065   8.550 128.151  0.00  0.00    +0.000 C 
BRANCH   2   3
ATOM      3  C   UNL     1     -10.869   7.600 126.979  0.00  0.00    +0.000 C 
BRANCH   3   4
ATOM      4  N   UNL     1      -9.953   6.535 127.360  0.00  0.00    +0.000 NA
ATOM      5  H   UNL     1      -9.059   6.942 127.632  0.00  0.00    +0.000 HD
ATOM      6  H   UNL     1      -9.764   5.940 126.556  0.00  0.00    +0.000 HD
ENDBRANCH   3   4
ENDBRANCH   2   3
ENDBRANCH   1   2
BRANCH   1   7
ATOM      7  C   UNL     1     -13.156   7.465 128.964  0.00  0.00    +0.000 C 
BRANCH   7   8
ATOM      8  C   UNL     1     -12.776   7.208 130.413  0.00  0.00    +0.000 C 
BRANCH   8   9
ATOM      9  C   UNL     1     -11.881   6.009 130.644  0.00  0.00    +0.000 C 
ATOM     10  O   UNL     1     -11.495   5.305 129.718  0.00  0.00    +0.000 OA
BRANCH   9  11
ATOM     11  O   UNL     1     -11.521   5.742 131.913  0.00  0.00    +0.000 OA
ATOM     12  H   UNL     1     -10.618   5.415 132.070  0.00  0.00    +0.000 HD
ENDBRANCH   9  11
ENDBRANCH   8   9
ENDBRANCH   7   8
ENDBRANCH   1   7
TORSDOF 7
ENDMDL
MODEL 4
REMARK VINA RESULT:      -4.5      2.517      2.961
REMARK  Name = Aminocaproic acid
REMARK  7 active torsions:
REMARK  status: ('A' for Active; 'I' for Inactive)
REMARK    1  A    between atoms: N_1  and  C_2
REMARK    2  A    between atoms: C_2  and  C_3
REMARK    3  A    between atoms: C_3  and  C_4
REMARK    4  A    between atoms: C_4  and  C_5
REMARK    5  A    between atoms: C_5  and  C_6
REMARK    6  A    between atoms: C_6  and  C_7
REMARK    7  A    between atoms: C_7  and  O_8
REMARK                            x       y       z     vdW  Elec       q    Type
REMARK                         _______ _______ _______ _____ _____    ______ ____
ROOT
ATOM      1  C   UNL     1     -12.424   8.086 129.848  0.00  0.00    +0.000 C 
ENDROOT
BRANCH   1   2
ATOM      2  C   UNL     1     -12.581   7.322 131.161  0.00  0.00    +0.000 C 
BRANCH   2   3
ATOM      3  C   UNL     1     -11.514   6.244 131.286  0.00  0.00    +0.000 C 
BRANCH   3   4
ATOM      4  N   UNL     1     -10.908   6.307 132.608  0.00  0.00    +0.000 NA
ATOM      5  H   UNL     1     -11.625   6.530 133.296  0.00  0.00    +0.000 HD
ATOM      6  H   UNL     1     -10.232   7.068 132.641  0.00  0.00    +0.000 HD
ENDBRANCH   3   4
ENDBRANCH   2   3
ENDBRANCH   1   2
BRANCH   1   7
ATOM      7  C   UNL     1     -10.994   7.953 129.346  0.00  0.00    +0.000 C 
BRANCH   7   8
ATOM      8  C   UNL     1     -10.875   8.287 127.868  0.00  0.00    +0.000 C 
BRANCH   8   9
ATOM      9  C   UNL     1     -10.732   7.096 126.945  0.00  0.00    +0.000 C 
ATOM     10  O   UNL     1      -9.706   6.428 126.909  0.00  0.00    +0.000 OA
BRANCH   9  11
ATOM     11  O   UNL     1     -11.783   6.794 126.159  0.00  0.00    +0.000 OA
ATOM     12  H   UNL     1     -11.842   5.889 125.807  0.00  0.00    +0.000 HD
ENDBRANCH   9  11
ENDBRANCH   8   9
ENDBRANCH   7   8
ENDBRANCH   1   7
TORSDOF 7
ENDMDL
MODEL 5
REMARK VINA RESULT:      -4.1     13.240     14.373
REMARK  Name = Aminocaproic acid
REMARK  7 active torsions:
REMARK  status: ('A' for Active; 'I' for Inactive)
REMARK    1  A    between atoms: N_1  and  C_2
REMARK    2  A    between atoms: C_2  and  C_3
REMARK    3  A    between atoms: C_3  and  C_4
REMARK    4  A    between atoms: C_4  and  C_5
REMARK    5  A    between atoms: C_5  and  C_6
REMARK    6  A    between atoms: C_6  and  C_7
REMARK    7  A    between atoms: C_7  and  O_8
REMARK                            x       y       z     vdW  Elec       q    Type
REMARK                         _______ _______ _______ _____ _____    ______ ____
ROOT
ATOM      1  C   UNL     1      -5.881  -2.626 123.420  0.00  0.00    +0.000 C 
ENDROOT
BRANCH   1   2
ATOM      2  C   UNL     1      -5.253  -3.781 124.197  0.00  0.00    +0.000 C 
BRANCH   2   3
ATOM      3  C   UNL     1      -3.987  -4.267 123.507  0.00  0.00    +0.000 C 
BRANCH   3   4
ATOM      4  N   UNL     1      -4.179  -5.631 123.036  0.00  0.00    +0.000 NA
ATOM      5  H   UNL     1      -4.952  -6.057 123.546  0.00  0.00    +0.000 HD
ATOM      6  H   UNL     1      -3.353  -6.188 123.249  0.00  0.00    +0.000 HD
ENDBRANCH   3   4
ENDBRANCH   2   3
ENDBRANCH   1   2
BRANCH   1   7
ATOM      7  C   UNL     1      -7.383  -2.605 123.659  0.00  0.00    +0.000 C 
BRANCH   7   8
ATOM      8  C   UNL     1      -7.823  -3.696 124.621  0.00  0.00    +0.000 C 
BRANCH   8   9
ATOM      9  C   UNL     1      -8.893  -3.291 125.613  0.00  0.00    +0.000 C 
ATOM     10  O   UNL     1      -9.837  -2.582 125.288  0.00  0.00    +0.000 OA
BRANCH   9  11
ATOM     11  O   UNL     1      -8.768  -3.744 126.875  0.00  0.00    +0.000 OA
ATOM     12  H   UNL     1      -8.294  -4.582 127.013  0.00  0.00    +0.000 HD
ENDBRANCH   9  11
ENDBRANCH   8   9
ENDBRANCH   7   8
ENDBRANCH   1   7
TORSDOF 7
ENDMDL
MODEL 6
REMARK VINA RESULT:      -4.0      2.492      3.083
REMARK  Name = Aminocaproic acid
REMARK  7 active torsions:
REMARK  status: ('A' for Active; 'I' for Inactive)
REMARK    1  A    between atoms: N_1  and  C_2
REMARK    2  A    between atoms: C_2  and  C_3
REMARK    3  A    between atoms: C_3  and  C_4
REMARK    4  A    between atoms: C_4  and  C_5
REMARK    5  A    between atoms: C_5  and  C_6
REMARK    6  A    between atoms: C_6  and  C_7
REMARK    7  A    between atoms: C_7  and  O_8
REMARK                            x       y       z     vdW  Elec       q    Type
REMARK                         _______ _______ _______ _____ _____    ______ ____
ROOT
ATOM      1  C   UNL     1     -12.744   7.085 130.244  0.00  0.00    +0.000 C 
ENDROOT
BRANCH   1   2
ATOM      2  C   UNL     1     -12.589   8.548 129.835  0.00  0.00    +0.000 C 
BRANCH   2   3
ATOM      3  C   UNL     1     -12.391   8.667 128.331  0.00  0.00    +0.000 C 
BRANCH   3   4
ATOM      4  N   UNL     1     -10.972   8.783 128.032  0.00  0.00    +0.000 NA
ATOM      5  H   UNL     1     -10.590   9.591 128.520  0.00  0.00    +0.000 HD
ATOM      6  H   UNL     1     -10.844   8.962 127.037  0.00  0.00    +0.000 HD
ENDBRANCH   3   4
ENDBRANCH   2   3
ENDBRANCH   1   2
BRANCH   1   7
ATOM      7  C   UNL     1     -11.765   6.760 131.362  0.00  0.00    +0.000 C 
BRANCH   7   8
ATOM      8  C   UNL     1     -10.338   6.635 130.853  0.00  0.00    +0.000 C 
BRANCH   8   9
ATOM      9  C   UNL     1     -10.140   5.655 129.716  0.00  0.00    +0.000 C 
ATOM     10  O   UNL     1     -10.381   4.461 129.846  0.00  0.00    +0.000 OA
BRANCH   9  11
ATOM     11  O   UNL     1      -9.689   6.148 128.547  0.00  0.00    +0.000 OA
ATOM     12  H   UNL     1      -9.421   5.514 127.860  0.00  0.00    +0.000 HD
ENDBRANCH   9  11
ENDBRANCH   8   9
ENDBRANCH   7   8
ENDBRANCH   1   7
TORSDOF 7
ENDMDL
MODEL 7
REMARK VINA RESULT:      -3.9     13.490     14.368
REMARK  Name = Aminocaproic acid
REMARK  7 active torsions:
REMARK  status: ('A' for Active; 'I' for Inactive)
REMARK    1  A    between atoms: N_1  and  C_2
REMARK    2  A    between atoms: C_2  and  C_3
REMARK    3  A    between atoms: C_3  and  C_4
REMARK    4  A    between atoms: C_4  and  C_5
REMARK    5  A    between atoms: C_5  and  C_6
REMARK    6  A    between atoms: C_6  and  C_7
REMARK    7  A    between atoms: C_7  and  O_8
REMARK                            x       y       z     vdW  Elec       q    Type
REMARK                         _______ _______ _______ _____ _____    ______ ____
ROOT
ATOM      1  C   UNL     1      -6.567  -1.984 123.798  0.00  0.00    +0.000 C 
ENDROOT
BRANCH   1   2
ATOM      2  C   UNL     1      -7.713  -2.837 123.257  0.00  0.00    +0.000 C 
BRANCH   2   3
ATOM      3  C   UNL     1      -8.933  -2.731 124.160  0.00  0.00    +0.000 C 
BRANCH   3   4
ATOM      4  N   UNL     1     -10.087  -3.314 123.493  0.00  0.00    +0.000 NA
ATOM      5  H   UNL     1     -10.938  -2.896 123.866  0.00  0.00    +0.000 HD
ATOM      6  H   UNL     1     -10.141  -4.310 123.705  0.00  0.00    +0.000 HD
ENDBRANCH   3   4
ENDBRANCH   2   3
ENDBRANCH   1   2
BRANCH   1   7
ATOM      7  C   UNL     1      -5.236  -2.577 123.361  0.00  0.00    +0.000 C 
BRANCH   7   8
ATOM      8  C   UNL     1      -4.863  -3.803 124.178  0.00  0.00    +0.000 C 
BRANCH   8   9
ATOM      9  C   UNL     1      -3.920  -4.772 123.498  0.00  0.00    +0.000 C 
ATOM     10  O   UNL     1      -2.711  -4.573 123.456  0.00  0.00    +0.000 OA
BRANCH   9  11
ATOM     11  O   UNL     1      -4.461  -5.869 122.936  0.00  0.00    +0.000 OA
ATOM     12  H   UNL     1      -4.028  -6.725 123.102  0.00  0.00    +0.000 HD
ENDBRANCH   9  11
ENDBRANCH   8   9
ENDBRANCH   7   8
ENDBRANCH   1   7
TORSDOF 7
ENDMDL
MODEL 8
REMARK VINA RESULT:      -3.9      3.963      4.607
REMARK  Name = Aminocaproic acid
REMARK  7 active torsions:
REMARK  status: ('A' for Active; 'I' for Inactive)
REMARK    1  A    between atoms: N_1  and  C_2
REMARK    2  A    between atoms: C_2  and  C_3
REMARK    3  A    between atoms: C_3  and  C_4
REMARK    4  A    between atoms: C_4  and  C_5
REMARK    5  A    between atoms: C_5  and  C_6
REMARK    6  A    between atoms: C_6  and  C_7
REMARK    7  A    between atoms: C_7  and  O_8
REMARK                            x       y       z     vdW  Elec       q    Type
REMARK                         _______ _______ _______ _____ _____    ______ ____
ROOT
ATOM      1  C   UNL     1     -10.176   7.962 129.096  0.00  0.00    +0.000 C 
ENDROOT
BRANCH   1   2
ATOM      2  C   UNL     1     -10.846   8.330 127.775  0.00  0.00    +0.000 C 
BRANCH   2   3
ATOM      3  C   UNL     1     -12.016   7.400 127.489  0.00  0.00    +0.000 C 
BRANCH   3   4
ATOM      4  N   UNL     1     -11.798   6.712 126.226  0.00  0.00    +0.000 NA
ATOM      5  H   UNL     1     -12.697   6.516 125.789  0.00  0.00    +0.000 HD
ATOM      6  H   UNL     1     -11.360   5.808 126.398  0.00  0.00    +0.000 HD
ENDBRANCH   3   4
ENDBRANCH   2   3
ENDBRANCH   1   2
BRANCH   1   7
ATOM      7  C   UNL     1     -11.118   7.105 129.927  0.00  0.00    +0.000 C 
BRANCH   7   8
ATOM      8  C   UNL     1     -10.399   5.933 130.577  0.00  0.00    +0.000 C 
BRANCH   8   9
ATOM      9  C   UNL     1      -9.637   6.263 131.843  0.00  0.00    +0.000 C 
ATOM     10  O   UNL     1      -8.419   6.391 131.847  0.00  0.00    +0.000 OA
BRANCH   9  11
ATOM     11  O   UNL     1     -10.353   6.414 132.973  0.00  0.00    +0.000 OA
ATOM     12  H   UNL     1      -9.990   6.039 133.794  0.00  0.00    +0.000 HD
ENDBRANCH   9  11
ENDBRANCH   8   9
ENDBRANCH   7   8
ENDBRANCH   1   7
TORSDOF 7
ENDMDL
MODEL 9
REMARK VINA RESULT:      -3.7      5.212      6.060
REMARK  Name = Aminocaproic acid
REMARK  7 active torsions:
REMARK  status: ('A' for Active; 'I' for Inactive)
REMARK    1  A    between atoms: N_1  and  C_2
REMARK    2  A    between atoms: C_2  and  C_3
REMARK    3  A    between atoms: C_3  and  C_4
REMARK    4  A    between atoms: C_4  and  C_5
REMARK    5  A    between atoms: C_5  and  C_6
REMARK    6  A    between atoms: C_6  and  C_7
REMARK    7  A    between atoms: C_7  and  O_8
REMARK                            x       y       z     vdW  Elec       q    Type
REMARK                         _______ _______ _______ _____ _____    ______ ____
ROOT
ATOM      1  C   UNL     1      -8.261   5.929 131.841  0.00  0.00    +0.000 C 
ENDROOT
BRANCH   1   2
ATOM      2  C   UNL     1      -8.690   5.884 133.306  0.00  0.00    +0.000 C 
BRANCH   2   3
ATOM      3  C   UNL     1      -8.591   4.467 133.851  0.00  0.00    +0.000 C 
BRANCH   3   4
ATOM      4  N   UNL     1      -9.901   3.835 133.812  0.00  0.00    +0.000 NA
ATOM      5  H   UNL     1     -10.357   4.060 132.930  0.00  0.00    +0.000 HD
ATOM      6  H   UNL     1     -10.491   4.222 134.547  0.00  0.00    +0.000 HD
ENDBRANCH   3   4
ENDBRANCH   2   3
ENDBRANCH   1   2
BRANCH   1   7
ATOM      7  C   UNL     1      -9.247   6.770 131.044  0.00  0.00    +0.000 C 
BRANCH   7   8
ATOM      8  C   UNL     1     -10.689   6.388 131.335  0.00  0.00    +0.000 C 
BRANCH   8   9
ATOM      9  C   UNL     1     -11.244   5.265 130.487  0.00  0.00    +0.000 C 
ATOM     10  O   UNL     1     -11.791   5.479 129.411  0.00  0.00    +0.000 OA
BRANCH   9  11
ATOM     11  O   UNL     1     -11.114   4.011 130.959  0.00  0.00    +0.000 OA
ATOM     12  H   UNL     1     -10.303   3.523 130.735  0.00  0.00    +0.000 HD
ENDBRANCH   9  11
ENDBRANCH   8   9
ENDBRANCH   7   8
ENDBRANCH   1   7
TORSDOF 7
ENDMDL
