MODEL 1
REMARK VINA RESULT:      -5.3      0.000      0.000
REMARK  Name = Aminosalicylic acid
REMARK  4 active torsions:
REMARK  status: ('A' for Active; 'I' for Inactive)
REMARK    1  A    between atoms: N_1  and  C_2
REMARK    2  A    between atoms: C_4  and  O_5
REMARK    3  A    between atoms: C_6  and  C_9
REMARK    4  A    between atoms: C_9  and  O_10
REMARK                            x       y       z     vdW  Elec       q    Type
REMARK                         _______ _______ _______ _____ _____    ______ ____
ROOT
ATOM      1  C   UNL     1     -12.981   9.477 129.285  0.00  0.00    +0.000 A 
ATOM      2  C   UNL     1     -12.384   8.617 128.357  0.00  0.00    +0.000 A 
ATOM      3  C   UNL     1     -11.934   7.346 128.741  0.00  0.00    +0.000 A 
ATOM      4  C   UNL     1     -12.054   6.915 130.067  0.00  0.00    +0.000 A 
ATOM      5  C   UNL     1     -12.648   7.784 130.995  0.00  0.00    +0.000 A 
ATOM      6  C   UNL     1     -13.103   9.051 130.607  0.00  0.00    +0.000 A 
ENDROOT
BRANCH   1   7
ATOM      7  N   UNL     1     -13.401  10.739 128.911  0.00  0.00    +0.000 N 
ATOM      8  H   UNL     1     -13.103  11.562 129.417  0.00  0.00    +0.000 HD
ATOM      9  H   UNL     1     -13.923  10.875 128.055  0.00  0.00    +0.000 HD
ENDBRANCH   1   7
BRANCH   3  10
ATOM     10  O   UNL     1     -11.375   6.518 127.799  0.00  0.00    +0.000 OA
ATOM     11  H   UNL     1     -12.036   5.846 127.548  0.00  0.00    +0.000 HD
ENDBRANCH   3  10
BRANCH   4  12
ATOM     12  C   UNL     1     -11.584   5.586 130.565  0.00  0.00    +0.000 C 
ATOM     13  O   UNL     1     -11.464   4.620 129.825  0.00  0.00    +0.000 OA
BRANCH  12  14
ATOM     14  O   UNL     1     -11.303   5.515 131.883  0.00  0.00    +0.000 OA
ATOM     15  H   UNL     1     -10.398   5.833 132.096  0.00  0.00    +0.000 HD
ENDBRANCH  12  14
ENDBRANCH   4  12
TORSDOF 4
ENDMDL
MODEL 2
REMARK VINA RESULT:      -5.3      3.003      3.950
REMARK  Name = Aminosalicylic acid
REMARK  4 active torsions:
REMARK  status: ('A' for Active; 'I' for Inactive)
REMARK    1  A    between atoms: N_1  and  C_2
REMARK    2  A    between atoms: C_4  and  O_5
REMARK    3  A    between atoms: C_6  and  C_9
REMARK    4  A    between atoms: C_9  and  O_10
REMARK                            x       y       z     vdW  Elec       q    Type
REMARK                         _______ _______ _______ _____ _____    ______ ____
ROOT
ATOM      1  C   UNL     1     -10.866   6.344 131.855  0.00  0.00    +0.000 A 
ATOM      2  C   UNL     1     -10.022   6.724 130.806  0.00  0.00    +0.000 A 
ATOM      3  C   UNL     1     -10.498   7.519 129.753  0.00  0.00    +0.000 A 
ATOM      4  C   UNL     1     -11.834   7.934 129.717  0.00  0.00    +0.000 A 
ATOM      5  C   UNL     1     -12.678   7.545 130.769  0.00  0.00    +0.000 A 
ATOM      6  C   UNL     1     -12.197   6.757 131.823  0.00  0.00    +0.000 A 
ENDROOT
BRANCH   1   7
ATOM      7  N   UNL     1     -10.402   5.541 132.879  0.00  0.00    +0.000 N 
ATOM      8  H   UNL     1     -11.014   5.236 133.624  0.00  0.00    +0.000 HD
ATOM      9  H   UNL     1      -9.471   5.148 132.844  0.00  0.00    +0.000 HD
ENDBRANCH   1   7
BRANCH   3  10
ATOM     10  O   UNL     1      -9.636   7.893 128.752  0.00  0.00    +0.000 OA
ATOM     11  H   UNL     1      -8.798   8.182 129.159  0.00  0.00    +0.000 HD
ENDBRANCH   3  10
BRANCH   4  12
ATOM     12  C   UNL     1     -12.427   8.764 128.625  0.00  0.00    +0.000 C 
ATOM     13  O   UNL     1     -12.461   8.382 127.463  0.00  0.00    +0.000 OA
BRANCH  12  14
ATOM     14  O   UNL     1     -12.922   9.963 128.996  0.00  0.00    +0.000 OA
ATOM     15  H   UNL     1     -13.710  10.228 128.471  0.00  0.00    +0.000 HD
ENDBRANCH  12  14
ENDBRANCH   4  12
TORSDOF 4
ENDMDL
MODEL 3
REMARK VINA RESULT:      -5.3      2.226      3.575
REMARK  Name = Aminosalicylic acid
REMARK  4 active torsions:
REMARK  status: ('A' for Active; 'I' for Inactive)
REMARK    1  A    between atoms: N_1  and  C_2
REMARK    2  A    between atoms: C_4  and  O_5
REMARK    3  A    between atoms: C_6  and  C_9
REMARK    4  A    between atoms: C_9  and  O_10
REMARK                            x       y       z     vdW  Elec       q    Type
REMARK                         _______ _______ _______ _____ _____    ______ ____
ROOT
ATOM      1  C   UNL     1     -12.405   7.646 130.367  0.00  0.00    +0.000 A 
ATOM      2  C   UNL     1     -11.126   7.090 130.259  0.00  0.00    +0.000 A 
ATOM      3  C   UNL     1     -10.499   6.970 129.011  0.00  0.00    +0.000 A 
ATOM      4  C   UNL     1     -11.145   7.385 127.842  0.00  0.00    +0.000 A 
ATOM      5  C   UNL     1     -12.431   7.937 127.955  0.00  0.00    +0.000 A 
ATOM      6  C   UNL     1     -13.052   8.062 129.204  0.00  0.00    +0.000 A 
ENDROOT
BRANCH   1   7
ATOM      7  N   UNL     1     -13.032   7.742 131.595  0.00  0.00    +0.000 N 
ATOM      8  H   UNL     1     -13.029   8.606 132.119  0.00  0.00    +0.000 HD
ATOM      9  H   UNL     1     -13.603   6.982 131.942  0.00  0.00    +0.000 HD
ENDBRANCH   1   7
BRANCH   3  10
ATOM     10  O   UNL     1      -9.233   6.440 128.943  0.00  0.00    +0.000 OA
ATOM     11  H   UNL     1      -8.664   6.923 129.572  0.00  0.00    +0.000 HD
ENDBRANCH   3  10
BRANCH   4  12
ATOM     12  C   UNL     1     -10.559   7.275 126.471  0.00  0.00    +0.000 C 
ATOM     13  O   UNL     1     -10.843   8.059 125.576  0.00  0.00    +0.000 OA
BRANCH  12  14
ATOM     14  O   UNL     1      -9.697   6.255 126.278  0.00  0.00    +0.000 OA
ATOM     15  H   UNL     1      -8.776   6.560 126.117  0.00  0.00    +0.000 HD
ENDBRANCH  12  14
ENDBRANCH   4  12
TORSDOF 4
ENDMDL
MODEL 4
REMARK VINA RESULT:      -5.2      1.272      2.216
REMARK  Name = Aminosalicylic acid
REMARK  4 active torsions:
REMARK  status: ('A' for Active; 'I' for Inactive)
REMARK    1  A    between atoms: N_1  and  C_2
REMARK    2  A    between atoms: C_4  and  O_5
REMARK    3  A    between atoms: C_6  and  C_9
REMARK    4  A    between atoms: C_9  and  O_10
REMARK                            x       y       z     vdW  Elec       q    Type
REMARK                         _______ _______ _______ _____ _____    ______ ____
ROOT
ATOM      1  C   UNL     1     -12.495   8.908 129.240  0.00  0.00    +0.000 A 
ATOM      2  C   UNL     1     -12.747   8.229 130.437  0.00  0.00    +0.000 A 
ATOM      3  C   UNL     1     -12.133   6.997 130.706  0.00  0.00    +0.000 A 
ATOM      4  C   UNL     1     -11.270   6.409 129.775  0.00  0.00    +0.000 A 
ATOM      5  C   UNL     1     -11.027   7.092 128.573  0.00  0.00    +0.000 A 
ATOM      6  C   UNL     1     -11.636   8.326 128.310  0.00  0.00    +0.000 A 
ENDROOT
BRANCH   1   7
ATOM      7  N   UNL     1     -13.120  10.110 128.966  0.00  0.00    +0.000 N 
ATOM      8  H   UNL     1     -13.463  10.323 128.039  0.00  0.00    +0.000 HD
ATOM      9  H   UNL     1     -13.347  10.755 129.711  0.00  0.00    +0.000 HD
ENDBRANCH   1   7
BRANCH   3  10
ATOM     10  O   UNL     1     -12.383   6.369 131.901  0.00  0.00    +0.000 OA
ATOM     11  H   UNL     1     -12.403   7.044 132.605  0.00  0.00    +0.000 HD
ENDBRANCH   3  10
BRANCH   4  12
ATOM     12  C   UNL     1     -10.592   5.092 129.972  0.00  0.00    +0.000 C 
ATOM     13  O   UNL     1      -9.513   4.832 129.457  0.00  0.00    +0.000 OA
BRANCH  12  14
ATOM     14  O   UNL     1     -11.243   4.203 130.751  0.00  0.00    +0.000 OA
ATOM     15  H   UNL     1     -10.963   3.275 130.584  0.00  0.00    +0.000 HD
ENDBRANCH  12  14
ENDBRANCH   4  12
TORSDOF 4
ENDMDL
MODEL 5
REMARK VINA RESULT:      -5.2      2.069      2.912
REMARK  Name = Aminosalicylic acid
REMARK  4 active torsions:
REMARK  status: ('A' for Active; 'I' for Inactive)
REMARK    1  A    between atoms: N_1  and  C_2
REMARK    2  A    between atoms: C_4  and  O_5
REMARK    3  A    between atoms: C_6  and  C_9
REMARK    4  A    between atoms: C_9  and  O_10
REMARK                            x       y       z     vdW  Elec       q    Type
REMARK                         _______ _______ _______ _____ _____    ______ ____
ROOT
ATOM      1  C   UNL     1     -12.788   7.721 128.583  0.00  0.00    +0.000 A 
ATOM      2  C   UNL     1     -12.955   7.036 129.792  0.00  0.00    +0.000 A 
ATOM      3  C   UNL     1     -11.854   6.751 130.612  0.00  0.00    +0.000 A 
ATOM      4  C   UNL     1     -10.561   7.127 130.232  0.00  0.00    +0.000 A 
ATOM      5  C   UNL     1     -10.400   7.809 129.016  0.00  0.00    +0.000 A 
ATOM      6  C   UNL     1     -11.502   8.099 128.202  0.00  0.00    +0.000 A 
ENDROOT
BRANCH   1   7
ATOM      7  N   UNL     1     -13.870   7.981 127.764  0.00  0.00    +0.000 N 
ATOM      8  H   UNL     1     -14.492   7.241 127.466  0.00  0.00    +0.000 HD
ATOM      9  H   UNL     1     -14.128   8.932 127.536  0.00  0.00    +0.000 HD
ENDBRANCH   1   7
BRANCH   3  10
ATOM     10  O   UNL     1     -12.056   6.098 131.803  0.00  0.00    +0.000 OA
ATOM     11  H   UNL     1     -12.877   5.574 131.731  0.00  0.00    +0.000 HD
ENDBRANCH   3  10
BRANCH   4  12
ATOM     12  C   UNL     1      -9.333   6.845 131.036  0.00  0.00    +0.000 C 
ATOM     13  O   UNL     1      -9.389   6.460 132.196  0.00  0.00    +0.000 OA
BRANCH  12  14
ATOM     14  O   UNL     1      -8.157   7.043 130.406  0.00  0.00    +0.000 OA
ATOM     15  H   UNL     1      -8.132   6.639 129.510  0.00  0.00    +0.000 HD
ENDBRANCH  12  14
ENDBRANCH   4  12
TORSDOF 4
ENDMDL
MODEL 6
REMARK VINA RESULT:      -5.2      2.931      4.024
REMARK  Name = Aminosalicylic acid
REMARK  4 active torsions:
REMARK  status: ('A' for Active; 'I' for Inactive)
REMARK    1  A    between atoms: N_1  and  C_2
REMARK    2  A    between atoms: C_4  and  O_5
REMARK    3  A    between atoms: C_6  and  C_9
REMARK    4  A    between atoms: C_9  and  O_10
REMARK                            x       y       z     vdW  Elec       q    Type
REMARK                         _______ _______ _______ _____ _____    ______ ____
ROOT
ATOM      1  C   UNL     1     -11.068   6.440 131.244  0.00  0.00    +0.000 A 
ATOM      2  C   UNL     1     -12.329   6.583 130.656  0.00  0.00    +0.000 A 
ATOM      3  C   UNL     1     -12.456   6.873 129.290  0.00  0.00    +0.000 A 
ATOM      4  C   UNL     1     -11.323   7.045 128.487  0.00  0.00    +0.000 A 
ATOM      5  C   UNL     1     -10.060   6.906 129.083  0.00  0.00    +0.000 A 
ATOM      6  C   UNL     1      -9.937   6.610 130.447  0.00  0.00    +0.000 A 
ENDROOT
BRANCH   1   7
ATOM      7  N   UNL     1     -10.944   6.178 132.595  0.00  0.00    +0.000 N 
ATOM      8  H   UNL     1     -10.098   5.776 132.976  0.00  0.00    +0.000 HD
ATOM      9  H   UNL     1     -11.653   6.488 133.246  0.00  0.00    +0.000 HD
ENDBRANCH   1   7
BRANCH   3  10
ATOM     10  O   UNL     1     -13.709   6.983 128.740  0.00  0.00    +0.000 OA
ATOM     11  H   UNL     1     -14.313   7.337 129.420  0.00  0.00    +0.000 HD
ENDBRANCH   3  10
BRANCH   4  12
ATOM     12  C   UNL     1     -11.367   7.375 127.030  0.00  0.00    +0.000 C 
ATOM     13  O   UNL     1     -10.781   8.342 126.564  0.00  0.00    +0.000 OA
BRANCH  12  14
ATOM     14  O   UNL     1     -12.096   6.542 126.257  0.00  0.00    +0.000 OA
ATOM     15  H   UNL     1     -11.578   6.163 125.513  0.00  0.00    +0.000 HD
ENDBRANCH  12  14
ENDBRANCH   4  12
TORSDOF 4
ENDMDL
MODEL 7
REMARK VINA RESULT:      -5.0      3.044      4.312
REMARK  Name = Aminosalicylic acid
REMARK  4 active torsions:
REMARK  status: ('A' for Active; 'I' for Inactive)
REMARK    1  A    between atoms: N_1  and  C_2
REMARK    2  A    between atoms: C_4  and  O_5
REMARK    3  A    between atoms: C_6  and  C_9
REMARK    4  A    between atoms: C_9  and  O_10
REMARK                            x       y       z     vdW  Elec       q    Type
REMARK                         _______ _______ _______ _____ _____    ______ ____
ROOT
ATOM      1  C   UNL     1      -9.705   6.525 131.510  0.00  0.00    +0.000 A 
ATOM      2  C   UNL     1     -11.037   6.540 131.934  0.00  0.00    +0.000 A 
ATOM      3  C   UNL     1     -12.042   7.088 131.125  0.00  0.00    +0.000 A 
ATOM      4  C   UNL     1     -11.732   7.652 129.882  0.00  0.00    +0.000 A 
ATOM      5  C   UNL     1     -10.392   7.639 129.464  0.00  0.00    +0.000 A 
ATOM      6  C   UNL     1      -9.392   7.084 130.272  0.00  0.00    +0.000 A 
ENDROOT
BRANCH   1   7
ATOM      7  N   UNL     1      -8.712   6.006 132.320  0.00  0.00    +0.000 N 
ATOM      8  H   UNL     1      -8.772   6.066 133.327  0.00  0.00    +0.000 HD
ATOM      9  H   UNL     1      -7.960   5.457 131.925  0.00  0.00    +0.000 HD
ENDBRANCH   1   7
BRANCH   3  10
ATOM     10  O   UNL     1     -13.344   7.065 131.561  0.00  0.00    +0.000 OA
ATOM     11  H   UNL     1     -13.354   7.289 132.511  0.00  0.00    +0.000 HD
ENDBRANCH   3  10
BRANCH   4  12
ATOM     12  C   UNL     1     -12.737   8.275 128.967  0.00  0.00    +0.000 C 
ATOM     13  O   UNL     1     -13.686   7.646 128.518  0.00  0.00    +0.000 OA
BRANCH  12  14
ATOM     14  O   UNL     1     -12.533   9.573 128.662  0.00  0.00    +0.000 OA
ATOM     15  H   UNL     1     -12.848   9.806 127.761  0.00  0.00    +0.000 HD
ENDBRANCH  12  14
ENDBRANCH   4  12
TORSDOF 4
ENDMDL
MODEL 8
REMARK VINA RESULT:      -4.6     11.411     12.795
REMARK  Name = Aminosalicylic acid
REMARK  4 active torsions:
REMARK  status: ('A' for Active; 'I' for Inactive)
REMARK    1  A    between atoms: N_1  and  C_2
REMARK    2  A    between atoms: C_4  and  O_5
REMARK    3  A    between atoms: C_6  and  C_9
REMARK    4  A    between atoms: C_9  and  O_10
REMARK                            x       y       z     vdW  Elec       q    Type
REMARK                         _______ _______ _______ _____ _____    ______ ____
ROOT
ATOM      1  C   UNL     1      -6.199  -3.383 123.861  0.00  0.00    +0.000 A 
ATOM      2  C   UNL     1      -7.517  -3.605 124.272  0.00  0.00    +0.000 A 
ATOM      3  C   UNL     1      -8.508  -2.635 124.062  0.00  0.00    +0.000 A 
ATOM      4  C   UNL     1      -8.196  -1.413 123.455  0.00  0.00    +0.000 A 
ATOM      5  C   UNL     1      -6.870  -1.193 123.050  0.00  0.00    +0.000 A 
ATOM      6  C   UNL     1      -5.884  -2.167 123.254  0.00  0.00    +0.000 A 
ENDROOT
BRANCH   1   7
ATOM      7  N   UNL     1      -5.218  -4.329 124.090  0.00  0.00    +0.000 N 
ATOM      8  H   UNL     1      -4.910  -4.549 125.028  0.00  0.00    +0.000 HD
ATOM      9  H   UNL     1      -4.869  -4.903 123.334  0.00  0.00    +0.000 HD
ENDBRANCH   1   7
BRANCH   3  10
ATOM     10  O   UNL     1      -9.797  -2.895 124.457  0.00  0.00    +0.000 OA
ATOM     11  H   UNL     1      -9.778  -3.615 125.115  0.00  0.00    +0.000 HD
ENDBRANCH   3  10
BRANCH   4  12
ATOM     12  C   UNL     1      -9.184  -0.318 123.212  0.00  0.00    +0.000 C 
ATOM     13  O   UNL     1      -8.999   0.824 123.609  0.00  0.00    +0.000 OA
BRANCH  12  14
ATOM     14  O   UNL     1     -10.296  -0.666 122.531  0.00  0.00    +0.000 OA
ATOM     15  H   UNL     1     -10.447  -1.637 122.519  0.00  0.00    +0.000 HD
ENDBRANCH  12  14
ENDBRANCH   4  12
TORSDOF 4
ENDMDL
MODEL 9
REMARK VINA RESULT:      -4.5      9.404     10.394
REMARK  Name = Aminosalicylic acid
REMARK  4 active torsions:
REMARK  status: ('A' for Active; 'I' for Inactive)
REMARK    1  A    between atoms: N_1  and  C_2
REMARK    2  A    between atoms: C_4  and  O_5
REMARK    3  A    between atoms: C_6  and  C_9
REMARK    4  A    between atoms: C_9  and  O_10
REMARK                            x       y       z     vdW  Elec       q    Type
REMARK                         _______ _______ _______ _____ _____    ______ ____
ROOT
ATOM      1  C   UNL     1      -8.090   2.497 123.767  0.00  0.00    +0.000 A 
ATOM      2  C   UNL     1      -9.343   2.110 123.282  0.00  0.00    +0.000 A 
ATOM      3  C   UNL     1      -9.631   0.761 123.031  0.00  0.00    +0.000 A 
ATOM      4  C   UNL     1      -8.664  -0.228 123.241  0.00  0.00    +0.000 A 
ATOM      5  C   UNL     1      -7.405   0.167 123.722  0.00  0.00    +0.000 A 
ATOM      6  C   UNL     1      -7.124   1.515 123.978  0.00  0.00    +0.000 A 
ENDROOT
BRANCH   1   7
ATOM      7  N   UNL     1      -7.799   3.830 123.990  0.00  0.00    +0.000 N 
ATOM      8  H   UNL     1      -8.522   4.537 123.957  0.00  0.00    +0.000 HD
ATOM      9  H   UNL     1      -6.880   4.111 124.303  0.00  0.00    +0.000 HD
ENDBRANCH   1   7
BRANCH   3  10
ATOM     10  O   UNL     1     -10.879   0.414 122.577  0.00  0.00    +0.000 OA
ATOM     11  H   UNL     1     -10.867  -0.532 122.336  0.00  0.00    +0.000 HD
ENDBRANCH   3  10
BRANCH   4  12
ATOM     12  C   UNL     1      -8.879  -1.684 122.980  0.00  0.00    +0.000 C 
ATOM     13  O   UNL     1      -9.835  -2.293 123.442  0.00  0.00    +0.000 OA
BRANCH  12  14
ATOM     14  O   UNL     1      -7.954  -2.289 122.207  0.00  0.00    +0.000 OA
ATOM     15  H   UNL     1      -8.298  -3.095 121.762  0.00  0.00    +0.000 HD
ENDBRANCH  12  14
ENDBRANCH   4  12
TORSDOF 4
ENDMDL
