MODEL 1
REMARK VINA RESULT:      -6.1      0.000      0.000
REMARK  Name = Aminophenazone
REMARK  6 active torsions:
REMARK  status: ('A' for Active; 'I' for Inactive)
REMARK    1  A    between atoms: C_1  and  N_2
REMARK    2  A    between atoms: N_2  and  C_3
REMARK    3  A    between atoms: N_2  and  C_4
REMARK    4  A    between atoms: C_5  and  C_6
REMARK    5  A    between atoms: N_7  and  C_8
REMARK    6  A    between atoms: N_9  and  C_12
REMARK                            x       y       z     vdW  Elec       q    Type
REMARK                         _______ _______ _______ _____ _____    ______ ____
ROOT
ATOM      1  C   UNL     1      -8.616   5.023 130.351  0.00  0.00    +0.000 A 
ATOM      2  C   UNL     1      -9.285   5.238 131.523  0.00  0.00    +0.000 A 
ATOM      3  C   UNL     1      -8.857   4.758 132.889  0.00  0.00    +0.000 C 
ATOM      4  N   UNL     1     -10.417   6.068 131.348  0.00  0.00    +0.000 N 
ATOM      5  C   UNL     1     -11.499   6.455 132.249  0.00  0.00    +0.000 C 
ATOM      6  N   UNL     1     -10.571   6.263 129.971  0.00  0.00    +0.000 N 
ATOM      7  C   UNL     1      -9.497   5.698 129.308  0.00  0.00    +0.000 A 
ATOM      8  O   UNL     1      -9.272   5.730 128.100  0.00  0.00    +0.000 OA
ENDROOT
BRANCH   6   9
ATOM      9  C   UNL     1     -11.594   6.991 129.347  0.00  0.00    +0.000 A 
ATOM     10  C   UNL     1     -11.494   8.370 129.168  0.00  0.00    +0.000 A 
ATOM     11  C   UNL     1     -12.532   9.076 128.558  0.00  0.00    +0.000 A 
ATOM     12  C   UNL     1     -13.645   8.395 128.063  0.00  0.00    +0.000 A 
ATOM     13  C   UNL     1     -13.736   7.012 128.205  0.00  0.00    +0.000 A 
ATOM     14  C   UNL     1     -12.708   6.311 128.838  0.00  0.00    +0.000 A 
ENDBRANCH   6   9
BRANCH   1  16
ATOM     15  C   UNL     1      -7.403   2.905 129.727  0.00  0.00    +0.000 C 
ATOM     16  N   UNL     1      -7.433   4.364 129.967  0.00  0.00    +0.000 N 
ATOM     17  C   UNL     1      -6.117   4.972 130.128  0.00  0.00    +0.000 C 
ENDBRANCH   1  16
TORSDOF 2
ENDMDL
MODEL 2
REMARK VINA RESULT:      -5.9      2.006      2.653
REMARK  Name = Aminophenazone
REMARK  6 active torsions:
REMARK  status: ('A' for Active; 'I' for Inactive)
REMARK    1  A    between atoms: C_1  and  N_2
REMARK    2  A    between atoms: N_2  and  C_3
REMARK    3  A    between atoms: N_2  and  C_4
REMARK    4  A    between atoms: C_5  and  C_6
REMARK    5  A    between atoms: N_7  and  C_8
REMARK    6  A    between atoms: N_9  and  C_12
REMARK                            x       y       z     vdW  Elec       q    Type
REMARK                         _______ _______ _______ _____ _____    ______ ____
ROOT
ATOM      1  C   UNL     1      -8.972   3.241 130.738  0.00  0.00    +0.000 A 
ATOM      2  C   UNL     1      -8.067   4.216 131.054  0.00  0.00    +0.000 A 
ATOM      3  C   UNL     1      -6.622   3.995 131.430  0.00  0.00    +0.000 C 
ATOM      4  N   UNL     1      -8.606   5.515 130.901  0.00  0.00    +0.000 N 
ATOM      5  C   UNL     1      -8.092   6.837 131.244  0.00  0.00    +0.000 C 
ATOM      6  N   UNL     1      -9.970   5.361 130.626  0.00  0.00    +0.000 N 
ATOM      7  C   UNL     1     -10.255   4.017 130.470  0.00  0.00    +0.000 A 
ATOM      8  O   UNL     1     -11.336   3.519 130.164  0.00  0.00    +0.000 OA
ENDROOT
BRANCH   6   9
ATOM      9  C   UNL     1     -10.899   6.395 130.443  0.00  0.00    +0.000 A 
ATOM     10  C   UNL     1     -10.956   7.111 129.247  0.00  0.00    +0.000 A 
ATOM     11  C   UNL     1     -11.880   8.147 129.094  0.00  0.00    +0.000 A 
ATOM     12  C   UNL     1     -12.795   8.425 130.109  0.00  0.00    +0.000 A 
ATOM     13  C   UNL     1     -12.769   7.688 131.292  0.00  0.00    +0.000 A 
ATOM     14  C   UNL     1     -11.828   6.670 131.455  0.00  0.00    +0.000 A 
ENDBRANCH   6   9
BRANCH   1  16
ATOM     15  C   UNL     1      -9.327   0.980 131.790  0.00  0.00    +0.000 C 
ATOM     16  N   UNL     1      -8.954   1.836 130.645  0.00  0.00    +0.000 N 
ATOM     17  C   UNL     1      -8.244   1.137 129.580  0.00  0.00    +0.000 C 
ENDBRANCH   1  16
TORSDOF 2
ENDMDL
MODEL 3
REMARK VINA RESULT:      -5.8      6.706      8.393
REMARK  Name = Aminophenazone
REMARK  6 active torsions:
REMARK  status: ('A' for Active; 'I' for Inactive)
REMARK    1  A    between atoms: C_1  and  N_2
REMARK    2  A    between atoms: N_2  and  C_3
REMARK    3  A    between atoms: N_2  and  C_4
REMARK    4  A    between atoms: C_5  and  C_6
REMARK    5  A    between atoms: N_7  and  C_8
REMARK    6  A    between atoms: N_9  and  C_12
REMARK                            x       y       z     vdW  Elec       q    Type
REMARK                         _______ _______ _______ _____ _____    ______ ____
ROOT
ATOM      1  C   UNL     1      -5.865   3.181 125.651  0.00  0.00    +0.000 A 
ATOM      2  C   UNL     1      -6.188   1.894 125.321  0.00  0.00    +0.000 A 
ATOM      3  C   UNL     1      -6.065   0.690 126.223  0.00  0.00    +0.000 C 
ATOM      4  N   UNL     1      -6.760   1.801 124.031  0.00  0.00    +0.000 N 
ATOM      5  C   UNL     1      -7.125   0.658 123.199  0.00  0.00    +0.000 C 
ATOM      6  N   UNL     1      -6.652   3.067 123.444  0.00  0.00    +0.000 N 
ATOM      7  C   UNL     1      -6.160   3.961 124.377  0.00  0.00    +0.000 A 
ATOM      8  O   UNL     1      -5.994   5.170 124.229  0.00  0.00    +0.000 OA
ENDROOT
BRANCH   6   9
ATOM      9  C   UNL     1      -7.057   3.416 122.148  0.00  0.00    +0.000 A 
ATOM     10  C   UNL     1      -8.406   3.450 121.797  0.00  0.00    +0.000 A 
ATOM     11  C   UNL     1      -8.785   3.785 120.496  0.00  0.00    +0.000 A 
ATOM     12  C   UNL     1      -7.819   4.154 119.559  0.00  0.00    +0.000 A 
ATOM     13  C   UNL     1      -6.471   4.159 119.913  0.00  0.00    +0.000 A 
ATOM     14  C   UNL     1      -6.092   3.798 121.207  0.00  0.00    +0.000 A 
ENDBRANCH   6   9
BRANCH   1  16
ATOM     15  C   UNL     1      -3.907   4.080 126.958  0.00  0.00    +0.000 C 
ATOM     16  N   UNL     1      -5.355   3.836 126.788  0.00  0.00    +0.000 N 
ATOM     17  C   UNL     1      -6.136   3.991 128.010  0.00  0.00    +0.000 C 
ENDBRANCH   1  16
TORSDOF 2
ENDMDL
MODEL 4
REMARK VINA RESULT:      -5.7      6.807      8.454
REMARK  Name = Aminophenazone
REMARK  6 active torsions:
REMARK  status: ('A' for Active; 'I' for Inactive)
REMARK    1  A    between atoms: C_1  and  N_2
REMARK    2  A    between atoms: N_2  and  C_3
REMARK    3  A    between atoms: N_2  and  C_4
REMARK    4  A    between atoms: C_5  and  C_6
REMARK    5  A    between atoms: N_7  and  C_8
REMARK    6  A    between atoms: N_9  and  C_12
REMARK                            x       y       z     vdW  Elec       q    Type
REMARK                         _______ _______ _______ _____ _____    ______ ____
ROOT
ATOM      1  C   UNL     1      -7.814   0.291 125.441  0.00  0.00    +0.000 A 
ATOM      2  C   UNL     1      -7.994   1.518 126.017  0.00  0.00    +0.000 A 
ATOM      3  C   UNL     1      -8.232   1.781 127.484  0.00  0.00    +0.000 C 
ATOM      4  N   UNL     1      -7.837   2.573 125.088  0.00  0.00    +0.000 N 
ATOM      5  C   UNL     1      -8.065   4.011 125.188  0.00  0.00    +0.000 C 
ATOM      6  N   UNL     1      -7.707   1.986 123.824  0.00  0.00    +0.000 N 
ATOM      7  C   UNL     1      -7.642   0.613 123.962  0.00  0.00    +0.000 A 
ATOM      8  O   UNL     1      -7.469  -0.215 123.070  0.00  0.00    +0.000 OA
ENDROOT
BRANCH   6   9
ATOM      9  C   UNL     1      -7.571   2.668 122.606  0.00  0.00    +0.000 A 
ATOM     10  C   UNL     1      -8.689   3.086 121.883  0.00  0.00    +0.000 A 
ATOM     11  C   UNL     1      -8.529   3.749 120.665  0.00  0.00    +0.000 A 
ATOM     12  C   UNL     1      -7.251   4.057 120.198  0.00  0.00    +0.000 A 
ATOM     13  C   UNL     1      -6.130   3.676 120.933  0.00  0.00    +0.000 A 
ATOM     14  C   UNL     1      -6.291   2.990 122.138  0.00  0.00    +0.000 A 
ENDBRANCH   6   9
BRANCH   1  16
ATOM     15  C   UNL     1      -6.510  -1.766 126.085  0.00  0.00    +0.000 C 
ATOM     16  N   UNL     1      -7.784  -1.043 125.890  0.00  0.00    +0.000 N 
ATOM     17  C   UNL     1      -8.961  -1.903 125.849  0.00  0.00    +0.000 C 
ENDBRANCH   1  16
TORSDOF 2
ENDMDL
MODEL 5
REMARK VINA RESULT:      -5.6      1.784      2.162
REMARK  Name = Aminophenazone
REMARK  6 active torsions:
REMARK  status: ('A' for Active; 'I' for Inactive)
REMARK    1  A    between atoms: C_1  and  N_2
REMARK    2  A    between atoms: N_2  and  C_3
REMARK    3  A    between atoms: N_2  and  C_4
REMARK    4  A    between atoms: C_5  and  C_6
REMARK    5  A    between atoms: N_7  and  C_8
REMARK    6  A    between atoms: N_9  and  C_12
REMARK                            x       y       z     vdW  Elec       q    Type
REMARK                         _______ _______ _______ _____ _____    ______ ____
ROOT
ATOM      1  C   UNL     1      -7.787   5.270 131.339  0.00  0.00    +0.000 A 
ATOM      2  C   UNL     1      -8.767   4.321 131.258  0.00  0.00    +0.000 A 
ATOM      3  C   UNL     1      -8.672   2.903 131.767  0.00  0.00    +0.000 C 
ATOM      4  N   UNL     1      -9.966   4.836 130.713  0.00  0.00    +0.000 N 
ATOM      5  C   UNL     1     -11.213   4.196 130.305  0.00  0.00    +0.000 C 
ATOM      6  N   UNL     1      -9.690   6.137 130.278  0.00  0.00    +0.000 N 
ATOM      7  C   UNL     1      -8.407   6.483 130.660  0.00  0.00    +0.000 A 
ATOM      8  O   UNL     1      -7.854   7.569 130.499  0.00  0.00    +0.000 OA
ENDROOT
BRANCH   6   9
ATOM      9  C   UNL     1     -10.587   7.002 129.636  0.00  0.00    +0.000 A 
ATOM     10  C   UNL     1     -10.500   7.245 128.265  0.00  0.00    +0.000 A 
ATOM     11  C   UNL     1     -11.395   8.123 127.650  0.00  0.00    +0.000 A 
ATOM     12  C   UNL     1     -12.422   8.708 128.390  0.00  0.00    +0.000 A 
ATOM     13  C   UNL     1     -12.538   8.442 129.753  0.00  0.00    +0.000 A 
ATOM     14  C   UNL     1     -11.627   7.584 130.372  0.00  0.00    +0.000 A 
ENDBRANCH   6   9
BRANCH   1  16
ATOM     15  C   UNL     1      -5.332   4.757 131.101  0.00  0.00    +0.000 C 
ATOM     16  N   UNL     1      -6.474   5.328 131.846  0.00  0.00    +0.000 N 
ATOM     17  C   UNL     1      -6.194   5.611 133.248  0.00  0.00    +0.000 C 
ENDBRANCH   1  16
TORSDOF 2
ENDMDL
MODEL 6
REMARK VINA RESULT:      -5.5      7.368      8.792
REMARK  Name = Aminophenazone
REMARK  6 active torsions:
REMARK  status: ('A' for Active; 'I' for Inactive)
REMARK    1  A    between atoms: C_1  and  N_2
REMARK    2  A    between atoms: N_2  and  C_3
REMARK    3  A    between atoms: N_2  and  C_4
REMARK    4  A    between atoms: C_5  and  C_6
REMARK    5  A    between atoms: N_7  and  C_8
REMARK    6  A    between atoms: N_9  and  C_12
REMARK                            x       y       z     vdW  Elec       q    Type
REMARK                         _______ _______ _______ _____ _____    ______ ____
ROOT
ATOM      1  C   UNL     1      -3.075   4.420 128.688  0.00  0.00    +0.000 A 
ATOM      2  C   UNL     1      -3.518   3.770 129.806  0.00  0.00    +0.000 A 
ATOM      3  C   UNL     1      -4.246   2.448 129.833  0.00  0.00    +0.000 C 
ATOM      4  N   UNL     1      -3.135   4.432 130.996  0.00  0.00    +0.000 N 
ATOM      5  C   UNL     1      -3.481   4.212 132.397  0.00  0.00    +0.000 C 
ATOM      6  N   UNL     1      -2.554   5.648 130.617  0.00  0.00    +0.000 N 
ATOM      7  C   UNL     1      -2.446   5.692 129.240  0.00  0.00    +0.000 A 
ATOM      8  O   UNL     1      -1.931   6.581 128.565  0.00  0.00    +0.000 OA
ENDROOT
BRANCH   6   9
ATOM      9  C   UNL     1      -2.070   6.639 131.483  0.00  0.00    +0.000 A 
ATOM     10  C   UNL     1      -0.772   6.584 131.990  0.00  0.00    +0.000 A 
ATOM     11  C   UNL     1      -0.317   7.574 132.862  0.00  0.00    +0.000 A 
ATOM     12  C   UNL     1      -1.135   8.659 133.178  0.00  0.00    +0.000 A 
ATOM     13  C   UNL     1      -2.420   8.740 132.646  0.00  0.00    +0.000 A 
ATOM     14  C   UNL     1      -2.883   7.737 131.794  0.00  0.00    +0.000 A 
ENDBRANCH   6   9
BRANCH   1  16
ATOM     15  C   UNL     1      -4.330   4.398 126.504  0.00  0.00    +0.000 C 
ATOM     16  N   UNL     1      -3.104   4.181 127.301  0.00  0.00    +0.000 N 
ATOM     17  C   UNL     1      -2.085   3.383 126.628  0.00  0.00    +0.000 C 
ENDBRANCH   1  16
TORSDOF 2
ENDMDL
MODEL 7
REMARK VINA RESULT:      -5.5      1.689      3.047
REMARK  Name = Aminophenazone
REMARK  6 active torsions:
REMARK  status: ('A' for Active; 'I' for Inactive)
REMARK    1  A    between atoms: C_1  and  N_2
REMARK    2  A    between atoms: N_2  and  C_3
REMARK    3  A    between atoms: N_2  and  C_4
REMARK    4  A    between atoms: C_5  and  C_6
REMARK    5  A    between atoms: N_7  and  C_8
REMARK    6  A    between atoms: N_9  and  C_12
REMARK                            x       y       z     vdW  Elec       q    Type
REMARK                         _______ _______ _______ _____ _____    ______ ____
ROOT
ATOM      1  C   UNL     1      -8.808   5.144 131.967  0.00  0.00    +0.000 A 
ATOM      2  C   UNL     1      -8.322   4.781 130.742  0.00  0.00    +0.000 A 
ATOM      3  C   UNL     1      -7.102   3.927 130.490  0.00  0.00    +0.000 C 
ATOM      4  N   UNL     1      -9.154   5.219 129.686  0.00  0.00    +0.000 N 
ATOM      5  C   UNL     1      -8.990   5.201 128.236  0.00  0.00    +0.000 C 
ATOM      6  N   UNL     1     -10.136   6.038 130.253  0.00  0.00    +0.000 N 
ATOM      7  C   UNL     1     -10.017   6.007 131.630  0.00  0.00    +0.000 A 
ATOM      8  O   UNL     1     -10.748   6.559 132.450  0.00  0.00    +0.000 OA
ENDROOT
BRANCH   6   9
ATOM      9  C   UNL     1     -11.147   6.720 129.560  0.00  0.00    +0.000 A 
ATOM     10  C   UNL     1     -12.389   6.130 129.330  0.00  0.00    +0.000 A 
ATOM     11  C   UNL     1     -13.375   6.822 128.624  0.00  0.00    +0.000 A 
ATOM     12  C   UNL     1     -13.146   8.133 128.206  0.00  0.00    +0.000 A 
ATOM     13  C   UNL     1     -11.920   8.743 128.465  0.00  0.00    +0.000 A 
ATOM     14  C   UNL     1     -10.926   8.041 129.148  0.00  0.00    +0.000 A 
ENDBRANCH   6   9
BRANCH   1  16
ATOM     15  C   UNL     1      -7.218   5.517 133.885  0.00  0.00    +0.000 C 
ATOM     16  N   UNL     1      -8.441   4.921 133.308  0.00  0.00    +0.000 N 
ATOM     17  C   UNL     1      -9.009   3.836 134.099  0.00  0.00    +0.000 C 
ENDBRANCH   1  16
TORSDOF 2
ENDMDL
MODEL 8
REMARK VINA RESULT:      -5.4      5.837      8.820
REMARK  Name = Aminophenazone
REMARK  6 active torsions:
REMARK  status: ('A' for Active; 'I' for Inactive)
REMARK    1  A    between atoms: C_1  and  N_2
REMARK    2  A    between atoms: N_2  and  C_3
REMARK    3  A    between atoms: N_2  and  C_4
REMARK    4  A    between atoms: C_5  and  C_6
REMARK    5  A    between atoms: N_7  and  C_8
REMARK    6  A    between atoms: N_9  and  C_12
REMARK                            x       y       z     vdW  Elec       q    Type
REMARK                         _______ _______ _______ _____ _____    ______ ____
ROOT
ATOM      1  C   UNL     1      -7.315   2.334 126.238  0.00  0.00    +0.000 A 
ATOM      2  C   UNL     1      -6.137   1.641 126.243  0.00  0.00    +0.000 A 
ATOM      3  C   UNL     1      -4.798   2.172 126.693  0.00  0.00    +0.000 C 
ATOM      4  N   UNL     1      -6.310   0.291 125.857  0.00  0.00    +0.000 N 
ATOM      5  C   UNL     1      -5.358  -0.780 125.578  0.00  0.00    +0.000 C 
ATOM      6  N   UNL     1      -7.637   0.155 125.433  0.00  0.00    +0.000 N 
ATOM      7  C   UNL     1      -8.316   1.335 125.673  0.00  0.00    +0.000 A 
ATOM      8  O   UNL     1      -9.510   1.555 125.482  0.00  0.00    +0.000 OA
ENDROOT
BRANCH   6   9
ATOM      9  C   UNL     1      -8.228  -1.011 124.927  0.00  0.00    +0.000 A 
ATOM     10  C   UNL     1      -8.813  -1.952 125.775  0.00  0.00    +0.000 A 
ATOM     11  C   UNL     1      -9.382  -3.113 125.249  0.00  0.00    +0.000 A 
ATOM     12  C   UNL     1      -9.430  -3.306 123.868  0.00  0.00    +0.000 A 
ATOM     13  C   UNL     1      -8.881  -2.352 123.012  0.00  0.00    +0.000 A 
ATOM     14  C   UNL     1      -8.289  -1.204 123.541  0.00  0.00    +0.000 A 
ENDBRANCH   6   9
BRANCH   1  16
ATOM     15  C   UNL     1      -7.750   4.732 125.599  0.00  0.00    +0.000 C 
ATOM     16  N   UNL     1      -7.725   3.635 126.589  0.00  0.00    +0.000 N 
ATOM     17  C   UNL     1      -7.801   4.077 127.976  0.00  0.00    +0.000 C 
ENDBRANCH   1  16
TORSDOF 2
ENDMDL
MODEL 9
REMARK VINA RESULT:      -5.4      2.298      6.097
REMARK  Name = Aminophenazone
REMARK  6 active torsions:
REMARK  status: ('A' for Active; 'I' for Inactive)
REMARK    1  A    between atoms: C_1  and  N_2
REMARK    2  A    between atoms: N_2  and  C_3
REMARK    3  A    between atoms: N_2  and  C_4
REMARK    4  A    between atoms: C_5  and  C_6
REMARK    5  A    between atoms: N_7  and  C_8
REMARK    6  A    between atoms: N_9  and  C_12
REMARK                            x       y       z     vdW  Elec       q    Type
REMARK                         _______ _______ _______ _____ _____    ______ ____
ROOT
ATOM      1  C   UNL     1     -10.022   5.456 130.559  0.00  0.00    +0.000 A 
ATOM      2  C   UNL     1      -8.699   5.623 130.860  0.00  0.00    +0.000 A 
ATOM      3  C   UNL     1      -7.994   6.943 131.055  0.00  0.00    +0.000 C 
ATOM      4  N   UNL     1      -8.041   4.389 131.073  0.00  0.00    +0.000 N 
ATOM      5  C   UNL     1      -6.636   4.049 131.273  0.00  0.00    +0.000 C 
ATOM      6  N   UNL     1      -8.948   3.379 130.736  0.00  0.00    +0.000 N 
ATOM      7  C   UNL     1     -10.178   3.945 130.457  0.00  0.00    +0.000 A 
ATOM      8  O   UNL     1     -11.221   3.354 130.183  0.00  0.00    +0.000 OA
ENDROOT
BRANCH   6   9
ATOM      9  C   UNL     1      -8.697   1.999 130.759  0.00  0.00    +0.000 A 
ATOM     10  C   UNL     1      -9.021   1.225 131.874  0.00  0.00    +0.000 A 
ATOM     11  C   UNL     1      -8.747  -0.144 131.880  0.00  0.00    +0.000 A 
ATOM     12  C   UNL     1      -8.212  -0.756 130.746  0.00  0.00    +0.000 A 
ATOM     13  C   UNL     1      -7.921   0.004 129.615  0.00  0.00    +0.000 A 
ATOM     14  C   UNL     1      -8.171   1.378 129.619  0.00  0.00    +0.000 A 
ENDBRANCH   6   9
BRANCH   1  16
ATOM     15  C   UNL     1     -11.248   7.093 129.087  0.00  0.00    +0.000 C 
ATOM     16  N   UNL     1     -11.123   6.305 130.331  0.00  0.00    +0.000 N 
ATOM     17  C   UNL     1     -12.002   6.742 131.409  0.00  0.00    +0.000 C 
ENDBRANCH   1  16
TORSDOF 2
ENDMDL
