MODEL 1
REMARK VINA RESULT:      -7.1      0.000      0.000
REMARK  Name = Amiodarone
REMARK  14 active torsions:
REMARK  status: ('A' for Active; 'I' for Inactive)
REMARK    1  A    between atoms: C_1  and  C_2
REMARK    2  A    between atoms: C_2  and  C_3
REMARK    3  A    between atoms: C_3  and  C_4
REMARK    4  A    between atoms: C_4  and  C_5
REMARK    5  A    between atoms: C_6  and  C_7
REMARK    6  A    between atoms: C_7  and  C_9
REMARK    7  A    between atoms: C_13  and  O_14
REMARK    8  A    between atoms: O_14  and  C_15
REMARK    9  A    between atoms: C_15  and  C_16
REMARK   10  A    between atoms: C_16  and  N_17
REMARK   11  A    between atoms: N_17  and  C_18
REMARK   12  A    between atoms: N_17  and  C_20
REMARK   13  A    between atoms: C_18  and  C_19
REMARK   14  A    between atoms: C_20  and  C_21
REMARK                            x       y       z     vdW  Elec       q    Type
REMARK                         _______ _______ _______ _____ _____    ______ ____
ROOT
ATOM      1  C   UNL     1      -7.257   5.320 130.558  0.00  0.00    +0.000 A 
ATOM      2  C   UNL     1      -6.046   5.076 131.173  0.00  0.00    +0.000 A 
ATOM      3  C   UNL     1      -5.320   3.932 130.828  0.00  0.00    +0.000 A 
ATOM      4  I   UNL     1      -3.324   4.251 131.513  0.00  0.00    +0.000 I 
ATOM      5  C   UNL     1      -5.892   2.939 129.979  0.00  0.00    +0.000 A 
ATOM      6  C   UNL     1      -7.192   3.181 129.480  0.00  0.00    +0.000 A 
ATOM      7  I   UNL     1      -8.197   1.822 128.222  0.00  0.00    +0.000 I 
ATOM      8  C   UNL     1      -7.860   4.375 129.743  0.00  0.00    +0.000 A 
ENDROOT
BRANCH   1   9
ATOM      9  C   UNL     1      -7.903   6.621 130.709  0.00  0.00    +0.000 C 
ATOM     10  O   UNL     1      -7.163   7.587 130.643  0.00  0.00    +0.000 OA
BRANCH   9  12
ATOM     11  C   UNL     1      -9.919   6.238 132.138  0.00  0.00    +0.000 A 
ATOM     12  C   UNL     1      -9.345   6.685 130.960  0.00  0.00    +0.000 A 
ATOM     13  C   UNL     1     -10.435   7.169 130.171  0.00  0.00    +0.000 A 
ATOM     14  C   UNL     1     -11.594   6.948 130.911  0.00  0.00    +0.000 A 
ATOM     15  O   UNL     1     -11.276   6.379 132.113  0.00  0.00    +0.000 OA
ATOM     16  C   UNL     1     -12.875   7.275 130.451  0.00  0.00    +0.000 A 
ATOM     17  C   UNL     1     -12.967   7.877 129.185  0.00  0.00    +0.000 A 
ATOM     18  C   UNL     1     -11.832   8.137 128.429  0.00  0.00    +0.000 A 
ATOM     19  C   UNL     1     -10.578   7.762 128.902  0.00  0.00    +0.000 A 
BRANCH  11  20
ATOM     20  C   UNL     1      -9.271   5.716 133.373  0.00  0.00    +0.000 C 
BRANCH  20  21
ATOM     21  C   UNL     1      -9.290   4.182 133.333  0.00  0.00    +0.000 C 
BRANCH  21  23
ATOM     22  C   UNL     1      -7.718   2.261 133.236  0.00  0.00    +0.000 C 
ATOM     23  C   UNL     1      -8.037   3.572 133.937  0.00  0.00    +0.000 C 
ENDBRANCH  21  23
ENDBRANCH  20  21
ENDBRANCH  11  20
ENDBRANCH   9  12
ENDBRANCH   1   9
BRANCH   5  24
ATOM     24  O   UNL     1      -5.344   1.758 129.504  0.00  0.00    +0.000 OA
BRANCH  24  25
ATOM     25  C   UNL     1      -4.225   1.942 128.668  0.00  0.00    +0.000 C 
BRANCH  25  26
ATOM     26  C   UNL     1      -4.460   2.190 127.180  0.00  0.00    +0.000 C 
BRANCH  26  27
ATOM     27  N   UNL     1      -3.858   3.479 126.715  0.00  0.00    +0.000 NA
BRANCH  27  28
ATOM     28  C   UNL     1      -4.667   4.684 127.021  0.00  0.00    +0.000 C 
ATOM     29  C   UNL     1      -4.022   5.776 127.849  0.00  0.00    +0.000 C 
ENDBRANCH  27  28
BRANCH  27  30
ATOM     30  C   UNL     1      -2.521   3.617 127.336  0.00  0.00    +0.000 C 
ATOM     31  C   UNL     1      -1.403   2.948 126.536  0.00  0.00    +0.000 C 
ENDBRANCH  27  30
ENDBRANCH  26  27
ENDBRANCH  25  26
ENDBRANCH  24  25
ENDBRANCH   5  24
TORSDOF 11
ENDMDL
MODEL 2
REMARK VINA RESULT:      -6.9      2.096      2.628
REMARK  Name = Amiodarone
REMARK  14 active torsions:
REMARK  status: ('A' for Active; 'I' for Inactive)
REMARK    1  A    between atoms: C_1  and  C_2
REMARK    2  A    between atoms: C_2  and  C_3
REMARK    3  A    between atoms: C_3  and  C_4
REMARK    4  A    between atoms: C_4  and  C_5
REMARK    5  A    between atoms: C_6  and  C_7
REMARK    6  A    between atoms: C_7  and  C_9
REMARK    7  A    between atoms: C_13  and  O_14
REMARK    8  A    between atoms: O_14  and  C_15
REMARK    9  A    between atoms: C_15  and  C_16
REMARK   10  A    between atoms: C_16  and  N_17
REMARK   11  A    between atoms: N_17  and  C_18
REMARK   12  A    between atoms: N_17  and  C_20
REMARK   13  A    between atoms: C_18  and  C_19
REMARK   14  A    between atoms: C_20  and  C_21
REMARK                            x       y       z     vdW  Elec       q    Type
REMARK                         _______ _______ _______ _____ _____    ______ ____
ROOT
ATOM      1  C   UNL     1      -6.609   5.328 130.127  0.00  0.00    +0.000 A 
ATOM      2  C   UNL     1      -5.269   5.319 129.799  0.00  0.00    +0.000 A 
ATOM      3  C   UNL     1      -4.778   4.327 128.945  0.00  0.00    +0.000 A 
ATOM      4  I   UNL     1      -2.889   5.017 128.234  0.00  0.00    +0.000 I 
ATOM      5  C   UNL     1      -5.607   3.236 128.549  0.00  0.00    +0.000 A 
ATOM      6  C   UNL     1      -6.940   3.228 129.022  0.00  0.00    +0.000 A 
ATOM      7  I   UNL     1      -8.304   1.693 128.549  0.00  0.00    +0.000 I 
ATOM      8  C   UNL     1      -7.447   4.279 129.782  0.00  0.00    +0.000 A 
ENDROOT
BRANCH   1   9
ATOM      9  C   UNL     1      -7.188   6.488 130.799  0.00  0.00    +0.000 C 
ATOM     10  O   UNL     1      -6.447   7.449 130.923  0.00  0.00    +0.000 OA
BRANCH   9  12
ATOM     11  C   UNL     1      -8.884   5.849 132.521  0.00  0.00    +0.000 A 
ATOM     12  C   UNL     1      -8.562   6.419 131.301  0.00  0.00    +0.000 A 
ATOM     13  C   UNL     1      -9.807   6.865 130.755  0.00  0.00    +0.000 A 
ATOM     14  C   UNL     1     -10.796   6.503 131.665  0.00  0.00    +0.000 A 
ATOM     15  O   UNL     1     -10.230   5.881 132.745  0.00  0.00    +0.000 OA
ATOM     16  C   UNL     1     -12.158   6.755 131.463  0.00  0.00    +0.000 A 
ATOM     17  C   UNL     1     -12.516   7.431 130.285  0.00  0.00    +0.000 A 
ATOM     18  C   UNL     1     -11.555   7.831 129.367  0.00  0.00    +0.000 A 
ATOM     19  C   UNL     1     -10.214   7.528 129.582  0.00  0.00    +0.000 A 
BRANCH  11  20
ATOM     20  C   UNL     1      -7.992   5.299 133.579  0.00  0.00    +0.000 C 
BRANCH  20  21
ATOM     21  C   UNL     1      -8.589   3.985 134.099  0.00  0.00    +0.000 C 
BRANCH  21  23
ATOM     22  C   UNL     1      -9.513   2.282 132.546  0.00  0.00    +0.000 C 
ATOM     23  C   UNL     1      -8.248   2.802 133.210  0.00  0.00    +0.000 C 
ENDBRANCH  21  23
ENDBRANCH  20  21
ENDBRANCH  11  20
ENDBRANCH   9  12
ENDBRANCH   1   9
BRANCH   5  24
ATOM     24  O   UNL     1      -5.329   2.173 127.705  0.00  0.00    +0.000 OA
BRANCH  24  25
ATOM     25  C   UNL     1      -5.072   2.552 126.372  0.00  0.00    +0.000 C 
BRANCH  25  26
ATOM     26  C   UNL     1      -6.054   2.115 125.288  0.00  0.00    +0.000 C 
BRANCH  26  27
ATOM     27  N   UNL     1      -6.562   3.268 124.482  0.00  0.00    +0.000 NA
BRANCH  27  28
ATOM     28  C   UNL     1      -6.581   3.037 123.017  0.00  0.00    +0.000 C 
ATOM     29  C   UNL     1      -5.774   3.975 122.144  0.00  0.00    +0.000 C 
ENDBRANCH  27  28
BRANCH  27  30
ATOM     30  C   UNL     1      -7.931   3.591 124.944  0.00  0.00    +0.000 C 
ATOM     31  C   UNL     1      -8.008   4.866 125.784  0.00  0.00    +0.000 C 
ENDBRANCH  27  30
ENDBRANCH  26  27
ENDBRANCH  25  26
ENDBRANCH  24  25
ENDBRANCH   5  24
TORSDOF 11
ENDMDL
MODEL 3
REMARK VINA RESULT:      -6.9      2.852      4.160
REMARK  Name = Amiodarone
REMARK  14 active torsions:
REMARK  status: ('A' for Active; 'I' for Inactive)
REMARK    1  A    between atoms: C_1  and  C_2
REMARK    2  A    between atoms: C_2  and  C_3
REMARK    3  A    between atoms: C_3  and  C_4
REMARK    4  A    between atoms: C_4  and  C_5
REMARK    5  A    between atoms: C_6  and  C_7
REMARK    6  A    between atoms: C_7  and  C_9
REMARK    7  A    between atoms: C_13  and  O_14
REMARK    8  A    between atoms: O_14  and  C_15
REMARK    9  A    between atoms: C_15  and  C_16
REMARK   10  A    between atoms: C_16  and  N_17
REMARK   11  A    between atoms: N_17  and  C_18
REMARK   12  A    between atoms: N_17  and  C_20
REMARK   13  A    between atoms: C_18  and  C_19
REMARK   14  A    between atoms: C_20  and  C_21
REMARK                            x       y       z     vdW  Elec       q    Type
REMARK                         _______ _______ _______ _____ _____    ______ ____
ROOT
ATOM      1  C   UNL     1      -6.775   5.014 130.688  0.00  0.00    +0.000 A 
ATOM      2  C   UNL     1      -7.272   4.194 129.695  0.00  0.00    +0.000 A 
ATOM      3  C   UNL     1      -6.846   2.865 129.625  0.00  0.00    +0.000 A 
ATOM      4  I   UNL     1      -8.261   1.837 128.402  0.00  0.00    +0.000 I 
ATOM      5  C   UNL     1      -5.787   2.398 130.458  0.00  0.00    +0.000 A 
ATOM      6  C   UNL     1      -5.223   3.320 131.371  0.00  0.00    +0.000 A 
ATOM      7  I   UNL     1      -3.645   2.811 132.671  0.00  0.00    +0.000 I 
ATOM      8  C   UNL     1      -5.731   4.610 131.505  0.00  0.00    +0.000 A 
ENDROOT
BRANCH   1   9
ATOM      9  C   UNL     1      -7.389   6.315 130.936  0.00  0.00    +0.000 C 
ATOM     10  O   UNL     1      -6.650   7.277 130.823  0.00  0.00    +0.000 OA
BRANCH   9  12
ATOM     11  C   UNL     1      -9.265   5.873 132.529  0.00  0.00    +0.000 A 
ATOM     12  C   UNL     1      -8.799   6.382 131.329  0.00  0.00    +0.000 A 
ATOM     13  C   UNL     1      -9.951   6.926 130.679  0.00  0.00    +0.000 A 
ATOM     14  C   UNL     1     -11.037   6.676 131.514  0.00  0.00    +0.000 A 
ATOM     15  O   UNL     1     -10.616   6.033 132.645  0.00  0.00    +0.000 OA
ATOM     16  C   UNL     1     -12.350   7.046 131.200  0.00  0.00    +0.000 A 
ATOM     17  C   UNL     1     -12.553   7.723 129.987  0.00  0.00    +0.000 A 
ATOM     18  C   UNL     1     -11.491   8.013 129.141  0.00  0.00    +0.000 A 
ATOM     19  C   UNL     1     -10.205   7.595 129.466  0.00  0.00    +0.000 A 
BRANCH  11  20
ATOM     20  C   UNL     1      -8.511   5.270 133.663  0.00  0.00    +0.000 C 
BRANCH  20  21
ATOM     21  C   UNL     1      -9.132   3.909 134.005  0.00  0.00    +0.000 C 
BRANCH  21  23
ATOM     22  C   UNL     1      -9.537   2.166 132.282  0.00  0.00    +0.000 C 
ATOM     23  C   UNL     1      -8.504   2.773 133.218  0.00  0.00    +0.000 C 
ENDBRANCH  21  23
ENDBRANCH  20  21
ENDBRANCH  11  20
ENDBRANCH   9  12
ENDBRANCH   1   9
BRANCH   5  24
ATOM     24  O   UNL     1      -5.233   1.132 130.562  0.00  0.00    +0.000 OA
BRANCH  24  25
ATOM     25  C   UNL     1      -6.115   0.163 131.084  0.00  0.00    +0.000 C 
BRANCH  25  26
ATOM     26  C   UNL     1      -5.541  -1.180 131.527  0.00  0.00    +0.000 C 
BRANCH  26  27
ATOM     27  N   UNL     1      -6.233  -2.336 130.878  0.00  0.00    +0.000 NA
BRANCH  27  28
ATOM     28  C   UNL     1      -7.051  -1.981 129.692  0.00  0.00    +0.000 C 
ATOM     29  C   UNL     1      -8.195  -2.901 129.322  0.00  0.00    +0.000 C 
ENDBRANCH  27  28
BRANCH  27  30
ATOM     30  C   UNL     1      -5.208  -3.330 130.484  0.00  0.00    +0.000 C 
ATOM     31  C   UNL     1      -5.467  -4.730 131.042  0.00  0.00    +0.000 C 
ENDBRANCH  27  30
ENDBRANCH  26  27
ENDBRANCH  25  26
ENDBRANCH  24  25
ENDBRANCH   5  24
TORSDOF 11
ENDMDL
MODEL 4
REMARK VINA RESULT:      -6.8      5.753      8.154
REMARK  Name = Amiodarone
REMARK  14 active torsions:
REMARK  status: ('A' for Active; 'I' for Inactive)
REMARK    1  A    between atoms: C_1  and  C_2
REMARK    2  A    between atoms: C_2  and  C_3
REMARK    3  A    between atoms: C_3  and  C_4
REMARK    4  A    between atoms: C_4  and  C_5
REMARK    5  A    between atoms: C_6  and  C_7
REMARK    6  A    between atoms: C_7  and  C_9
REMARK    7  A    between atoms: C_13  and  O_14
REMARK    8  A    between atoms: O_14  and  C_15
REMARK    9  A    between atoms: C_15  and  C_16
REMARK   10  A    between atoms: C_16  and  N_17
REMARK   11  A    between atoms: N_17  and  C_18
REMARK   12  A    between atoms: N_17  and  C_20
REMARK   13  A    between atoms: C_18  and  C_19
REMARK   14  A    between atoms: C_20  and  C_21
REMARK                            x       y       z     vdW  Elec       q    Type
REMARK                         _______ _______ _______ _____ _____    ______ ____
ROOT
ATOM      1  C   UNL     1      -7.645   1.579 125.611  0.00  0.00    +0.000 A 
ATOM      2  C   UNL     1      -8.007   1.453 126.937  0.00  0.00    +0.000 A 
ATOM      3  C   UNL     1      -7.594   0.329 127.657  0.00  0.00    +0.000 A 
ATOM      4  I   UNL     1      -7.821   0.813 129.723  0.00  0.00    +0.000 I 
ATOM      5  C   UNL     1      -6.953  -0.760 126.996  0.00  0.00    +0.000 A 
ATOM      6  C   UNL     1      -6.723  -0.632 125.607  0.00  0.00    +0.000 A 
ATOM      7  I   UNL     1      -5.797  -2.142 124.465  0.00  0.00    +0.000 I 
ATOM      8  C   UNL     1      -7.040   0.539 124.924  0.00  0.00    +0.000 A 
ENDROOT
BRANCH   1   9
ATOM      9  C   UNL     1      -7.842   2.849 124.918  0.00  0.00    +0.000 C 
ATOM     10  O   UNL     1      -8.969   3.312 124.977  0.00  0.00    +0.000 OA
BRANCH   9  12
ATOM     11  C   UNL     1      -5.585   3.920 124.823  0.00  0.00    +0.000 A 
ATOM     12  C   UNL     1      -6.724   3.453 124.189  0.00  0.00    +0.000 A 
ATOM     13  C   UNL     1      -6.507   3.698 122.797  0.00  0.00    +0.000 A 
ATOM     14  C   UNL     1      -5.269   4.327 122.690  0.00  0.00    +0.000 A 
ATOM     15  O   UNL     1      -4.707   4.463 123.929  0.00  0.00    +0.000 OA
ATOM     16  C   UNL     1      -4.722   4.745 121.471  0.00  0.00    +0.000 A 
ATOM     17  C   UNL     1      -5.467   4.482 120.310  0.00  0.00    +0.000 A 
ATOM     18  C   UNL     1      -6.692   3.833 120.375  0.00  0.00    +0.000 A 
ATOM     19  C   UNL     1      -7.224   3.468 121.608  0.00  0.00    +0.000 A 
BRANCH  11  20
ATOM     20  C   UNL     1      -5.199   3.850 126.259  0.00  0.00    +0.000 C 
BRANCH  20  21
ATOM     21  C   UNL     1      -4.041   2.855 126.414  0.00  0.00    +0.000 C 
BRANCH  21  23
ATOM     22  C   UNL     1      -1.564   2.955 126.574  0.00  0.00    +0.000 C 
ATOM     23  C   UNL     1      -2.870   3.446 127.180  0.00  0.00    +0.000 C 
ENDBRANCH  21  23
ENDBRANCH  20  21
ENDBRANCH  11  20
ENDBRANCH   9  12
ENDBRANCH   1   9
BRANCH   5  24
ATOM     24  O   UNL     1      -6.453  -1.942 127.518  0.00  0.00    +0.000 OA
BRANCH  24  25
ATOM     25  C   UNL     1      -7.398  -2.690 128.249  0.00  0.00    +0.000 C 
BRANCH  25  26
ATOM     26  C   UNL     1      -6.923  -3.467 129.474  0.00  0.00    +0.000 C 
BRANCH  26  27
ATOM     27  N   UNL     1      -5.816  -2.768 130.197  0.00  0.00    +0.000 NA
BRANCH  27  28
ATOM     28  C   UNL     1      -6.169  -2.289 131.555  0.00  0.00    +0.000 C 
ATOM     29  C   UNL     1      -7.343  -2.946 132.252  0.00  0.00    +0.000 C 
ENDBRANCH  27  28
BRANCH  27  30
ATOM     30  C   UNL     1      -4.664  -3.696 130.290  0.00  0.00    +0.000 C 
ATOM     31  C   UNL     1      -3.711  -3.608 129.098  0.00  0.00    +0.000 C 
ENDBRANCH  27  30
ENDBRANCH  26  27
ENDBRANCH  25  26
ENDBRANCH  24  25
ENDBRANCH   5  24
TORSDOF 11
ENDMDL
MODEL 5
REMARK VINA RESULT:      -6.8      3.511      4.502
REMARK  Name = Amiodarone
REMARK  14 active torsions:
REMARK  status: ('A' for Active; 'I' for Inactive)
REMARK    1  A    between atoms: C_1  and  C_2
REMARK    2  A    between atoms: C_2  and  C_3
REMARK    3  A    between atoms: C_3  and  C_4
REMARK    4  A    between atoms: C_4  and  C_5
REMARK    5  A    between atoms: C_6  and  C_7
REMARK    6  A    between atoms: C_7  and  C_9
REMARK    7  A    between atoms: C_13  and  O_14
REMARK    8  A    between atoms: O_14  and  C_15
REMARK    9  A    between atoms: C_15  and  C_16
REMARK   10  A    between atoms: C_16  and  N_17
REMARK   11  A    between atoms: N_17  and  C_18
REMARK   12  A    between atoms: N_17  and  C_20
REMARK   13  A    between atoms: C_18  and  C_19
REMARK   14  A    between atoms: C_20  and  C_21
REMARK                            x       y       z     vdW  Elec       q    Type
REMARK                         _______ _______ _______ _____ _____    ______ ____
ROOT
ATOM      1  C   UNL     1      -8.144   4.246 129.349  0.00  0.00    +0.000 A 
ATOM      2  C   UNL     1      -8.333   3.001 129.912  0.00  0.00    +0.000 A 
ATOM      3  C   UNL     1      -8.118   1.857 129.138  0.00  0.00    +0.000 A 
ATOM      4  I   UNL     1      -7.920   0.228 130.502  0.00  0.00    +0.000 I 
ATOM      5  C   UNL     1      -7.871   1.966 127.737  0.00  0.00    +0.000 A 
ATOM      6  C   UNL     1      -7.816   3.267 127.186  0.00  0.00    +0.000 A 
ATOM      7  I   UNL     1      -7.472   3.619 125.137  0.00  0.00    +0.000 I 
ATOM      8  C   UNL     1      -7.923   4.400 127.989  0.00  0.00    +0.000 A 
ENDROOT
BRANCH   1   9
ATOM      9  C   UNL     1      -8.112   5.434 130.197  0.00  0.00    +0.000 C 
ATOM     10  O   UNL     1      -7.012   5.931 130.366  0.00  0.00    +0.000 OA
BRANCH   9  12
ATOM     11  C   UNL     1      -9.589   5.863 132.168  0.00  0.00    +0.000 A 
ATOM     12  C   UNL     1      -9.353   5.918 130.805  0.00  0.00    +0.000 A 
ATOM     13  C   UNL     1     -10.525   6.517 130.245  0.00  0.00    +0.000 A 
ATOM     14  C   UNL     1     -11.401   6.749 131.302  0.00  0.00    +0.000 A 
ATOM     15  O   UNL     1     -10.827   6.348 132.478  0.00  0.00    +0.000 OA
ATOM     16  C   UNL     1     -12.673   7.309 131.139  0.00  0.00    +0.000 A 
ATOM     17  C   UNL     1     -13.053   7.670 129.836  0.00  0.00    +0.000 A 
ATOM     18  C   UNL     1     -12.197   7.478 128.760  0.00  0.00    +0.000 A 
ATOM     19  C   UNL     1     -10.954   6.882 128.954  0.00  0.00    +0.000 A 
BRANCH  11  20
ATOM     20  C   UNL     1      -8.690   5.427 133.272  0.00  0.00    +0.000 C 
BRANCH  20  21
ATOM     21  C   UNL     1      -9.164   4.062 133.789  0.00  0.00    +0.000 C 
BRANCH  21  23
ATOM     22  C   UNL     1      -6.839   3.300 134.216  0.00  0.00    +0.000 C 
ATOM     23  C   UNL     1      -8.152   2.961 133.527  0.00  0.00    +0.000 C 
ENDBRANCH  21  23
ENDBRANCH  20  21
ENDBRANCH  11  20
ENDBRANCH   9  12
ENDBRANCH   1   9
BRANCH   5  24
ATOM     24  O   UNL     1      -7.615   0.975 126.803  0.00  0.00    +0.000 OA
BRANCH  24  25
ATOM     25  C   UNL     1      -8.707   0.116 126.566  0.00  0.00    +0.000 C 
BRANCH  25  26
ATOM     26  C   UNL     1      -8.580  -0.940 125.471  0.00  0.00    +0.000 C 
BRANCH  26  27
ATOM     27  N   UNL     1      -8.939  -2.309 125.956  0.00  0.00    +0.000 NA
BRANCH  27  28
ATOM     28  C   UNL     1      -8.745  -3.389 124.958  0.00  0.00    +0.000 C 
ATOM     29  C   UNL     1      -9.443  -3.249 123.621  0.00  0.00    +0.000 C 
ENDBRANCH  27  28
BRANCH  27  30
ATOM     30  C   UNL     1      -8.128  -2.603 127.159  0.00  0.00    +0.000 C 
ATOM     31  C   UNL     1      -8.753  -3.654 128.076  0.00  0.00    +0.000 C 
ENDBRANCH  27  30
ENDBRANCH  26  27
ENDBRANCH  25  26
ENDBRANCH  24  25
ENDBRANCH   5  24
TORSDOF 11
ENDMDL
MODEL 6
REMARK VINA RESULT:      -6.7      4.812      8.538
REMARK  Name = Amiodarone
REMARK  14 active torsions:
REMARK  status: ('A' for Active; 'I' for Inactive)
REMARK    1  A    between atoms: C_1  and  C_2
REMARK    2  A    between atoms: C_2  and  C_3
REMARK    3  A    between atoms: C_3  and  C_4
REMARK    4  A    between atoms: C_4  and  C_5
REMARK    5  A    between atoms: C_6  and  C_7
REMARK    6  A    between atoms: C_7  and  C_9
REMARK    7  A    between atoms: C_13  and  O_14
REMARK    8  A    between atoms: O_14  and  C_15
REMARK    9  A    between atoms: C_15  and  C_16
REMARK   10  A    between atoms: C_16  and  N_17
REMARK   11  A    between atoms: N_17  and  C_18
REMARK   12  A    between atoms: N_17  and  C_20
REMARK   13  A    between atoms: C_18  and  C_19
REMARK   14  A    between atoms: C_20  and  C_21
REMARK                            x       y       z     vdW  Elec       q    Type
REMARK                         _______ _______ _______ _____ _____    ______ ____
ROOT
ATOM      1  C   UNL     1      -8.176   0.467 126.462  0.00  0.00    +0.000 A 
ATOM      2  C   UNL     1      -8.008   1.067 125.230  0.00  0.00    +0.000 A 
ATOM      3  C   UNL     1      -7.722   2.433 125.165  0.00  0.00    +0.000 A 
ATOM      4  I   UNL     1      -6.955   2.802 123.208  0.00  0.00    +0.000 I 
ATOM      5  C   UNL     1      -7.770   3.240 126.340  0.00  0.00    +0.000 A 
ATOM      6  C   UNL     1      -8.076   2.595 127.560  0.00  0.00    +0.000 A 
ATOM      7  I   UNL     1      -8.200   3.627 129.393  0.00  0.00    +0.000 I 
ATOM      8  C   UNL     1      -8.250   1.214 127.627  0.00  0.00    +0.000 A 
ENDROOT
BRANCH   1   9
ATOM      9  C   UNL     1      -8.218  -0.989 126.565  0.00  0.00    +0.000 C 
ATOM     10  O   UNL     1      -9.186  -1.525 126.053  0.00  0.00    +0.000 OA
BRANCH   9  12
ATOM     11  C   UNL     1      -5.900  -1.910 126.734  0.00  0.00    +0.000 A 
ATOM     12  C   UNL     1      -7.152  -1.691 127.283  0.00  0.00    +0.000 A 
ATOM     13  C   UNL     1      -7.095  -2.271 128.589  0.00  0.00    +0.000 A 
ATOM     14  C   UNL     1      -5.828  -2.831 128.724  0.00  0.00    +0.000 A 
ATOM     15  O   UNL     1      -5.098  -2.610 127.588  0.00  0.00    +0.000 OA
ATOM     16  C   UNL     1      -5.406  -3.514 129.871  0.00  0.00    +0.000 A 
ATOM     17  C   UNL     1      -6.318  -3.604 130.935  0.00  0.00    +0.000 A 
ATOM     18  C   UNL     1      -7.582  -3.036 130.847  0.00  0.00    +0.000 A 
ATOM     19  C   UNL     1      -7.981  -2.398 129.676  0.00  0.00    +0.000 A 
BRANCH  11  20
ATOM     20  C   UNL     1      -5.338  -1.450 125.434  0.00  0.00    +0.000 C 
BRANCH  20  21
ATOM     21  C   UNL     1      -5.348  -2.623 124.444  0.00  0.00    +0.000 C 
BRANCH  21  23
ATOM     22  C   UNL     1      -6.679  -1.361 122.770  0.00  0.00    +0.000 C 
ATOM     23  C   UNL     1      -6.599  -2.642 123.583  0.00  0.00    +0.000 C 
ENDBRANCH  21  23
ENDBRANCH  20  21
ENDBRANCH  11  20
ENDBRANCH   9  12
ENDBRANCH   1   9
BRANCH   5  24
ATOM     24  O   UNL     1      -7.505   4.592 126.498  0.00  0.00    +0.000 OA
BRANCH  24  25
ATOM     25  C   UNL     1      -6.171   4.949 126.220  0.00  0.00    +0.000 C 
BRANCH  25  26
ATOM     26  C   UNL     1      -5.068   4.412 127.129  0.00  0.00    +0.000 C 
BRANCH  26  27
ATOM     27  N   UNL     1      -3.986   3.719 126.362  0.00  0.00    +0.000 NA
BRANCH  27  28
ATOM     28  C   UNL     1      -2.611   4.002 126.841  0.00  0.00    +0.000 C 
ATOM     29  C   UNL     1      -1.531   2.988 126.526  0.00  0.00    +0.000 C 
ENDBRANCH  27  28
BRANCH  27  30
ATOM     30  C   UNL     1      -4.235   2.260 126.423  0.00  0.00    +0.000 C 
ATOM     31  C   UNL     1      -4.654   1.769 127.809  0.00  0.00    +0.000 C 
ENDBRANCH  27  30
ENDBRANCH  26  27
ENDBRANCH  25  26
ENDBRANCH  24  25
ENDBRANCH   5  24
TORSDOF 11
ENDMDL
MODEL 7
REMARK VINA RESULT:      -6.7      5.320      8.515
REMARK  Name = Amiodarone
REMARK  14 active torsions:
REMARK  status: ('A' for Active; 'I' for Inactive)
REMARK    1  A    between atoms: C_1  and  C_2
REMARK    2  A    between atoms: C_2  and  C_3
REMARK    3  A    between atoms: C_3  and  C_4
REMARK    4  A    between atoms: C_4  and  C_5
REMARK    5  A    between atoms: C_6  and  C_7
REMARK    6  A    between atoms: C_7  and  C_9
REMARK    7  A    between atoms: C_13  and  O_14
REMARK    8  A    between atoms: O_14  and  C_15
REMARK    9  A    between atoms: C_15  and  C_16
REMARK   10  A    between atoms: C_16  and  N_17
REMARK   11  A    between atoms: N_17  and  C_18
REMARK   12  A    between atoms: N_17  and  C_20
REMARK   13  A    between atoms: C_18  and  C_19
REMARK   14  A    between atoms: C_20  and  C_21
REMARK                            x       y       z     vdW  Elec       q    Type
REMARK                         _______ _______ _______ _____ _____    ______ ____
ROOT
ATOM      1  C   UNL     1      -6.072  -1.267 126.629  0.00  0.00    +0.000 A 
ATOM      2  C   UNL     1      -6.677  -0.196 127.255  0.00  0.00    +0.000 A 
ATOM      3  C   UNL     1      -6.340   0.107 128.577  0.00  0.00    +0.000 A 
ATOM      4  I   UNL     1      -7.000   2.106 128.929  0.00  0.00    +0.000 I 
ATOM      5  C   UNL     1      -5.511  -0.773 129.333  0.00  0.00    +0.000 A 
ATOM      6  C   UNL     1      -5.022  -1.927 128.680  0.00  0.00    +0.000 A 
ATOM      7  I   UNL     1      -3.793  -3.343 129.642  0.00  0.00    +0.000 I 
ATOM      8  C   UNL     1      -5.276  -2.159 127.330  0.00  0.00    +0.000 A 
ENDROOT
BRANCH   1   9
ATOM      9  C   UNL     1      -6.213  -1.445 125.187  0.00  0.00    +0.000 C 
ATOM     10  O   UNL     1      -5.248  -1.925 124.619  0.00  0.00    +0.000 OA
BRANCH   9  12
ATOM     11  C   UNL     1      -8.559  -1.835 124.418  0.00  0.00    +0.000 A 
ATOM     12  C   UNL     1      -7.448  -1.017 124.526  0.00  0.00    +0.000 A 
ATOM     13  C   UNL     1      -7.822   0.209 123.891  0.00  0.00    +0.000 A 
ATOM     14  C   UNL     1      -9.117   0.034 123.413  0.00  0.00    +0.000 A 
ATOM     15  O   UNL     1      -9.567  -1.217 123.735  0.00  0.00    +0.000 OA
ATOM     16  C   UNL     1      -9.817   1.020 122.707  0.00  0.00    +0.000 A 
ATOM     17  C   UNL     1      -9.166   2.248 122.507  0.00  0.00    +0.000 A 
ATOM     18  C   UNL     1      -7.885   2.469 122.992  0.00  0.00    +0.000 A 
ATOM     19  C   UNL     1      -7.204   1.452 123.655  0.00  0.00    +0.000 A 
BRANCH  11  20
ATOM     20  C   UNL     1      -8.797  -3.196 124.975  0.00  0.00    +0.000 C 
BRANCH  20  21
ATOM     21  C   UNL     1      -9.355  -3.060 126.398  0.00  0.00    +0.000 C 
BRANCH  21  23
ATOM     22  C   UNL     1      -8.518  -3.313 128.722  0.00  0.00    +0.000 C 
ATOM     23  C   UNL     1      -8.679  -4.003 127.377  0.00  0.00    +0.000 C 
ENDBRANCH  21  23
ENDBRANCH  20  21
ENDBRANCH  11  20
ENDBRANCH   9  12
ENDBRANCH   1   9
BRANCH   5  24
ATOM     24  O   UNL     1      -5.046  -0.652 130.633  0.00  0.00    +0.000 OA
BRANCH  24  25
ATOM     25  C   UNL     1      -6.058  -0.723 131.612  0.00  0.00    +0.000 C 
BRANCH  25  26
ATOM     26  C   UNL     1      -6.029   0.279 132.764  0.00  0.00    +0.000 C 
BRANCH  26  27
ATOM     27  N   UNL     1      -7.376   0.866 133.041  0.00  0.00    +0.000 NA
BRANCH  27  28
ATOM     28  C   UNL     1      -7.461   2.335 132.851  0.00  0.00    +0.000 C 
ATOM     29  C   UNL     1      -7.408   3.211 134.085  0.00  0.00    +0.000 C 
ENDBRANCH  27  28
BRANCH  27  30
ATOM     30  C   UNL     1      -8.363   0.201 132.159  0.00  0.00    +0.000 C 
ATOM     31  C   UNL     1      -9.599   1.054 131.873  0.00  0.00    +0.000 C 
ENDBRANCH  27  30
ENDBRANCH  26  27
ENDBRANCH  25  26
ENDBRANCH  24  25
ENDBRANCH   5  24
TORSDOF 11
ENDMDL
MODEL 8
REMARK VINA RESULT:      -6.7      2.246      3.329
REMARK  Name = Amiodarone
REMARK  14 active torsions:
REMARK  status: ('A' for Active; 'I' for Inactive)
REMARK    1  A    between atoms: C_1  and  C_2
REMARK    2  A    between atoms: C_2  and  C_3
REMARK    3  A    between atoms: C_3  and  C_4
REMARK    4  A    between atoms: C_4  and  C_5
REMARK    5  A    between atoms: C_6  and  C_7
REMARK    6  A    between atoms: C_7  and  C_9
REMARK    7  A    between atoms: C_13  and  O_14
REMARK    8  A    between atoms: O_14  and  C_15
REMARK    9  A    between atoms: C_15  and  C_16
REMARK   10  A    between atoms: C_16  and  N_17
REMARK   11  A    between atoms: N_17  and  C_18
REMARK   12  A    between atoms: N_17  and  C_20
REMARK   13  A    between atoms: C_18  and  C_19
REMARK   14  A    between atoms: C_20  and  C_21
REMARK                            x       y       z     vdW  Elec       q    Type
REMARK                         _______ _______ _______ _____ _____    ______ ____
ROOT
ATOM      1  C   UNL     1      -6.961   5.124 130.667  0.00  0.00    +0.000 A 
ATOM      2  C   UNL     1      -5.828   4.784 131.378  0.00  0.00    +0.000 A 
ATOM      3  C   UNL     1      -5.094   3.656 131.001  0.00  0.00    +0.000 A 
ATOM      4  I   UNL     1      -3.176   3.844 131.918  0.00  0.00    +0.000 I 
ATOM      5  C   UNL     1      -5.593   2.767 130.004  0.00  0.00    +0.000 A 
ATOM      6  C   UNL     1      -6.827   3.096 129.397  0.00  0.00    +0.000 A 
ATOM      7  I   UNL     1      -7.721   1.896 127.914  0.00  0.00    +0.000 I 
ATOM      8  C   UNL     1      -7.493   4.281 129.705  0.00  0.00    +0.000 A 
ENDROOT
BRANCH   1   9
ATOM      9  C   UNL     1      -7.590   6.425 130.877  0.00  0.00    +0.000 C 
ATOM     10  O   UNL     1      -6.864   7.392 130.727  0.00  0.00    +0.000 OA
BRANCH   9  12
ATOM     11  C   UNL     1      -9.452   5.997 132.489  0.00  0.00    +0.000 A 
ATOM     12  C   UNL     1      -8.998   6.487 131.277  0.00  0.00    +0.000 A 
ATOM     13  C   UNL     1     -10.159   7.009 130.624  0.00  0.00    +0.000 A 
ATOM     14  C   UNL     1     -11.238   6.765 131.470  0.00  0.00    +0.000 A 
ATOM     15  O   UNL     1     -10.804   6.147 132.610  0.00  0.00    +0.000 OA
ATOM     16  C   UNL     1     -12.556   7.118 131.157  0.00  0.00    +0.000 A 
ATOM     17  C   UNL     1     -12.771   7.770 129.932  0.00  0.00    +0.000 A 
ATOM     18  C   UNL     1     -11.717   8.053 129.074  0.00  0.00    +0.000 A 
ATOM     19  C   UNL     1     -10.425   7.653 129.400  0.00  0.00    +0.000 A 
BRANCH  11  20
ATOM     20  C   UNL     1      -8.687   5.422 133.630  0.00  0.00    +0.000 C 
BRANCH  20  21
ATOM     21  C   UNL     1      -9.262   4.040 133.967  0.00  0.00    +0.000 C 
BRANCH  21  23
ATOM     22  C   UNL     1      -7.290   2.542 133.778  0.00  0.00    +0.000 C 
ATOM     23  C   UNL     1      -8.620   2.931 133.152  0.00  0.00    +0.000 C 
ENDBRANCH  21  23
ENDBRANCH  20  21
ENDBRANCH  11  20
ENDBRANCH   9  12
ENDBRANCH   1   9
BRANCH   5  24
ATOM     24  O   UNL     1      -5.023   1.619 129.475  0.00  0.00    +0.000 OA
BRANCH  24  25
ATOM     25  C   UNL     1      -4.923   0.555 130.393  0.00  0.00    +0.000 C 
BRANCH  25  26
ATOM     26  C   UNL     1      -5.258  -0.856 129.913  0.00  0.00    +0.000 C 
BRANCH  26  27
ATOM     27  N   UNL     1      -6.493  -1.398 130.560  0.00  0.00    +0.000 NA
BRANCH  27  28
ATOM     28  C   UNL     1      -7.164  -0.462 131.494  0.00  0.00    +0.000 C 
ATOM     29  C   UNL     1      -8.627  -0.151 131.253  0.00  0.00    +0.000 C 
ENDBRANCH  27  28
BRANCH  27  30
ATOM     30  C   UNL     1      -7.443  -1.788 129.492  0.00  0.00    +0.000 C 
ATOM     31  C   UNL     1      -7.752  -3.285 129.465  0.00  0.00    +0.000 C 
ENDBRANCH  27  30
ENDBRANCH  26  27
ENDBRANCH  25  26
ENDBRANCH  24  25
ENDBRANCH   5  24
TORSDOF 11
ENDMDL
MODEL 9
REMARK VINA RESULT:      -6.7      3.192      4.317
REMARK  Name = Amiodarone
REMARK  14 active torsions:
REMARK  status: ('A' for Active; 'I' for Inactive)
REMARK    1  A    between atoms: C_1  and  C_2
REMARK    2  A    between atoms: C_2  and  C_3
REMARK    3  A    between atoms: C_3  and  C_4
REMARK    4  A    between atoms: C_4  and  C_5
REMARK    5  A    between atoms: C_6  and  C_7
REMARK    6  A    between atoms: C_7  and  C_9
REMARK    7  A    between atoms: C_13  and  O_14
REMARK    8  A    between atoms: O_14  and  C_15
REMARK    9  A    between atoms: C_15  and  C_16
REMARK   10  A    between atoms: C_16  and  N_17
REMARK   11  A    between atoms: N_17  and  C_18
REMARK   12  A    between atoms: N_17  and  C_20
REMARK   13  A    between atoms: C_18  and  C_19
REMARK   14  A    between atoms: C_20  and  C_21
REMARK                            x       y       z     vdW  Elec       q    Type
REMARK                         _______ _______ _______ _____ _____    ______ ____
ROOT
ATOM      1  C   UNL     1      -8.284   3.949 129.655  0.00  0.00    +0.000 A 
ATOM      2  C   UNL     1      -8.685   2.878 130.428  0.00  0.00    +0.000 A 
ATOM      3  C   UNL     1      -8.517   1.579 129.941  0.00  0.00    +0.000 A 
ATOM      4  I   UNL     1      -8.677   0.275 131.622  0.00  0.00    +0.000 I 
ATOM      5  C   UNL     1      -8.094   1.357 128.597  0.00  0.00    +0.000 A 
ATOM      6  C   UNL     1      -7.820   2.497 127.806  0.00  0.00    +0.000 A 
ATOM      7  I   UNL     1      -7.196   2.362 125.798  0.00  0.00    +0.000 I 
ATOM      8  C   UNL     1      -7.887   3.782 128.338  0.00  0.00    +0.000 A 
ENDROOT
BRANCH   1   9
ATOM      9  C   UNL     1      -8.213   5.285 130.239  0.00  0.00    +0.000 C 
ATOM     10  O   UNL     1      -7.129   5.836 130.162  0.00  0.00    +0.000 OA
BRANCH   9  12
ATOM     11  C   UNL     1      -9.512   5.948 132.270  0.00  0.00    +0.000 A 
ATOM     12  C   UNL     1      -9.396   5.848 130.894  0.00  0.00    +0.000 A 
ATOM     13  C   UNL     1     -10.612   6.394 130.375  0.00  0.00    +0.000 A 
ATOM     14  C   UNL     1     -11.391   6.752 131.472  0.00  0.00    +0.000 A 
ATOM     15  O   UNL     1     -10.717   6.479 132.630  0.00  0.00    +0.000 OA
ATOM     16  C   UNL     1     -12.672   7.305 131.359  0.00  0.00    +0.000 A 
ATOM     17  C   UNL     1     -13.163   7.523 130.061  0.00  0.00    +0.000 A 
ATOM     18  C   UNL     1     -12.405   7.203 128.943  0.00  0.00    +0.000 A 
ATOM     19  C   UNL     1     -11.152   6.618 129.094  0.00  0.00    +0.000 A 
BRANCH  11  20
ATOM     20  C   UNL     1      -8.520   5.627 133.334  0.00  0.00    +0.000 C 
BRANCH  20  21
ATOM     21  C   UNL     1      -8.844   4.244 133.914  0.00  0.00    +0.000 C 
BRANCH  21  23
ATOM     22  C   UNL     1      -6.465   3.992 133.247  0.00  0.00    +0.000 C 
ATOM     23  C   UNL     1      -7.618   3.353 134.005  0.00  0.00    +0.000 C 
ENDBRANCH  21  23
ENDBRANCH  20  21
ENDBRANCH  11  20
ENDBRANCH   9  12
ENDBRANCH   1   9
BRANCH   5  24
ATOM     24  O   UNL     1      -7.848   0.167 127.931  0.00  0.00    +0.000 OA
BRANCH  24  25
ATOM     25  C   UNL     1      -6.779  -0.579 128.468  0.00  0.00    +0.000 C 
BRANCH  25  26
ATOM     26  C   UNL     1      -6.538  -1.990 127.938  0.00  0.00    +0.000 C 
BRANCH  26  27
ATOM     27  N   UNL     1      -6.719  -3.033 128.995  0.00  0.00    +0.000 NA
BRANCH  27  28
ATOM     28  C   UNL     1      -6.078  -2.715 130.294  0.00  0.00    +0.000 C 
ATOM     29  C   UNL     1      -6.733  -3.244 131.553  0.00  0.00    +0.000 C 
ENDBRANCH  27  28
BRANCH  27  30
ATOM     30  C   UNL     1      -8.172  -3.235 129.203  0.00  0.00    +0.000 C 
ATOM     31  C   UNL     1      -8.874  -3.896 128.016  0.00  0.00    +0.000 C 
ENDBRANCH  27  30
ENDBRANCH  26  27
ENDBRANCH  25  26
ENDBRANCH  24  25
ENDBRANCH   5  24
TORSDOF 11
ENDMDL
