MODEL 1
REMARK VINA RESULT:      -7.0      0.000      0.000
REMARK  Name = Amisulpride
REMARK  11 active torsions:
REMARK  status: ('A' for Active; 'I' for Inactive)
REMARK    1  A    between atoms: C_1  and  C_2
REMARK    2  A    between atoms: C_2  and  N_3
REMARK    3  A    between atoms: C_7  and  C_8
REMARK    4  A    between atoms: C_8  and  N_9
REMARK    5  A    between atoms: C_10  and  C_12
REMARK    6  A    between atoms: C_14  and  S_21
REMARK    7  A    between atoms: C_15  and  N_16
REMARK    8  A    between atoms: C_18  and  O_19
REMARK    9  A    between atoms: O_19  and  C_20
REMARK   10  A    between atoms: S_21  and  C_24
REMARK   11  A    between atoms: C_24  and  C_25
REMARK                            x       y       z     vdW  Elec       q    Type
REMARK                         _______ _______ _______ _____ _____    ______ ____
ROOT
ATOM      1  C   UNL     1      -8.401   6.619 131.111  0.00  0.00    +0.000 A 
ATOM      2  C   UNL     1      -9.191   7.248 130.125  0.00  0.00    +0.000 A 
ATOM      3  C   UNL     1     -10.612   7.308 130.216  0.00  0.00    +0.000 A 
ATOM      4  C   UNL     1     -11.275   6.698 131.288  0.00  0.00    +0.000 A 
ATOM      5  C   UNL     1     -10.460   6.101 132.274  0.00  0.00    +0.000 A 
ATOM      6  C   UNL     1      -9.049   6.041 132.213  0.00  0.00    +0.000 A 
ENDROOT
BRANCH   1   8
ATOM      7  N   UNL     1      -6.336   5.276 130.881  0.00  0.00    +0.000 N 
ATOM      8  C   UNL     1      -6.932   6.525 130.859  0.00  0.00    +0.000 C 
ATOM      9  O   UNL     1      -6.283   7.548 130.639  0.00  0.00    +0.000 OA
ATOM     10  H   UNL     1      -6.856   4.469 131.204  0.00  0.00    +0.000 HD
BRANCH   7  11
ATOM     11  C   UNL     1      -4.936   5.130 130.447  0.00  0.00    +0.000 C 
BRANCH  11  16
ATOM     12  N   UNL     1      -3.548   3.943 128.696  0.00  0.00    +0.000 NA
ATOM     13  C   UNL     1      -4.086   2.586 128.472  0.00  0.00    +0.000 C 
ATOM     14  C   UNL     1      -5.357   2.852 127.687  0.00  0.00    +0.000 C 
ATOM     15  C   UNL     1      -5.959   3.996 128.464  0.00  0.00    +0.000 C 
ATOM     16  C   UNL     1      -4.743   4.811 128.935  0.00  0.00    +0.000 C 
BRANCH  12  18
ATOM     17  C   UNL     1      -1.832   3.106 126.931  0.00  0.00    +0.000 C 
ATOM     18  C   UNL     1      -2.617   4.223 127.581  0.00  0.00    +0.000 C 
ENDBRANCH  12  18
ENDBRANCH  11  16
ENDBRANCH   7  11
ENDBRANCH   1   8
BRANCH   4  19
ATOM     19  N   UNL     1     -12.626   6.804 131.618  0.00  0.00    +0.000 N 
ATOM     20  H   UNL     1     -13.135   7.664 131.546  0.00  0.00    +0.000 HD
ATOM     21  H   UNL     1     -13.229   6.033 131.343  0.00  0.00    +0.000 HD
ENDBRANCH   4  19
BRANCH   3  22
ATOM     22  S   UNL     1     -11.418   8.186 128.869  0.00  0.00    +0.000 S 
ATOM     23  O   UNL     1     -12.367   9.085 129.502  0.00  0.00    +0.000 OA
ATOM     24  O   UNL     1     -10.345   8.706 128.042  0.00  0.00    +0.000 OA
BRANCH  22  25
ATOM     25  C   UNL     1     -12.345   7.053 127.870  0.00  0.00    +0.000 C 
ATOM     26  C   UNL     1     -13.843   7.232 127.918  0.00  0.00    +0.000 C 
ENDBRANCH  22  25
ENDBRANCH   3  22
BRANCH   6  27
ATOM     27  O   UNL     1      -8.539   5.423 133.328  0.00  0.00    +0.000 OA
ATOM     28  C   UNL     1      -9.024   4.141 133.692  0.00  0.00    +0.000 C 
ENDBRANCH   6  27
TORSDOF 8
ENDMDL
MODEL 2
REMARK VINA RESULT:      -6.9      1.522      2.149
REMARK  Name = Amisulpride
REMARK  11 active torsions:
REMARK  status: ('A' for Active; 'I' for Inactive)
REMARK    1  A    between atoms: C_1  and  C_2
REMARK    2  A    between atoms: C_2  and  N_3
REMARK    3  A    between atoms: C_7  and  C_8
REMARK    4  A    between atoms: C_8  and  N_9
REMARK    5  A    between atoms: C_10  and  C_12
REMARK    6  A    between atoms: C_14  and  S_21
REMARK    7  A    between atoms: C_15  and  N_16
REMARK    8  A    between atoms: C_18  and  O_19
REMARK    9  A    between atoms: O_19  and  C_20
REMARK   10  A    between atoms: S_21  and  C_24
REMARK   11  A    between atoms: C_24  and  C_25
REMARK                            x       y       z     vdW  Elec       q    Type
REMARK                         _______ _______ _______ _____ _____    ______ ____
ROOT
ATOM      1  C   UNL     1      -7.591   6.512 131.358  0.00  0.00    +0.000 A 
ATOM      2  C   UNL     1      -8.495   6.706 130.291  0.00  0.00    +0.000 A 
ATOM      3  C   UNL     1      -9.895   6.470 130.431  0.00  0.00    +0.000 A 
ATOM      4  C   UNL     1     -10.410   5.992 131.642  0.00  0.00    +0.000 A 
ATOM      5  C   UNL     1      -9.488   5.833 132.699  0.00  0.00    +0.000 A 
ATOM      6  C   UNL     1      -8.100   6.075 132.590  0.00  0.00    +0.000 A 
ENDROOT
BRANCH   1   8
ATOM      7  N   UNL     1      -5.246   5.752 131.557  0.00  0.00    +0.000 N 
ATOM      8  C   UNL     1      -6.137   6.690 131.067  0.00  0.00    +0.000 C 
ATOM      9  O   UNL     1      -5.760   7.657 130.405  0.00  0.00    +0.000 OA
ATOM     10  H   UNL     1      -5.557   5.047 132.215  0.00  0.00    +0.000 HD
BRANCH   7  11
ATOM     11  C   UNL     1      -3.837   5.792 131.126  0.00  0.00    +0.000 C 
BRANCH  11  16
ATOM     12  N   UNL     1      -4.618   4.331 129.213  0.00  0.00    +0.000 NA
ATOM     13  C   UNL     1      -4.463   5.060 127.937  0.00  0.00    +0.000 C 
ATOM     14  C   UNL     1      -2.963   5.035 127.713  0.00  0.00    +0.000 C 
ATOM     15  C   UNL     1      -2.446   5.398 129.083  0.00  0.00    +0.000 C 
ATOM     16  C   UNL     1      -3.445   4.738 130.049  0.00  0.00    +0.000 C 
BRANCH  12  18
ATOM     17  C   UNL     1      -4.133   1.809 129.617  0.00  0.00    +0.000 C 
ATOM     18  C   UNL     1      -4.849   2.911 128.869  0.00  0.00    +0.000 C 
ENDBRANCH  12  18
ENDBRANCH  11  16
ENDBRANCH   7  11
ENDBRANCH   1   8
BRANCH   4  19
ATOM     19  N   UNL     1     -11.752   5.870 132.000  0.00  0.00    +0.000 N 
ATOM     20  H   UNL     1     -12.366   5.196 131.584  0.00  0.00    +0.000 HD
ATOM     21  H   UNL     1     -11.975   5.962 132.988  0.00  0.00    +0.000 HD
ENDBRANCH   4  19
BRANCH   3  22
ATOM     22  S   UNL     1     -10.868   6.814 128.958  0.00  0.00    +0.000 S 
ATOM     23  O   UNL     1      -9.949   6.677 127.842  0.00  0.00    +0.000 OA
ATOM     24  O   UNL     1     -12.042   5.966 129.058  0.00  0.00    +0.000 OA
BRANCH  22  25
ATOM     25  C   UNL     1     -11.433   8.493 128.978  0.00  0.00    +0.000 C 
ATOM     26  C   UNL     1     -12.676   8.743 129.798  0.00  0.00    +0.000 C 
ENDBRANCH  22  25
ENDBRANCH   3  22
BRANCH   6  27
ATOM     27  O   UNL     1      -7.472   5.858 133.792  0.00  0.00    +0.000 OA
ATOM     28  C   UNL     1      -7.977   4.864 134.667  0.00  0.00    +0.000 C 
ENDBRANCH   6  27
TORSDOF 8
ENDMDL
MODEL 3
REMARK VINA RESULT:      -6.9      1.843      2.320
REMARK  Name = Amisulpride
REMARK  11 active torsions:
REMARK  status: ('A' for Active; 'I' for Inactive)
REMARK    1  A    between atoms: C_1  and  C_2
REMARK    2  A    between atoms: C_2  and  N_3
REMARK    3  A    between atoms: C_7  and  C_8
REMARK    4  A    between atoms: C_8  and  N_9
REMARK    5  A    between atoms: C_10  and  C_12
REMARK    6  A    between atoms: C_14  and  S_21
REMARK    7  A    between atoms: C_15  and  N_16
REMARK    8  A    between atoms: C_18  and  O_19
REMARK    9  A    between atoms: O_19  and  C_20
REMARK   10  A    between atoms: S_21  and  C_24
REMARK   11  A    between atoms: C_24  and  C_25
REMARK                            x       y       z     vdW  Elec       q    Type
REMARK                         _______ _______ _______ _____ _____    ______ ____
ROOT
ATOM      1  C   UNL     1      -8.821   5.962 130.944  0.00  0.00    +0.000 A 
ATOM      2  C   UNL     1      -9.474   6.704 129.937  0.00  0.00    +0.000 A 
ATOM      3  C   UNL     1     -10.804   7.194 130.097  0.00  0.00    +0.000 A 
ATOM      4  C   UNL     1     -11.522   6.911 131.266  0.00  0.00    +0.000 A 
ATOM      5  C   UNL     1     -10.835   6.192 132.267  0.00  0.00    +0.000 A 
ATOM      6  C   UNL     1      -9.514   5.707 132.138  0.00  0.00    +0.000 A 
ENDROOT
BRANCH   1   8
ATOM      7  N   UNL     1      -6.582   5.196 131.665  0.00  0.00    +0.000 N 
ATOM      8  C   UNL     1      -7.470   5.410 130.625  0.00  0.00    +0.000 C 
ATOM      9  O   UNL     1      -7.173   5.160 129.458  0.00  0.00    +0.000 OA
ATOM     10  H   UNL     1      -6.792   5.540 132.594  0.00  0.00    +0.000 HD
BRANCH   7  11
ATOM     11  C   UNL     1      -5.322   4.476 131.408  0.00  0.00    +0.000 C 
BRANCH  11  16
ATOM     12  N   UNL     1      -3.858   5.882 129.897  0.00  0.00    +0.000 NA
ATOM     13  C   UNL     1      -4.328   7.282 129.914  0.00  0.00    +0.000 C 
ATOM     14  C   UNL     1      -3.876   7.775 131.276  0.00  0.00    +0.000 C 
ATOM     15  C   UNL     1      -4.284   6.625 132.164  0.00  0.00    +0.000 C 
ATOM     16  C   UNL     1      -4.058   5.378 131.292  0.00  0.00    +0.000 C 
BRANCH  12  18
ATOM     17  C   UNL     1      -2.191   6.838 128.147  0.00  0.00    +0.000 C 
ATOM     18  C   UNL     1      -2.515   5.888 129.277  0.00  0.00    +0.000 C 
ENDBRANCH  12  18
ENDBRANCH  11  16
ENDBRANCH   7  11
ENDBRANCH   1   8
BRANCH   4  19
ATOM     19  N   UNL     1     -12.750   7.447 131.653  0.00  0.00    +0.000 N 
ATOM     20  H   UNL     1     -13.256   8.105 131.092  0.00  0.00    +0.000 HD
ATOM     21  H   UNL     1     -13.407   6.813 132.102  0.00  0.00    +0.000 HD
ENDBRANCH   4  19
BRANCH   3  22
ATOM     22  S   UNL     1     -11.430   8.145 128.704  0.00  0.00    +0.000 S 
ATOM     23  O   UNL     1     -12.307   9.148 129.280  0.00  0.00    +0.000 OA
ATOM     24  O   UNL     1     -10.260   8.536 127.939  0.00  0.00    +0.000 OA
BRANCH  22  25
ATOM     25  C   UNL     1     -12.419   7.113 127.656  0.00  0.00    +0.000 C 
ATOM     26  C   UNL     1     -13.887   7.064 128.005  0.00  0.00    +0.000 C 
ENDBRANCH  22  25
ENDBRANCH   3  22
BRANCH   6  27
ATOM     27  O   UNL     1      -9.113   5.071 133.287  0.00  0.00    +0.000 OA
ATOM     28  C   UNL     1      -9.375   3.685 133.437  0.00  0.00    +0.000 C 
ENDBRANCH   6  27
TORSDOF 8
ENDMDL
MODEL 4
REMARK VINA RESULT:      -6.9      2.339      3.339
REMARK  Name = Amisulpride
REMARK  11 active torsions:
REMARK  status: ('A' for Active; 'I' for Inactive)
REMARK    1  A    between atoms: C_1  and  C_2
REMARK    2  A    between atoms: C_2  and  N_3
REMARK    3  A    between atoms: C_7  and  C_8
REMARK    4  A    between atoms: C_8  and  N_9
REMARK    5  A    between atoms: C_10  and  C_12
REMARK    6  A    between atoms: C_14  and  S_21
REMARK    7  A    between atoms: C_15  and  N_16
REMARK    8  A    between atoms: C_18  and  O_19
REMARK    9  A    between atoms: O_19  and  C_20
REMARK   10  A    between atoms: S_21  and  C_24
REMARK   11  A    between atoms: C_24  and  C_25
REMARK                            x       y       z     vdW  Elec       q    Type
REMARK                         _______ _______ _______ _____ _____    ______ ____
ROOT
ATOM      1  C   UNL     1      -8.132   6.620 131.337  0.00  0.00    +0.000 A 
ATOM      2  C   UNL     1      -8.945   7.198 130.339  0.00  0.00    +0.000 A 
ATOM      3  C   UNL     1     -10.369   7.150 130.400  0.00  0.00    +0.000 A 
ATOM      4  C   UNL     1     -11.007   6.481 131.452  0.00  0.00    +0.000 A 
ATOM      5  C   UNL     1     -10.170   5.936 132.449  0.00  0.00    +0.000 A 
ATOM      6  C   UNL     1      -8.758   5.983 132.420  0.00  0.00    +0.000 A 
ENDROOT
BRANCH   1   8
ATOM      7  N   UNL     1      -5.898   5.597 131.622  0.00  0.00    +0.000 N 
ATOM      8  C   UNL     1      -6.655   6.639 131.117  0.00  0.00    +0.000 C 
ATOM      9  O   UNL     1      -6.142   7.571 130.497  0.00  0.00    +0.000 OA
ATOM     10  H   UNL     1      -6.316   4.919 132.248  0.00  0.00    +0.000 HD
BRANCH   7  11
ATOM     11  C   UNL     1      -4.475   5.487 131.256  0.00  0.00    +0.000 C 
BRANCH  11  16
ATOM     12  N   UNL     1      -2.435   6.587 132.274  0.00  0.00    +0.000 NA
ATOM     13  C   UNL     1      -2.856   7.706 133.141  0.00  0.00    +0.000 C 
ATOM     14  C   UNL     1      -3.426   6.998 134.356  0.00  0.00    +0.000 C 
ATOM     15  C   UNL     1      -4.270   5.926 133.712  0.00  0.00    +0.000 C 
ATOM     16  C   UNL     1      -3.479   5.530 132.454  0.00  0.00    +0.000 C 
BRANCH  12  18
ATOM     17  C   UNL     1      -0.078   7.436 132.968  0.00  0.00    +0.000 C 
ATOM     18  C   UNL     1      -1.016   6.313 132.587  0.00  0.00    +0.000 C 
ENDBRANCH  12  18
ENDBRANCH  11  16
ENDBRANCH   7  11
ENDBRANCH   1   8
BRANCH   4  19
ATOM     19  N   UNL     1     -12.368   6.482 131.752  0.00  0.00    +0.000 N 
ATOM     20  H   UNL     1     -12.939   7.302 131.676  0.00  0.00    +0.000 HD
ATOM     21  H   UNL     1     -12.906   5.671 131.457  0.00  0.00    +0.000 HD
ENDBRANCH   4  19
BRANCH   3  22
ATOM     22  S   UNL     1     -11.210   7.980 129.043  0.00  0.00    +0.000 S 
ATOM     23  O   UNL     1     -12.160   8.882 129.667  0.00  0.00    +0.000 OA
ATOM     24  O   UNL     1     -10.157   8.492 128.184  0.00  0.00    +0.000 OA
BRANCH  22  25
ATOM     25  C   UNL     1     -12.137   6.807 128.091  0.00  0.00    +0.000 C 
ATOM     26  C   UNL     1     -13.634   6.998 128.119  0.00  0.00    +0.000 C 
ENDBRANCH  22  25
ENDBRANCH   3  22
BRANCH   6  27
ATOM     27  O   UNL     1      -8.227   5.393 133.540  0.00  0.00    +0.000 OA
ATOM     28  C   UNL     1      -8.668   4.099 133.916  0.00  0.00    +0.000 C 
ENDBRANCH   6  27
TORSDOF 8
ENDMDL
MODEL 5
REMARK VINA RESULT:      -6.7      3.202      4.336
REMARK  Name = Amisulpride
REMARK  11 active torsions:
REMARK  status: ('A' for Active; 'I' for Inactive)
REMARK    1  A    between atoms: C_1  and  C_2
REMARK    2  A    between atoms: C_2  and  N_3
REMARK    3  A    between atoms: C_7  and  C_8
REMARK    4  A    between atoms: C_8  and  N_9
REMARK    5  A    between atoms: C_10  and  C_12
REMARK    6  A    between atoms: C_14  and  S_21
REMARK    7  A    between atoms: C_15  and  N_16
REMARK    8  A    between atoms: C_18  and  O_19
REMARK    9  A    between atoms: O_19  and  C_20
REMARK   10  A    between atoms: S_21  and  C_24
REMARK   11  A    between atoms: C_24  and  C_25
REMARK                            x       y       z     vdW  Elec       q    Type
REMARK                         _______ _______ _______ _____ _____    ______ ____
ROOT
ATOM      1  C   UNL     1      -6.881   6.517 131.486  0.00  0.00    +0.000 A 
ATOM      2  C   UNL     1      -7.917   6.575 130.529  0.00  0.00    +0.000 A 
ATOM      3  C   UNL     1      -9.265   6.234 130.849  0.00  0.00    +0.000 A 
ATOM      4  C   UNL     1      -9.592   5.788 132.135  0.00  0.00    +0.000 A 
ATOM      5  C   UNL     1      -8.543   5.766 133.079  0.00  0.00    +0.000 A 
ATOM      6  C   UNL     1      -7.202   6.112 132.791  0.00  0.00    +0.000 A 
ENDROOT
BRANCH   1   8
ATOM      7  N   UNL     1      -4.443   6.126 131.619  0.00  0.00    +0.000 N 
ATOM      8  C   UNL     1      -5.492   6.794 131.013  0.00  0.00    +0.000 C 
ATOM      9  O   UNL     1      -5.307   7.603 130.105  0.00  0.00    +0.000 OA
ATOM     10  H   UNL     1      -4.601   5.576 132.454  0.00  0.00    +0.000 HD
BRANCH   7  11
ATOM     11  C   UNL     1      -3.088   6.230 131.048  0.00  0.00    +0.000 C 
BRANCH  11  16
ATOM     12  N   UNL     1      -2.562   7.464 133.193  0.00  0.00    +0.000 NA
ATOM     13  C   UNL     1      -1.645   6.653 134.020  0.00  0.00    +0.000 C 
ATOM     14  C   UNL     1      -0.322   6.787 133.290  0.00  0.00    +0.000 C 
ATOM     15  C   UNL     1      -0.745   6.577 131.857  0.00  0.00    +0.000 C 
ATOM     16  C   UNL     1      -2.138   7.225 131.778  0.00  0.00    +0.000 C 
BRANCH  12  18
ATOM     17  C   UNL     1      -2.183  10.022 132.917  0.00  0.00    +0.000 C 
ATOM     18  C   UNL     1      -2.560   8.828 133.765  0.00  0.00    +0.000 C 
ENDBRANCH  12  18
ENDBRANCH  11  16
ENDBRANCH   7  11
ENDBRANCH   1   8
BRANCH   4  19
ATOM     19  N   UNL     1     -10.867   5.579 132.659  0.00  0.00    +0.000 N 
ATOM     20  H   UNL     1     -11.495   4.887 132.297  0.00  0.00    +0.000 HD
ATOM     21  H   UNL     1     -10.962   5.622 133.670  0.00  0.00    +0.000 HD
ENDBRANCH   4  19
BRANCH   3  22
ATOM     22  S   UNL     1     -10.430   6.412 129.490  0.00  0.00    +0.000 S 
ATOM     23  O   UNL     1      -9.625   6.400 128.282  0.00  0.00    +0.000 OA
ATOM     24  O   UNL     1     -11.447   5.401 129.711  0.00  0.00    +0.000 OA
BRANCH  22  25
ATOM     25  C   UNL     1     -11.233   7.989 129.577  0.00  0.00    +0.000 C 
ATOM     26  C   UNL     1     -12.585   7.985 130.250  0.00  0.00    +0.000 C 
ENDBRANCH  22  25
ENDBRANCH   3  22
BRANCH   6  27
ATOM     27  O   UNL     1      -6.422   6.017 133.917  0.00  0.00    +0.000 OA
ATOM     28  C   UNL     1      -7.037   5.733 135.163  0.00  0.00    +0.000 C 
ENDBRANCH   6  27
TORSDOF 8
ENDMDL
MODEL 6
REMARK VINA RESULT:      -6.6      4.783      5.828
REMARK  Name = Amisulpride
REMARK  11 active torsions:
REMARK  status: ('A' for Active; 'I' for Inactive)
REMARK    1  A    between atoms: C_1  and  C_2
REMARK    2  A    between atoms: C_2  and  N_3
REMARK    3  A    between atoms: C_7  and  C_8
REMARK    4  A    between atoms: C_8  and  N_9
REMARK    5  A    between atoms: C_10  and  C_12
REMARK    6  A    between atoms: C_14  and  S_21
REMARK    7  A    between atoms: C_15  and  N_16
REMARK    8  A    between atoms: C_18  and  O_19
REMARK    9  A    between atoms: O_19  and  C_20
REMARK   10  A    between atoms: S_21  and  C_24
REMARK   11  A    between atoms: C_24  and  C_25
REMARK                            x       y       z     vdW  Elec       q    Type
REMARK                         _______ _______ _______ _____ _____    ______ ____
ROOT
ATOM      1  C   UNL     1      -8.738   2.106 130.112  0.00  0.00    +0.000 A 
ATOM      2  C   UNL     1      -8.732   3.515 130.194  0.00  0.00    +0.000 A 
ATOM      3  C   UNL     1      -9.070   4.207 131.394  0.00  0.00    +0.000 A 
ATOM      4  C   UNL     1      -9.464   3.491 132.531  0.00  0.00    +0.000 A 
ATOM      5  C   UNL     1      -9.435   2.084 132.430  0.00  0.00    +0.000 A 
ATOM      6  C   UNL     1      -9.090   1.375 131.257  0.00  0.00    +0.000 A 
ENDROOT
BRANCH   1   8
ATOM      7  N   UNL     1      -7.792   0.288 128.727  0.00  0.00    +0.000 N 
ATOM      8  C   UNL     1      -8.469   1.494 128.776  0.00  0.00    +0.000 C 
ATOM      9  O   UNL     1      -8.848   2.066 127.755  0.00  0.00    +0.000 OA
ATOM     10  H   UNL     1      -7.366  -0.093 129.563  0.00  0.00    +0.000 HD
BRANCH   7  11
ATOM     11  C   UNL     1      -7.683  -0.433 127.447  0.00  0.00    +0.000 C 
BRANCH  11  16
ATOM     12  N   UNL     1      -7.137  -2.361 128.992  0.00  0.00    +0.000 NA
ATOM     13  C   UNL     1      -8.377  -3.084 129.340  0.00  0.00    +0.000 C 
ATOM     14  C   UNL     1      -8.701  -3.835 128.062  0.00  0.00    +0.000 C 
ATOM     15  C   UNL     1      -8.486  -2.765 127.020  0.00  0.00    +0.000 C 
ATOM     16  C   UNL     1      -7.308  -1.940 127.567  0.00  0.00    +0.000 C 
BRANCH  12  18
ATOM     17  C   UNL     1      -6.070  -4.026 130.679  0.00  0.00    +0.000 C 
ATOM     18  C   UNL     1      -6.008  -3.226 129.397  0.00  0.00    +0.000 C 
ENDBRANCH  12  18
ENDBRANCH  11  16
ENDBRANCH   7  11
ENDBRANCH   1   8
BRANCH   4  19
ATOM     19  N   UNL     1      -9.661   3.991 133.818  0.00  0.00    +0.000 N 
ATOM     20  H   UNL     1      -8.905   4.199 134.441  0.00  0.00    +0.000 HD
ATOM     21  H   UNL     1     -10.392   4.688 133.933  0.00  0.00    +0.000 HD
ENDBRANCH   4  19
BRANCH   3  22
ATOM     22  S   UNL     1      -8.962   5.999 131.288  0.00  0.00    +0.000 S 
ATOM     23  O   UNL     1      -8.961   6.472 132.660  0.00  0.00    +0.000 OA
ATOM     24  O   UNL     1      -7.839   6.273 130.410  0.00  0.00    +0.000 OA
BRANCH  22  25
ATOM     25  C   UNL     1     -10.410   6.652 130.502  0.00  0.00    +0.000 C 
ATOM     26  C   UNL     1     -11.658   5.817 130.659  0.00  0.00    +0.000 C 
ENDBRANCH  22  25
ENDBRANCH   3  22
BRANCH   6  27
ATOM     27  O   UNL     1      -9.128   0.020 131.477  0.00  0.00    +0.000 OA
ATOM     28  C   UNL     1      -8.110  -0.583 132.259  0.00  0.00    +0.000 C 
ENDBRANCH   6  27
TORSDOF 8
ENDMDL
MODEL 7
REMARK VINA RESULT:      -6.6      2.262      2.771
REMARK  Name = Amisulpride
REMARK  11 active torsions:
REMARK  status: ('A' for Active; 'I' for Inactive)
REMARK    1  A    between atoms: C_1  and  C_2
REMARK    2  A    between atoms: C_2  and  N_3
REMARK    3  A    between atoms: C_7  and  C_8
REMARK    4  A    between atoms: C_8  and  N_9
REMARK    5  A    between atoms: C_10  and  C_12
REMARK    6  A    between atoms: C_14  and  S_21
REMARK    7  A    between atoms: C_15  and  N_16
REMARK    8  A    between atoms: C_18  and  O_19
REMARK    9  A    between atoms: O_19  and  C_20
REMARK   10  A    between atoms: S_21  and  C_24
REMARK   11  A    between atoms: C_24  and  C_25
REMARK                            x       y       z     vdW  Elec       q    Type
REMARK                         _______ _______ _______ _____ _____    ______ ____
ROOT
ATOM      1  C   UNL     1      -8.967   6.254 130.979  0.00  0.00    +0.000 A 
ATOM      2  C   UNL     1      -9.760   6.760 129.926  0.00  0.00    +0.000 A 
ATOM      3  C   UNL     1     -11.142   7.066 130.097  0.00  0.00    +0.000 A 
ATOM      4  C   UNL     1     -11.768   6.832 131.328  0.00  0.00    +0.000 A 
ATOM      5  C   UNL     1     -10.946   6.353 132.370  0.00  0.00    +0.000 A 
ATOM      6  C   UNL     1      -9.571   6.054 132.230  0.00  0.00    +0.000 A 
ENDROOT
BRANCH   1   8
ATOM      7  N   UNL     1      -6.568   6.166 131.576  0.00  0.00    +0.000 N 
ATOM      8  C   UNL     1      -7.560   5.870 130.657  0.00  0.00    +0.000 C 
ATOM      9  O   UNL     1      -7.310   5.305 129.593  0.00  0.00    +0.000 OA
ATOM     10  H   UNL     1      -6.771   6.754 132.374  0.00  0.00    +0.000 HD
BRANCH   7  11
ATOM     11  C   UNL     1      -5.210   5.631 131.377  0.00  0.00    +0.000 C 
BRANCH  11  16
ATOM     12  N   UNL     1      -2.954   6.167 130.364  0.00  0.00    +0.000 NA
ATOM     13  C   UNL     1      -3.138   6.705 129.000  0.00  0.00    +0.000 C 
ATOM     14  C   UNL     1      -3.668   8.103 129.256  0.00  0.00    +0.000 C 
ATOM     15  C   UNL     1      -4.704   7.843 130.322  0.00  0.00    +0.000 C 
ATOM     16  C   UNL     1      -4.102   6.703 131.161  0.00  0.00    +0.000 C 
BRANCH  12  18
ATOM     17  C   UNL     1      -1.233   6.966 132.141  0.00  0.00    +0.000 C 
ATOM     18  C   UNL     1      -1.558   6.459 130.754  0.00  0.00    +0.000 C 
ENDBRANCH  12  18
ENDBRANCH  11  16
ENDBRANCH   7  11
ENDBRANCH   1   8
BRANCH   4  19
ATOM     19  N   UNL     1     -13.048   7.227 131.713  0.00  0.00    +0.000 N 
ATOM     20  H   UNL     1     -13.387   8.162 131.592  0.00  0.00    +0.000 HD
ATOM     21  H   UNL     1     -13.805   6.571 131.537  0.00  0.00    +0.000 HD
ENDBRANCH   4  19
BRANCH   3  22
ATOM     22  S   UNL     1     -11.953   7.732 128.636  0.00  0.00    +0.000 S 
ATOM     23  O   UNL     1     -12.680   6.619 128.052  0.00  0.00    +0.000 OA
ATOM     24  O   UNL     1     -12.656   8.920 129.085  0.00  0.00    +0.000 OA
BRANCH  22  25
ATOM     25  C   UNL     1     -10.743   8.256 127.452  0.00  0.00    +0.000 C 
ATOM     26  C   UNL     1     -10.848   7.603 126.095  0.00  0.00    +0.000 C 
ENDBRANCH  22  25
ENDBRANCH   3  22
BRANCH   6  27
ATOM     27  O   UNL     1      -9.040   5.633 133.424  0.00  0.00    +0.000 OA
ATOM     28  C   UNL     1      -9.006   4.246 133.715  0.00  0.00    +0.000 C 
ENDBRANCH   6  27
TORSDOF 8
ENDMDL
MODEL 8
REMARK VINA RESULT:      -6.6      2.403      3.118
REMARK  Name = Amisulpride
REMARK  11 active torsions:
REMARK  status: ('A' for Active; 'I' for Inactive)
REMARK    1  A    between atoms: C_1  and  C_2
REMARK    2  A    between atoms: C_2  and  N_3
REMARK    3  A    between atoms: C_7  and  C_8
REMARK    4  A    between atoms: C_8  and  N_9
REMARK    5  A    between atoms: C_10  and  C_12
REMARK    6  A    between atoms: C_14  and  S_21
REMARK    7  A    between atoms: C_15  and  N_16
REMARK    8  A    between atoms: C_18  and  O_19
REMARK    9  A    between atoms: O_19  and  C_20
REMARK   10  A    between atoms: S_21  and  C_24
REMARK   11  A    between atoms: C_24  and  C_25
REMARK                            x       y       z     vdW  Elec       q    Type
REMARK                         _______ _______ _______ _____ _____    ______ ____
ROOT
ATOM      1  C   UNL     1      -7.859   5.999 131.208  0.00  0.00    +0.000 A 
ATOM      2  C   UNL     1      -8.777   6.689 130.387  0.00  0.00    +0.000 A 
ATOM      3  C   UNL     1     -10.045   6.139 130.039  0.00  0.00    +0.000 A 
ATOM      4  C   UNL     1     -10.401   4.858 130.480  0.00  0.00    +0.000 A 
ATOM      5  C   UNL     1      -9.478   4.203 131.322  0.00  0.00    +0.000 A 
ATOM      6  C   UNL     1      -8.220   4.733 131.693  0.00  0.00    +0.000 A 
ENDROOT
BRANCH   1   8
ATOM      7  N   UNL     1      -5.745   6.186 132.479  0.00  0.00    +0.000 N 
ATOM      8  C   UNL     1      -6.520   6.627 131.421  0.00  0.00    +0.000 C 
ATOM      9  O   UNL     1      -6.134   7.515 130.661  0.00  0.00    +0.000 OA
ATOM     10  H   UNL     1      -6.136   5.561 133.173  0.00  0.00    +0.000 HD
BRANCH   7  11
ATOM     11  C   UNL     1      -4.349   6.644 132.598  0.00  0.00    +0.000 C 
BRANCH  11  16
ATOM     12  N   UNL     1      -2.387   6.705 131.001  0.00  0.00    +0.000 NA
ATOM     13  C   UNL     1      -1.124   6.724 131.768  0.00  0.00    +0.000 C 
ATOM     14  C   UNL     1      -1.020   5.301 132.284  0.00  0.00    +0.000 C 
ATOM     15  C   UNL     1      -2.425   5.053 132.774  0.00  0.00    +0.000 C 
ATOM     16  C   UNL     1      -3.311   5.821 131.779  0.00  0.00    +0.000 C 
BRANCH  12  18
ATOM     17  C   UNL     1      -2.696   5.237 128.878  0.00  0.00    +0.000 C 
ATOM     18  C   UNL     1      -2.033   6.387 129.601  0.00  0.00    +0.000 C 
ENDBRANCH  12  18
ENDBRANCH  11  16
ENDBRANCH   7  11
ENDBRANCH   1   8
BRANCH   4  19
ATOM     19  N   UNL     1     -11.650   4.246 130.376  0.00  0.00    +0.000 N 
ATOM     20  H   UNL     1     -12.505   4.714 130.612  0.00  0.00    +0.000 HD
ATOM     21  H   UNL     1     -11.805   3.652 129.566  0.00  0.00    +0.000 HD
ENDBRANCH   4  19
BRANCH   3  22
ATOM     22  S   UNL     1     -11.072   7.201 129.013  0.00  0.00    +0.000 S 
ATOM     23  O   UNL     1     -10.154   8.115 128.357  0.00  0.00    +0.000 OA
ATOM     24  O   UNL     1     -11.906   6.305 128.233  0.00  0.00    +0.000 OA
BRANCH  22  25
ATOM     25  C   UNL     1     -12.153   8.171 130.028  0.00  0.00    +0.000 C 
ATOM     26  C   UNL     1     -12.697   7.463 131.245  0.00  0.00    +0.000 C 
ENDBRANCH  22  25
ENDBRANCH   3  22
BRANCH   6  27
ATOM     27  O   UNL     1      -7.561   3.876 132.538  0.00  0.00    +0.000 OA
ATOM     28  C   UNL     1      -6.950   2.712 132.006  0.00  0.00    +0.000 C 
ENDBRANCH   6  27
TORSDOF 8
ENDMDL
MODEL 9
REMARK VINA RESULT:      -6.4      4.980      6.221
REMARK  Name = Amisulpride
REMARK  11 active torsions:
REMARK  status: ('A' for Active; 'I' for Inactive)
REMARK    1  A    between atoms: C_1  and  C_2
REMARK    2  A    between atoms: C_2  and  N_3
REMARK    3  A    between atoms: C_7  and  C_8
REMARK    4  A    between atoms: C_8  and  N_9
REMARK    5  A    between atoms: C_10  and  C_12
REMARK    6  A    between atoms: C_14  and  S_21
REMARK    7  A    between atoms: C_15  and  N_16
REMARK    8  A    between atoms: C_18  and  O_19
REMARK    9  A    between atoms: O_19  and  C_20
REMARK   10  A    between atoms: S_21  and  C_24
REMARK   11  A    between atoms: C_24  and  C_25
REMARK                            x       y       z     vdW  Elec       q    Type
REMARK                         _______ _______ _______ _____ _____    ______ ____
ROOT
ATOM      1  C   UNL     1      -8.678   2.128 129.430  0.00  0.00    +0.000 A 
ATOM      2  C   UNL     1      -9.184   3.439 129.564  0.00  0.00    +0.000 A 
ATOM      3  C   UNL     1      -9.590   3.971 130.823  0.00  0.00    +0.000 A 
ATOM      4  C   UNL     1      -9.532   3.175 131.974  0.00  0.00    +0.000 A 
ATOM      5  C   UNL     1      -8.996   1.879 131.816  0.00  0.00    +0.000 A 
ATOM      6  C   UNL     1      -8.574   1.335 130.582  0.00  0.00    +0.000 A 
ENDROOT
BRANCH   1   8
ATOM      7  N   UNL     1      -7.822   0.388 127.895  0.00  0.00    +0.000 N 
ATOM      8  C   UNL     1      -8.383   1.643 128.049  0.00  0.00    +0.000 C 
ATOM      9  O   UNL     1      -8.640   2.360 127.081  0.00  0.00    +0.000 OA
ATOM     10  H   UNL     1      -7.487  -0.124 128.703  0.00  0.00    +0.000 HD
BRANCH   7  11
ATOM     11  C   UNL     1      -7.700  -0.195 126.548  0.00  0.00    +0.000 C 
BRANCH  11  16
ATOM     12  N   UNL     1      -8.716  -2.473 126.974  0.00  0.00    +0.000 NA
ATOM     13  C   UNL     1      -9.371  -2.962 125.744  0.00  0.00    +0.000 C 
ATOM     14  C   UNL     1      -8.196  -3.342 124.862  0.00  0.00    +0.000 C 
ATOM     15  C   UNL     1      -7.285  -2.153 125.044  0.00  0.00    +0.000 C 
ATOM     16  C   UNL     1      -7.497  -1.739 126.511  0.00  0.00    +0.000 C 
BRANCH  12  18
ATOM     17  C   UNL     1      -8.191  -3.439 129.330  0.00  0.00    +0.000 C 
ATOM     18  C   UNL     1      -8.603  -3.631 127.887  0.00  0.00    +0.000 C 
ENDBRANCH  12  18
ENDBRANCH  11  16
ENDBRANCH   7  11
ENDBRANCH   1   8
BRANCH   4  19
ATOM     19  N   UNL     1      -9.726   3.583 133.293  0.00  0.00    +0.000 N 
ATOM     20  H   UNL     1      -8.967   3.807 133.909  0.00  0.00    +0.000 HD
ATOM     21  H   UNL     1     -10.500   4.218 133.470  0.00  0.00    +0.000 HD
ENDBRANCH   4  19
BRANCH   3  22
ATOM     22  S   UNL     1     -10.172   5.672 130.771  0.00  0.00    +0.000 S 
ATOM     23  O   UNL     1     -10.880   5.804 129.511  0.00  0.00    +0.000 OA
ATOM     24  O   UNL     1     -10.858   5.890 132.032  0.00  0.00    +0.000 OA
BRANCH  22  25
ATOM     25  C   UNL     1      -8.795   6.786 130.726  0.00  0.00    +0.000 C 
ATOM     26  C   UNL     1      -7.639   6.416 131.624  0.00  0.00    +0.000 C 
ENDBRANCH  22  25
ENDBRANCH   3  22
BRANCH   6  27
ATOM     27  O   UNL     1      -8.076   0.067 130.754  0.00  0.00    +0.000 OA
ATOM     28  C   UNL     1      -8.253  -0.583 132.002  0.00  0.00    +0.000 C 
ENDBRANCH   6  27
TORSDOF 8
ENDMDL
