MODEL 1
REMARK VINA RESULT:      -7.4      0.000      0.000
REMARK  Name = Amitriptyline
REMARK  5 active torsions:
REMARK  status: ('A' for Active; 'I' for Inactive)
REMARK    1  A    between atoms: C_1  and  N_2
REMARK    2  A    between atoms: N_2  and  C_3
REMARK    3  A    between atoms: N_2  and  C_4
REMARK    4  A    between atoms: C_4  and  C_5
REMARK    5  A    between atoms: C_5  and  C_6
REMARK                            x       y       z     vdW  Elec       q    Type
REMARK                         _______ _______ _______ _____ _____    ______ ____
ROOT
ATOM      1  C   UNL     1      -8.501   0.625 126.701  0.00  0.00    +0.000 C 
ATOM      2  C   UNL     1      -7.986  -0.616 126.570  0.00  0.00    +0.000 C 
ATOM      3  C   UNL     1      -7.746  -1.165 125.214  0.00  0.00    +0.000 A 
ATOM      4  C   UNL     1      -6.729  -0.668 124.388  0.00  0.00    +0.000 A 
ATOM      5  C   UNL     1      -6.522  -1.215 123.123  0.00  0.00    +0.000 A 
ATOM      6  C   UNL     1      -7.308  -2.280 122.687  0.00  0.00    +0.000 A 
ATOM      7  C   UNL     1      -8.310  -2.794 123.510  0.00  0.00    +0.000 A 
ATOM      8  C   UNL     1      -8.545  -2.230 124.769  0.00  0.00    +0.000 A 
ATOM      9  C   UNL     1      -9.597  -2.798 125.684  0.00  0.00    +0.000 C 
ATOM     10  C   UNL     1      -8.941  -3.577 126.821  0.00  0.00    +0.000 C 
ATOM     11  C   UNL     1      -8.185  -2.795 127.883  0.00  0.00    +0.000 A 
ATOM     12  C   UNL     1      -7.850  -3.525 129.042  0.00  0.00    +0.000 A 
ATOM     13  C   UNL     1      -7.144  -2.938 130.088  0.00  0.00    +0.000 A 
ATOM     14  C   UNL     1      -6.746  -1.612 129.996  0.00  0.00    +0.000 A 
ATOM     15  C   UNL     1      -7.053  -0.875 128.853  0.00  0.00    +0.000 A 
ATOM     16  C   UNL     1      -7.775  -1.447 127.788  0.00  0.00    +0.000 A 
ENDROOT
BRANCH   1  17
ATOM     17  C   UNL     1      -8.787   1.550 125.545  0.00  0.00    +0.000 C 
BRANCH  17  18
ATOM     18  C   UNL     1     -10.090   1.253 124.792  0.00  0.00    +0.000 C 
BRANCH  18  20
ATOM     19  C   UNL     1      -8.730   2.280 123.091  0.00  0.00    +0.000 C 
ATOM     20  N   UNL     1      -9.991   1.585 123.356  0.00  0.00    +0.000 NA
ATOM     21  C   UNL     1     -10.078   0.393 122.506  0.00  0.00    +0.000 C 
ENDBRANCH  18  20
ENDBRANCH  17  18
ENDBRANCH   1  17
TORSDOF 3
ENDMDL
MODEL 2
REMARK VINA RESULT:      -7.4      3.417      5.462
REMARK  Name = Amitriptyline
REMARK  5 active torsions:
REMARK  status: ('A' for Active; 'I' for Inactive)
REMARK    1  A    between atoms: C_1  and  N_2
REMARK    2  A    between atoms: N_2  and  C_3
REMARK    3  A    between atoms: N_2  and  C_4
REMARK    4  A    between atoms: C_4  and  C_5
REMARK    5  A    between atoms: C_5  and  C_6
REMARK                            x       y       z     vdW  Elec       q    Type
REMARK                         _______ _______ _______ _____ _____    ______ ____
ROOT
ATOM      1  C   UNL     1      -6.394   1.792 124.973  0.00  0.00    +0.000 C 
ATOM      2  C   UNL     1      -6.951   1.323 123.837  0.00  0.00    +0.000 C 
ATOM      3  C   UNL     1      -7.194   2.253 122.707  0.00  0.00    +0.000 A 
ATOM      4  C   UNL     1      -6.140   2.789 121.956  0.00  0.00    +0.000 A 
ATOM      5  C   UNL     1      -6.403   3.651 120.892  0.00  0.00    +0.000 A 
ATOM      6  C   UNL     1      -7.720   3.958 120.554  0.00  0.00    +0.000 A 
ATOM      7  C   UNL     1      -8.775   3.413 121.284  0.00  0.00    +0.000 A 
ATOM      8  C   UNL     1      -8.518   2.572 122.373  0.00  0.00    +0.000 A 
ATOM      9  C   UNL     1      -9.648   1.946 123.146  0.00  0.00    +0.000 C 
ATOM     10  C   UNL     1      -9.767   0.464 122.799  0.00  0.00    +0.000 C 
ATOM     11  C   UNL     1      -8.676  -0.476 123.286  0.00  0.00    +0.000 A 
ATOM     12  C   UNL     1      -8.977  -1.849 123.185  0.00  0.00    +0.000 A 
ATOM     13  C   UNL     1      -8.062  -2.821 123.580  0.00  0.00    +0.000 A 
ATOM     14  C   UNL     1      -6.822  -2.445 124.074  0.00  0.00    +0.000 A 
ATOM     15  C   UNL     1      -6.496  -1.092 124.168  0.00  0.00    +0.000 A 
ATOM     16  C   UNL     1      -7.410  -0.092 123.783  0.00  0.00    +0.000 A 
ENDROOT
BRANCH   1  17
ATOM     17  C   UNL     1      -5.916   3.210 125.160  0.00  0.00    +0.000 C 
BRANCH  17  18
ATOM     18  C   UNL     1      -6.797   4.069 126.078  0.00  0.00    +0.000 C 
BRANCH  18  20
ATOM     19  C   UNL     1      -6.231   4.130 128.417  0.00  0.00    +0.000 C 
ATOM     20  N   UNL     1      -6.007   4.762 127.116  0.00  0.00    +0.000 NA
ATOM     21  C   UNL     1      -4.572   4.759 126.813  0.00  0.00    +0.000 C 
ENDBRANCH  18  20
ENDBRANCH  17  18
ENDBRANCH   1  17
TORSDOF 3
ENDMDL
MODEL 3
REMARK VINA RESULT:      -7.3      2.027      2.812
REMARK  Name = Amitriptyline
REMARK  5 active torsions:
REMARK  status: ('A' for Active; 'I' for Inactive)
REMARK    1  A    between atoms: C_1  and  N_2
REMARK    2  A    between atoms: N_2  and  C_3
REMARK    3  A    between atoms: N_2  and  C_4
REMARK    4  A    between atoms: C_4  and  C_5
REMARK    5  A    between atoms: C_5  and  C_6
REMARK                            x       y       z     vdW  Elec       q    Type
REMARK                         _______ _______ _______ _____ _____    ______ ____
ROOT
ATOM      1  C   UNL     1      -5.324  -0.521 127.411  0.00  0.00    +0.000 C 
ATOM      2  C   UNL     1      -5.704  -1.815 127.464  0.00  0.00    +0.000 C 
ATOM      3  C   UNL     1      -6.472  -2.395 126.336  0.00  0.00    +0.000 A 
ATOM      4  C   UNL     1      -5.881  -2.632 125.088  0.00  0.00    +0.000 A 
ATOM      5  C   UNL     1      -6.629  -3.190 124.052  0.00  0.00    +0.000 A 
ATOM      6  C   UNL     1      -7.960  -3.543 124.265  0.00  0.00    +0.000 A 
ATOM      7  C   UNL     1      -8.550  -3.328 125.509  0.00  0.00    +0.000 A 
ATOM      8  C   UNL     1      -7.816  -2.740 126.545  0.00  0.00    +0.000 A 
ATOM      9  C   UNL     1      -8.429  -2.538 127.906  0.00  0.00    +0.000 C 
ATOM     10  C   UNL     1      -7.865  -3.556 128.894  0.00  0.00    +0.000 C 
ATOM     11  C   UNL     1      -6.416  -3.407 129.328  0.00  0.00    +0.000 A 
ATOM     12  C   UNL     1      -6.038  -4.188 130.438  0.00  0.00    +0.000 A 
ATOM     13  C   UNL     1      -4.737  -4.162 130.933  0.00  0.00    +0.000 A 
ATOM     14  C   UNL     1      -3.780  -3.364 130.322  0.00  0.00    +0.000 A 
ATOM     15  C   UNL     1      -4.127  -2.595 129.212  0.00  0.00    +0.000 A 
ATOM     16  C   UNL     1      -5.440  -2.599 128.702  0.00  0.00    +0.000 A 
ENDROOT
BRANCH   1  17
ATOM     17  C   UNL     1      -5.560   0.383 126.227  0.00  0.00    +0.000 C 
BRANCH  17  18
ATOM     18  C   UNL     1      -6.604   1.483 126.458  0.00  0.00    +0.000 C 
BRANCH  18  20
ATOM     19  C   UNL     1      -7.294   0.637 124.312  0.00  0.00    +0.000 C 
ATOM     20  N   UNL     1      -7.710   1.413 125.480  0.00  0.00    +0.000 NA
ATOM     21  C   UNL     1      -8.920   0.818 126.057  0.00  0.00    +0.000 C 
ENDBRANCH  18  20
ENDBRANCH  17  18
ENDBRANCH   1  17
TORSDOF 3
ENDMDL
MODEL 4
REMARK VINA RESULT:      -7.2      7.616      9.715
REMARK  Name = Amitriptyline
REMARK  5 active torsions:
REMARK  status: ('A' for Active; 'I' for Inactive)
REMARK    1  A    between atoms: C_1  and  N_2
REMARK    2  A    between atoms: N_2  and  C_3
REMARK    3  A    between atoms: N_2  and  C_4
REMARK    4  A    between atoms: C_4  and  C_5
REMARK    5  A    between atoms: C_5  and  C_6
REMARK                            x       y       z     vdW  Elec       q    Type
REMARK                         _______ _______ _______ _____ _____    ______ ____
ROOT
ATOM      1  C   UNL     1      -8.711   7.014 130.923  0.00  0.00    +0.000 C 
ATOM      2  C   UNL     1      -7.928   6.042 131.437  0.00  0.00    +0.000 C 
ATOM      3  C   UNL     1      -8.519   4.716 131.740  0.00  0.00    +0.000 A 
ATOM      4  C   UNL     1      -8.920   3.839 130.724  0.00  0.00    +0.000 A 
ATOM      5  C   UNL     1      -9.462   2.595 131.043  0.00  0.00    +0.000 A 
ATOM      6  C   UNL     1      -9.576   2.206 132.376  0.00  0.00    +0.000 A 
ATOM      7  C   UNL     1      -9.161   3.064 133.393  0.00  0.00    +0.000 A 
ATOM      8  C   UNL     1      -8.646   4.328 133.082  0.00  0.00    +0.000 A 
ATOM      9  C   UNL     1      -8.157   5.249 134.168  0.00  0.00    +0.000 C 
ATOM     10  C   UNL     1      -6.632   5.293 134.176  0.00  0.00    +0.000 C 
ATOM     11  C   UNL     1      -5.928   5.989 133.022  0.00  0.00    +0.000 A 
ATOM     12  C   UNL     1      -4.557   6.245 133.221  0.00  0.00    +0.000 A 
ATOM     13  C   UNL     1      -3.786   6.863 132.240  0.00  0.00    +0.000 A 
ATOM     14  C   UNL     1      -4.365   7.229 131.034  0.00  0.00    +0.000 A 
ATOM     15  C   UNL     1      -5.716   6.971 130.809  0.00  0.00    +0.000 A 
ATOM     16  C   UNL     1      -6.516   6.356 131.791  0.00  0.00    +0.000 A 
ENDROOT
BRANCH   1  17
ATOM     17  C   UNL     1     -10.160   6.827 130.551  0.00  0.00    +0.000 C 
BRANCH  17  18
ATOM     18  C   UNL     1     -10.655   7.738 129.420  0.00  0.00    +0.000 C 
BRANCH  18  20
ATOM     19  C   UNL     1     -12.758   7.411 130.547  0.00  0.00    +0.000 C 
ATOM     20  N   UNL     1     -12.121   7.671 129.255  0.00  0.00    +0.000 NA
ATOM     21  C   UNL     1     -12.669   8.904 128.680  0.00  0.00    +0.000 C 
ENDBRANCH  18  20
ENDBRANCH  17  18
ENDBRANCH   1  17
TORSDOF 3
ENDMDL
MODEL 5
REMARK VINA RESULT:      -7.1      1.375      1.558
REMARK  Name = Amitriptyline
REMARK  5 active torsions:
REMARK  status: ('A' for Active; 'I' for Inactive)
REMARK    1  A    between atoms: C_1  and  N_2
REMARK    2  A    between atoms: N_2  and  C_3
REMARK    3  A    between atoms: N_2  and  C_4
REMARK    4  A    between atoms: C_4  and  C_5
REMARK    5  A    between atoms: C_5  and  C_6
REMARK                            x       y       z     vdW  Elec       q    Type
REMARK                         _______ _______ _______ _____ _____    ______ ____
ROOT
ATOM      1  C   UNL     1      -7.885   0.444 126.723  0.00  0.00    +0.000 C 
ATOM      2  C   UNL     1      -7.447  -0.808 126.972  0.00  0.00    +0.000 C 
ATOM      3  C   UNL     1      -6.962  -1.646 125.849  0.00  0.00    +0.000 A 
ATOM      4  C   UNL     1      -5.757  -1.368 125.190  0.00  0.00    +0.000 A 
ATOM      5  C   UNL     1      -5.323  -2.183 124.146  0.00  0.00    +0.000 A 
ATOM      6  C   UNL     1      -6.073  -3.297 123.774  0.00  0.00    +0.000 A 
ATOM      7  C   UNL     1      -7.263  -3.592 124.437  0.00  0.00    +0.000 A 
ATOM      8  C   UNL     1      -7.722  -2.762 125.466  0.00  0.00    +0.000 A 
ATOM      9  C   UNL     1      -8.985  -3.090 126.216  0.00  0.00    +0.000 C 
ATOM     10  C   UNL     1      -8.649  -3.619 127.608  0.00  0.00    +0.000 C 
ATOM     11  C   UNL     1      -8.084  -2.644 128.628  0.00  0.00    +0.000 A 
ATOM     12  C   UNL     1      -8.060  -3.111 129.957  0.00  0.00    +0.000 A 
ATOM     13  C   UNL     1      -7.555  -2.328 130.992  0.00  0.00    +0.000 A 
ATOM     14  C   UNL     1      -7.051  -1.065 130.720  0.00  0.00    +0.000 A 
ATOM     15  C   UNL     1      -7.049  -0.588 129.410  0.00  0.00    +0.000 A 
ATOM     16  C   UNL     1      -7.565  -1.359 128.351  0.00  0.00    +0.000 A 
ENDROOT
BRANCH   1  17
ATOM     17  C   UNL     1      -7.847   1.101 125.367  0.00  0.00    +0.000 C 
BRANCH  17  18
ATOM     18  C   UNL     1      -9.072   1.963 125.036  0.00  0.00    +0.000 C 
BRANCH  18  20
ATOM     19  C   UNL     1      -8.036   4.117 125.329  0.00  0.00    +0.000 C 
ATOM     20  N   UNL     1      -8.698   3.229 124.372  0.00  0.00    +0.000 NA
ATOM     21  C   UNL     1      -7.818   3.009 123.220  0.00  0.00    +0.000 C 
ENDBRANCH  18  20
ENDBRANCH  17  18
ENDBRANCH   1  17
TORSDOF 3
ENDMDL
MODEL 6
REMARK VINA RESULT:      -6.8      3.571      6.247
REMARK  Name = Amitriptyline
REMARK  5 active torsions:
REMARK  status: ('A' for Active; 'I' for Inactive)
REMARK    1  A    between atoms: C_1  and  N_2
REMARK    2  A    between atoms: N_2  and  C_3
REMARK    3  A    between atoms: N_2  and  C_4
REMARK    4  A    between atoms: C_4  and  C_5
REMARK    5  A    between atoms: C_5  and  C_6
REMARK                            x       y       z     vdW  Elec       q    Type
REMARK                         _______ _______ _______ _____ _____    ______ ____
ROOT
ATOM      1  C   UNL     1      -6.575  -2.137 130.955  0.00  0.00    +0.000 C 
ATOM      2  C   UNL     1      -7.512  -1.585 130.155  0.00  0.00    +0.000 C 
ATOM      3  C   UNL     1      -7.902  -2.281 128.904  0.00  0.00    +0.000 A 
ATOM      4  C   UNL     1      -8.638  -3.472 128.924  0.00  0.00    +0.000 A 
ATOM      5  C   UNL     1      -8.999  -4.095 127.730  0.00  0.00    +0.000 A 
ATOM      6  C   UNL     1      -8.655  -3.514 126.511  0.00  0.00    +0.000 A 
ATOM      7  C   UNL     1      -7.939  -2.318 126.481  0.00  0.00    +0.000 A 
ATOM      8  C   UNL     1      -7.546  -1.704 127.676  0.00  0.00    +0.000 A 
ATOM      9  C   UNL     1      -6.807  -0.392 127.661  0.00  0.00    +0.000 C 
ATOM     10  C   UNL     1      -7.737   0.742 128.086  0.00  0.00    +0.000 C 
ATOM     11  C   UNL     1      -8.175   0.801 129.540  0.00  0.00    +0.000 A 
ATOM     12  C   UNL     1      -8.790   2.007 129.933  0.00  0.00    +0.000 A 
ATOM     13  C   UNL     1      -9.255   2.194 131.232  0.00  0.00    +0.000 A 
ATOM     14  C   UNL     1      -9.127   1.175 132.165  0.00  0.00    +0.000 A 
ATOM     15  C   UNL     1      -8.537  -0.033 131.794  0.00  0.00    +0.000 A 
ATOM     16  C   UNL     1      -8.050  -0.238 130.489  0.00  0.00    +0.000 A 
ENDROOT
BRANCH   1  17
ATOM     17  C   UNL     1      -5.934  -3.479 130.708  0.00  0.00    +0.000 C 
BRANCH  17  18
ATOM     18  C   UNL     1      -4.612  -3.706 131.453  0.00  0.00    +0.000 C 
BRANCH  18  20
ATOM     19  C   UNL     1      -3.672  -3.673 129.238  0.00  0.00    +0.000 C 
ATOM     20  N   UNL     1      -3.442  -3.320 130.639  0.00  0.00    +0.000 NA
ATOM     21  C   UNL     1      -3.147  -1.887 130.740  0.00  0.00    +0.000 C 
ENDBRANCH  18  20
ENDBRANCH  17  18
ENDBRANCH   1  17
TORSDOF 3
ENDMDL
MODEL 7
REMARK VINA RESULT:      -6.7      2.601      4.889
REMARK  Name = Amitriptyline
REMARK  5 active torsions:
REMARK  status: ('A' for Active; 'I' for Inactive)
REMARK    1  A    between atoms: C_1  and  N_2
REMARK    2  A    between atoms: N_2  and  C_3
REMARK    3  A    between atoms: N_2  and  C_4
REMARK    4  A    between atoms: C_4  and  C_5
REMARK    5  A    between atoms: C_5  and  C_6
REMARK                            x       y       z     vdW  Elec       q    Type
REMARK                         _______ _______ _______ _____ _____    ______ ____
ROOT
ATOM      1  C   UNL     1      -8.577   0.676 126.703  0.00  0.00    +0.000 C 
ATOM      2  C   UNL     1      -8.266   0.385 125.422  0.00  0.00    +0.000 C 
ATOM      3  C   UNL     1      -7.812   1.471 124.519  0.00  0.00    +0.000 A 
ATOM      4  C   UNL     1      -6.561   2.081 124.673  0.00  0.00    +0.000 A 
ATOM      5  C   UNL     1      -6.160   3.090 123.799  0.00  0.00    +0.000 A 
ATOM      6  C   UNL     1      -6.992   3.474 122.750  0.00  0.00    +0.000 A 
ATOM      7  C   UNL     1      -8.231   2.859 122.578  0.00  0.00    +0.000 A 
ATOM      8  C   UNL     1      -8.655   1.867 123.469  0.00  0.00    +0.000 A 
ATOM      9  C   UNL     1      -9.973   1.167 123.273  0.00  0.00    +0.000 C 
ATOM     10  C   UNL     1      -9.745  -0.248 122.747  0.00  0.00    +0.000 C 
ATOM     11  C   UNL     1      -9.137  -1.274 123.689  0.00  0.00    +0.000 A 
ATOM     12  C   UNL     1      -9.213  -2.611 123.251  0.00  0.00    +0.000 A 
ATOM     13  C   UNL     1      -8.682  -3.653 124.008  0.00  0.00    +0.000 A 
ATOM     14  C   UNL     1      -8.053  -3.380 125.214  0.00  0.00    +0.000 A 
ATOM     15  C   UNL     1      -7.952  -2.063 125.660  0.00  0.00    +0.000 A 
ATOM     16  C   UNL     1      -8.492  -0.996 124.915  0.00  0.00    +0.000 A 
ENDROOT
BRANCH   1  17
ATOM     17  C   UNL     1      -8.421   2.041 127.324  0.00  0.00    +0.000 C 
BRANCH  17  18
ATOM     18  C   UNL     1      -8.626   2.082 128.844  0.00  0.00    +0.000 C 
BRANCH  18  20
ATOM     19  C   UNL     1      -9.876   3.111 130.626  0.00  0.00    +0.000 C 
ATOM     20  N   UNL     1      -9.344   3.299 129.275  0.00  0.00    +0.000 NA
ATOM     21  C   UNL     1      -8.483   4.486 129.251  0.00  0.00    +0.000 C 
ENDBRANCH  18  20
ENDBRANCH  17  18
ENDBRANCH   1  17
TORSDOF 3
ENDMDL
MODEL 8
REMARK VINA RESULT:      -6.6      3.155      4.847
REMARK  Name = Amitriptyline
REMARK  5 active torsions:
REMARK  status: ('A' for Active; 'I' for Inactive)
REMARK    1  A    between atoms: C_1  and  N_2
REMARK    2  A    between atoms: N_2  and  C_3
REMARK    3  A    between atoms: N_2  and  C_4
REMARK    4  A    between atoms: C_4  and  C_5
REMARK    5  A    between atoms: C_5  and  C_6
REMARK                            x       y       z     vdW  Elec       q    Type
REMARK                         _______ _______ _______ _____ _____    ______ ____
ROOT
ATOM      1  C   UNL     1      -5.448   0.479 125.918  0.00  0.00    +0.000 C 
ATOM      2  C   UNL     1      -6.320  -0.033 125.023  0.00  0.00    +0.000 C 
ATOM      3  C   UNL     1      -7.309   0.864 124.377  0.00  0.00    +0.000 A 
ATOM      4  C   UNL     1      -6.925   1.827 123.435  0.00  0.00    +0.000 A 
ATOM      5  C   UNL     1      -7.882   2.646 122.838  0.00  0.00    +0.000 A 
ATOM      6  C   UNL     1      -9.230   2.487 123.153  0.00  0.00    +0.000 A 
ATOM      7  C   UNL     1      -9.623   1.517 124.074  0.00  0.00    +0.000 A 
ATOM      8  C   UNL     1      -8.666   0.712 124.702  0.00  0.00    +0.000 A 
ATOM      9  C   UNL     1      -9.079  -0.364 125.670  0.00  0.00    +0.000 C 
ATOM     10  C   UNL     1      -8.934  -1.739 125.023  0.00  0.00    +0.000 C 
ATOM     11  C   UNL     1      -7.532  -2.264 124.761  0.00  0.00    +0.000 A 
ATOM     12  C   UNL     1      -7.454  -3.632 124.431  0.00  0.00    +0.000 A 
ATOM     13  C   UNL     1      -6.233  -4.241 124.152  0.00  0.00    +0.000 A 
ATOM     14  C   UNL     1      -5.064  -3.495 124.183  0.00  0.00    +0.000 A 
ATOM     15  C   UNL     1      -5.119  -2.136 124.491  0.00  0.00    +0.000 A 
ATOM     16  C   UNL     1      -6.342  -1.503 124.788  0.00  0.00    +0.000 A 
ENDROOT
BRANCH   1  17
ATOM     17  C   UNL     1      -5.350   1.943 126.264  0.00  0.00    +0.000 C 
BRANCH  17  18
ATOM     18  C   UNL     1      -3.933   2.431 126.592  0.00  0.00    +0.000 C 
BRANCH  18  20
ATOM     19  C   UNL     1      -2.590   4.278 127.353  0.00  0.00    +0.000 C 
ATOM     20  N   UNL     1      -3.942   3.722 127.310  0.00  0.00    +0.000 NA
ATOM     21  C   UNL     1      -4.850   4.693 126.690  0.00  0.00    +0.000 C 
ENDBRANCH  18  20
ENDBRANCH  17  18
ENDBRANCH   1  17
TORSDOF 3
ENDMDL
MODEL 9
REMARK VINA RESULT:      -6.6      8.061     10.391
REMARK  Name = Amitriptyline
REMARK  5 active torsions:
REMARK  status: ('A' for Active; 'I' for Inactive)
REMARK    1  A    between atoms: C_1  and  N_2
REMARK    2  A    between atoms: N_2  and  C_3
REMARK    3  A    between atoms: N_2  and  C_4
REMARK    4  A    between atoms: C_4  and  C_5
REMARK    5  A    between atoms: C_5  and  C_6
REMARK                            x       y       z     vdW  Elec       q    Type
REMARK                         _______ _______ _______ _____ _____    ______ ____
ROOT
ATOM      1  C   UNL     1      -6.247   5.526 130.497  0.00  0.00    +0.000 C 
ATOM      2  C   UNL     1      -4.898   5.563 130.455  0.00  0.00    +0.000 C 
ATOM      3  C   UNL     1      -4.165   6.455 131.386  0.00  0.00    +0.000 A 
ATOM      4  C   UNL     1      -4.103   6.192 132.760  0.00  0.00    +0.000 A 
ATOM      5  C   UNL     1      -3.395   7.045 133.607  0.00  0.00    +0.000 A 
ATOM      6  C   UNL     1      -2.720   8.145 133.082  0.00  0.00    +0.000 A 
ATOM      7  C   UNL     1      -2.761   8.403 131.712  0.00  0.00    +0.000 A 
ATOM      8  C   UNL     1      -3.495   7.570 130.860  0.00  0.00    +0.000 A 
ATOM      9  C   UNL     1      -3.516   7.814 129.374  0.00  0.00    +0.000 C 
ATOM     10  C   UNL     1      -2.653   6.778 128.658  0.00  0.00    +0.000 C 
ATOM     11  C   UNL     1      -3.148   5.342 128.610  0.00  0.00    +0.000 A 
ATOM     12  C   UNL     1      -2.466   4.502 127.707  0.00  0.00    +0.000 A 
ATOM     13  C   UNL     1      -2.805   3.158 127.572  0.00  0.00    +0.000 A 
ATOM     14  C   UNL     1      -3.825   2.620 128.344  0.00  0.00    +0.000 A 
ATOM     15  C   UNL     1      -4.502   3.429 129.255  0.00  0.00    +0.000 A 
ATOM     16  C   UNL     1      -4.182   4.793 129.400  0.00  0.00    +0.000 A 
ENDROOT
BRANCH   1  17
ATOM     17  C   UNL     1      -7.084   6.282 131.497  0.00  0.00    +0.000 C 
BRANCH  17  18
ATOM     18  C   UNL     1      -8.396   6.849 130.937  0.00  0.00    +0.000 C 
BRANCH  18  20
ATOM     19  C   UNL     1     -10.558   5.799 131.068  0.00  0.00    +0.000 C 
ATOM     20  N   UNL     1      -9.548   6.552 131.813  0.00  0.00    +0.000 NA
ATOM     21  C   UNL     1      -9.154   5.794 133.005  0.00  0.00    +0.000 C 
ENDBRANCH  18  20
ENDBRANCH  17  18
ENDBRANCH   1  17
TORSDOF 3
ENDMDL
