MODEL 1
REMARK VINA RESULT:      -8.0      0.000      0.000
REMARK  Name = Amitriptylinoxide
REMARK  5 active torsions:
REMARK  status: ('A' for Active; 'I' for Inactive)
REMARK    1  A    between atoms: C_1  and  N_2
REMARK    2  A    between atoms: N_2  and  C_3
REMARK    3  A    between atoms: N_2  and  C_5
REMARK    4  A    between atoms: C_5  and  C_6
REMARK    5  A    between atoms: C_6  and  C_7
REMARK                            x       y       z     vdW  Elec       q    Type
REMARK                         _______ _______ _______ _____ _____    ______ ____
ROOT
ATOM      1  C   UNL     1      -8.391   0.263 126.896  0.00  0.00    +0.000 C 
ATOM      2  C   UNL     1      -7.766  -0.929 127.108  0.00  0.00    +0.000 C 
ATOM      3  C   UNL     1      -7.291  -1.750 125.962  0.00  0.00    +0.000 A 
ATOM      4  C   UNL     1      -6.184  -1.380 125.185  0.00  0.00    +0.000 A 
ATOM      5  C   UNL     1      -5.752  -2.193 124.135  0.00  0.00    +0.000 A 
ATOM      6  C   UNL     1      -6.402  -3.398 123.871  0.00  0.00    +0.000 A 
ATOM      7  C   UNL     1      -7.492  -3.783 124.648  0.00  0.00    +0.000 A 
ATOM      8  C   UNL     1      -7.952  -2.957 125.681  0.00  0.00    +0.000 A 
ATOM      9  C   UNL     1      -9.105  -3.385 126.547  0.00  0.00    +0.000 C 
ATOM     10  C   UNL     1      -8.600  -3.813 127.923  0.00  0.00    +0.000 C 
ATOM     11  C   UNL     1      -8.059  -2.744 128.859  0.00  0.00    +0.000 A 
ATOM     12  C   UNL     1      -7.881  -3.138 130.196  0.00  0.00    +0.000 A 
ATOM     13  C   UNL     1      -7.385  -2.256 131.154  0.00  0.00    +0.000 A 
ATOM     14  C   UNL     1      -7.039  -0.960 130.793  0.00  0.00    +0.000 A 
ATOM     15  C   UNL     1      -7.185  -0.554 129.474  0.00  0.00    +0.000 A 
ATOM     16  C   UNL     1      -7.698  -1.428 128.497  0.00  0.00    +0.000 A 
ENDROOT
BRANCH   1  17
ATOM     17  C   UNL     1      -8.570   0.809 125.526  0.00  0.00    +0.000 C 
BRANCH  17  18
ATOM     18  C   UNL     1      -9.964   0.862 124.912  0.00  0.00    +0.000 C 
BRANCH  18  20
ATOM     19  C   UNL     1      -9.276   1.900 122.771  0.00  0.00    +0.000 C 
ATOM     20  N   UNL     1      -9.887   0.673 123.391  0.00  0.00    +0.000 NA
ATOM     21  C   UNL     1      -9.170  -0.617 123.055  0.00  0.00    +0.000 C 
ATOM     22  O   UNL     1     -11.163   0.572 122.870  0.00  0.00    +0.000 OA
ENDBRANCH  18  20
ENDBRANCH  17  18
ENDBRANCH   1  17
TORSDOF 3
ENDMDL
MODEL 2
REMARK VINA RESULT:      -7.7      4.219      6.488
REMARK  Name = Amitriptylinoxide
REMARK  5 active torsions:
REMARK  status: ('A' for Active; 'I' for Inactive)
REMARK    1  A    between atoms: C_1  and  N_2
REMARK    2  A    between atoms: N_2  and  C_3
REMARK    3  A    between atoms: N_2  and  C_5
REMARK    4  A    between atoms: C_5  and  C_6
REMARK    5  A    between atoms: C_6  and  C_7
REMARK                            x       y       z     vdW  Elec       q    Type
REMARK                         _______ _______ _______ _____ _____    ______ ____
ROOT
ATOM      1  C   UNL     1      -6.420   1.727 125.055  0.00  0.00    +0.000 C 
ATOM      2  C   UNL     1      -6.947   1.287 123.878  0.00  0.00    +0.000 C 
ATOM      3  C   UNL     1      -7.190   2.234 122.756  0.00  0.00    +0.000 A 
ATOM      4  C   UNL     1      -6.145   2.791 122.007  0.00  0.00    +0.000 A 
ATOM      5  C   UNL     1      -6.417   3.653 120.943  0.00  0.00    +0.000 A 
ATOM      6  C   UNL     1      -7.735   3.942 120.597  0.00  0.00    +0.000 A 
ATOM      7  C   UNL     1      -8.783   3.381 121.325  0.00  0.00    +0.000 A 
ATOM      8  C   UNL     1      -8.517   2.541 122.413  0.00  0.00    +0.000 A 
ATOM      9  C   UNL     1      -9.644   1.903 123.180  0.00  0.00    +0.000 C 
ATOM     10  C   UNL     1      -9.743   0.419 122.829  0.00  0.00    +0.000 C 
ATOM     11  C   UNL     1      -8.645  -0.513 123.313  0.00  0.00    +0.000 A 
ATOM     12  C   UNL     1      -8.926  -1.887 123.217  0.00  0.00    +0.000 A 
ATOM     13  C   UNL     1      -8.000  -2.848 123.620  0.00  0.00    +0.000 A 
ATOM     14  C   UNL     1      -6.762  -2.457 124.114  0.00  0.00    +0.000 A 
ATOM     15  C   UNL     1      -6.453  -1.107 124.197  0.00  0.00    +0.000 A 
ATOM     16  C   UNL     1      -7.381  -0.123 123.808  0.00  0.00    +0.000 A 
ENDROOT
BRANCH   1  17
ATOM     17  C   UNL     1      -6.022   3.146 125.241  0.00  0.00    +0.000 C 
BRANCH  17  18
ATOM     18  C   UNL     1      -4.648   3.475 125.813  0.00  0.00    +0.000 C 
BRANCH  18  20
ATOM     19  C   UNL     1      -5.688   3.999 127.999  0.00  0.00    +0.000 C 
ATOM     20  N   UNL     1      -4.768   4.521 126.929  0.00  0.00    +0.000 NA
ATOM     21  C   UNL     1      -3.396   4.920 127.430  0.00  0.00    +0.000 C 
ATOM     22  O   UNL     1      -5.363   5.665 126.432  0.00  0.00    +0.000 OA
ENDBRANCH  18  20
ENDBRANCH  17  18
ENDBRANCH   1  17
TORSDOF 3
ENDMDL
MODEL 3
REMARK VINA RESULT:      -7.7      7.349      9.516
REMARK  Name = Amitriptylinoxide
REMARK  5 active torsions:
REMARK  status: ('A' for Active; 'I' for Inactive)
REMARK    1  A    between atoms: C_1  and  N_2
REMARK    2  A    between atoms: N_2  and  C_3
REMARK    3  A    between atoms: N_2  and  C_5
REMARK    4  A    between atoms: C_5  and  C_6
REMARK    5  A    between atoms: C_6  and  C_7
REMARK                            x       y       z     vdW  Elec       q    Type
REMARK                         _______ _______ _______ _____ _____    ______ ____
ROOT
ATOM      1  C   UNL     1      -8.526   7.043 130.883  0.00  0.00    +0.000 C 
ATOM      2  C   UNL     1      -7.803   6.032 131.442  0.00  0.00    +0.000 C 
ATOM      3  C   UNL     1      -8.440   4.722 131.742  0.00  0.00    +0.000 A 
ATOM      4  C   UNL     1      -8.804   3.818 130.735  0.00  0.00    +0.000 A 
ATOM      5  C   UNL     1      -9.374   2.586 131.061  0.00  0.00    +0.000 A 
ATOM      6  C   UNL     1      -9.554   2.231 132.396  0.00  0.00    +0.000 A 
ATOM      7  C   UNL     1      -9.180   3.114 133.407  0.00  0.00    +0.000 A 
ATOM      8  C   UNL     1      -8.639   4.365 133.087  0.00  0.00    +0.000 A 
ATOM      9  C   UNL     1      -8.199   5.309 134.173  0.00  0.00    +0.000 C 
ATOM     10  C   UNL     1      -6.674   5.340 134.256  0.00  0.00    +0.000 C 
ATOM     11  C   UNL     1      -5.902   5.997 133.123  0.00  0.00    +0.000 A 
ATOM     12  C   UNL     1      -4.545   6.254 133.380  0.00  0.00    +0.000 A 
ATOM     13  C   UNL     1      -3.723   6.846 132.422  0.00  0.00    +0.000 A 
ATOM     14  C   UNL     1      -4.237   7.180 131.176  0.00  0.00    +0.000 A 
ATOM     15  C   UNL     1      -5.568   6.914 130.890  0.00  0.00    +0.000 A 
ATOM     16  C   UNL     1      -6.416   6.331 131.851  0.00  0.00    +0.000 A 
ENDROOT
BRANCH   1  17
ATOM     17  C   UNL     1      -9.952   6.857 130.505  0.00  0.00    +0.000 C 
BRANCH  17  18
ATOM     18  C   UNL     1     -10.551   7.700 129.386  0.00  0.00    +0.000 C 
BRANCH  18  20
ATOM     19  C   UNL     1     -12.605   7.107 130.638  0.00  0.00    +0.000 C 
ATOM     20  N   UNL     1     -12.061   7.450 129.278  0.00  0.00    +0.000 NA
ATOM     21  C   UNL     1     -12.745   8.626 128.613  0.00  0.00    +0.000 C 
ATOM     22  O   UNL     1     -12.294   6.346 128.479  0.00  0.00    +0.000 OA
ENDBRANCH  18  20
ENDBRANCH  17  18
ENDBRANCH   1  17
TORSDOF 3
ENDMDL
MODEL 4
REMARK VINA RESULT:      -7.5      2.201      2.540
REMARK  Name = Amitriptylinoxide
REMARK  5 active torsions:
REMARK  status: ('A' for Active; 'I' for Inactive)
REMARK    1  A    between atoms: C_1  and  N_2
REMARK    2  A    between atoms: N_2  and  C_3
REMARK    3  A    between atoms: N_2  and  C_5
REMARK    4  A    between atoms: C_5  and  C_6
REMARK    5  A    between atoms: C_6  and  C_7
REMARK                            x       y       z     vdW  Elec       q    Type
REMARK                         _______ _______ _______ _____ _____    ______ ____
ROOT
ATOM      1  C   UNL     1      -5.429  -0.579 127.319  0.00  0.00    +0.000 C 
ATOM      2  C   UNL     1      -5.820  -1.882 127.408  0.00  0.00    +0.000 C 
ATOM      3  C   UNL     1      -6.708  -2.478 126.375  0.00  0.00    +0.000 A 
ATOM      4  C   UNL     1      -6.260  -2.768 125.079  0.00  0.00    +0.000 A 
ATOM      5  C   UNL     1      -7.117  -3.354 124.146  0.00  0.00    +0.000 A 
ATOM      6  C   UNL     1      -8.421  -3.687 124.509  0.00  0.00    +0.000 A 
ATOM      7  C   UNL     1      -8.873  -3.419 125.800  0.00  0.00    +0.000 A 
ATOM      8  C   UNL     1      -8.029  -2.801 126.730  0.00  0.00    +0.000 A 
ATOM      9  C   UNL     1      -8.498  -2.542 128.136  0.00  0.00    +0.000 C 
ATOM     10  C   UNL     1      -7.843  -3.532 129.098  0.00  0.00    +0.000 C 
ATOM     11  C   UNL     1      -6.355  -3.391 129.377  0.00  0.00    +0.000 A 
ATOM     12  C   UNL     1      -5.869  -4.127 130.471  0.00  0.00    +0.000 A 
ATOM     13  C   UNL     1      -4.522  -4.093 130.829  0.00  0.00    +0.000 A 
ATOM     14  C   UNL     1      -3.625  -3.333 130.088  0.00  0.00    +0.000 A 
ATOM     15  C   UNL     1      -4.078  -2.616 128.990  0.00  0.00    +0.000 A 
ATOM     16  C   UNL     1      -5.437  -2.628 128.624  0.00  0.00    +0.000 A 
ENDROOT
BRANCH   1  17
ATOM     17  C   UNL     1      -5.828   0.271 126.167  0.00  0.00    +0.000 C 
BRANCH  17  18
ATOM     18  C   UNL     1      -7.049   1.174 126.284  0.00  0.00    +0.000 C 
BRANCH  18  20
ATOM     19  C   UNL     1      -8.641   2.380 124.818  0.00  0.00    +0.000 C 
ATOM     20  N   UNL     1      -7.909   1.080 125.017  0.00  0.00    +0.000 NA
ATOM     21  C   UNL     1      -7.063   0.656 123.834  0.00  0.00    +0.000 C 
ATOM     22  O   UNL     1      -8.880   0.111 125.184  0.00  0.00    +0.000 OA
ENDBRANCH  18  20
ENDBRANCH  17  18
ENDBRANCH   1  17
TORSDOF 3
ENDMDL
MODEL 5
REMARK VINA RESULT:      -7.4      1.499      1.686
REMARK  Name = Amitriptylinoxide
REMARK  5 active torsions:
REMARK  status: ('A' for Active; 'I' for Inactive)
REMARK    1  A    between atoms: C_1  and  N_2
REMARK    2  A    between atoms: N_2  and  C_3
REMARK    3  A    between atoms: N_2  and  C_5
REMARK    4  A    between atoms: C_5  and  C_6
REMARK    5  A    between atoms: C_6  and  C_7
REMARK                            x       y       z     vdW  Elec       q    Type
REMARK                         _______ _______ _______ _____ _____    ______ ____
ROOT
ATOM      1  C   UNL     1      -7.166   0.376 126.896  0.00  0.00    +0.000 C 
ATOM      2  C   UNL     1      -6.955  -0.960 127.061  0.00  0.00    +0.000 C 
ATOM      3  C   UNL     1      -6.635  -1.825 125.895  0.00  0.00    +0.000 A 
ATOM      4  C   UNL     1      -5.395  -1.774 125.242  0.00  0.00    +0.000 A 
ATOM      5  C   UNL     1      -5.124  -2.624 124.168  0.00  0.00    +0.000 A 
ATOM      6  C   UNL     1      -6.076  -3.556 123.757  0.00  0.00    +0.000 A 
ATOM      7  C   UNL     1      -7.305  -3.627 124.409  0.00  0.00    +0.000 A 
ATOM      8  C   UNL     1      -7.596  -2.755 125.465  0.00  0.00    +0.000 A 
ATOM      9  C   UNL     1      -8.907  -2.852 126.197  0.00  0.00    +0.000 C 
ATOM     10  C   UNL     1      -8.696  -3.486 127.571  0.00  0.00    +0.000 C 
ATOM     11  C   UNL     1      -7.957  -2.685 128.630  0.00  0.00    +0.000 A 
ATOM     12  C   UNL     1      -8.043  -3.184 129.941  0.00  0.00    +0.000 A 
ATOM     13  C   UNL     1      -7.404  -2.548 131.004  0.00  0.00    +0.000 A 
ATOM     14  C   UNL     1      -6.649  -1.404 130.778  0.00  0.00    +0.000 A 
ATOM     15  C   UNL     1      -6.531  -0.905 129.489  0.00  0.00    +0.000 A 
ATOM     16  C   UNL     1      -7.181  -1.526 128.406  0.00  0.00    +0.000 A 
ENDROOT
BRANCH   1  17
ATOM     17  C   UNL     1      -7.033   1.022 125.565  0.00  0.00    +0.000 C 
BRANCH  17  18
ATOM     18  C   UNL     1      -8.284   1.400 124.781  0.00  0.00    +0.000 C 
BRANCH  18  20
ATOM     19  C   UNL     1      -6.690   3.226 124.268  0.00  0.00    +0.000 C 
ATOM     20  N   UNL     1      -8.130   2.799 124.169  0.00  0.00    +0.000 NA
ATOM     21  C   UNL     1      -8.691   2.825 122.763  0.00  0.00    +0.000 C 
ATOM     22  O   UNL     1      -8.856   3.713 124.908  0.00  0.00    +0.000 OA
ENDBRANCH  18  20
ENDBRANCH  17  18
ENDBRANCH   1  17
TORSDOF 3
ENDMDL
MODEL 6
REMARK VINA RESULT:      -6.9      3.543      5.264
REMARK  Name = Amitriptylinoxide
REMARK  5 active torsions:
REMARK  status: ('A' for Active; 'I' for Inactive)
REMARK    1  A    between atoms: C_1  and  N_2
REMARK    2  A    between atoms: N_2  and  C_3
REMARK    3  A    between atoms: N_2  and  C_5
REMARK    4  A    between atoms: C_5  and  C_6
REMARK    5  A    between atoms: C_6  and  C_7
REMARK                            x       y       z     vdW  Elec       q    Type
REMARK                         _______ _______ _______ _____ _____    ______ ____
ROOT
ATOM      1  C   UNL     1      -5.267   0.455 125.897  0.00  0.00    +0.000 C 
ATOM      2  C   UNL     1      -6.230   0.031 125.032  0.00  0.00    +0.000 C 
ATOM      3  C   UNL     1      -7.177   1.000 124.417  0.00  0.00    +0.000 A 
ATOM      4  C   UNL     1      -6.779   1.910 123.428  0.00  0.00    +0.000 A 
ATOM      5  C   UNL     1      -7.705   2.784 122.856  0.00  0.00    +0.000 A 
ATOM      6  C   UNL     1      -9.043   2.736 123.243  0.00  0.00    +0.000 A 
ATOM      7  C   UNL     1      -9.453   1.824 124.213  0.00  0.00    +0.000 A 
ATOM      8  C   UNL     1      -8.524   0.967 124.815  0.00  0.00    +0.000 A 
ATOM      9  C   UNL     1      -8.966  -0.045 125.837  0.00  0.00    +0.000 C 
ATOM     10  C   UNL     1      -8.962  -1.445 125.226  0.00  0.00    +0.000 C 
ATOM     11  C   UNL     1      -7.622  -2.088 124.904  0.00  0.00    +0.000 A 
ATOM     12  C   UNL     1      -7.660  -3.464 124.621  0.00  0.00    +0.000 A 
ATOM     13  C   UNL     1      -6.503  -4.172 124.302  0.00  0.00    +0.000 A 
ATOM     14  C   UNL     1      -5.280  -3.516 124.243  0.00  0.00    +0.000 A 
ATOM     15  C   UNL     1      -5.221  -2.154 124.496  0.00  0.00    +0.000 A 
ATOM     16  C   UNL     1      -6.377  -1.426 124.834  0.00  0.00    +0.000 A 
ENDROOT
BRANCH   1  17
ATOM     17  C   UNL     1      -5.092   1.896 126.213  0.00  0.00    +0.000 C 
BRANCH  17  18
ATOM     18  C   UNL     1      -5.895   2.522 127.348  0.00  0.00    +0.000 C 
BRANCH  18  20
ATOM     19  C   UNL     1      -5.331   4.477 125.936  0.00  0.00    +0.000 C 
ATOM     20  N   UNL     1      -6.254   3.975 127.012  0.00  0.00    +0.000 NA
ATOM     21  C   UNL     1      -7.725   4.092 126.674  0.00  0.00    +0.000 C 
ATOM     22  O   UNL     1      -6.031   4.776 128.117  0.00  0.00    +0.000 OA
ENDBRANCH  18  20
ENDBRANCH  17  18
ENDBRANCH   1  17
TORSDOF 3
ENDMDL
MODEL 7
REMARK VINA RESULT:      -6.8      4.492      6.834
REMARK  Name = Amitriptylinoxide
REMARK  5 active torsions:
REMARK  status: ('A' for Active; 'I' for Inactive)
REMARK    1  A    between atoms: C_1  and  N_2
REMARK    2  A    between atoms: N_2  and  C_3
REMARK    3  A    between atoms: N_2  and  C_5
REMARK    4  A    between atoms: C_5  and  C_6
REMARK    5  A    between atoms: C_6  and  C_7
REMARK                            x       y       z     vdW  Elec       q    Type
REMARK                         _______ _______ _______ _____ _____    ______ ____
ROOT
ATOM      1  C   UNL     1      -7.064  -1.938 131.454  0.00  0.00    +0.000 C 
ATOM      2  C   UNL     1      -7.809  -1.419 130.438  0.00  0.00    +0.000 C 
ATOM      3  C   UNL     1      -7.965  -2.161 129.158  0.00  0.00    +0.000 A 
ATOM      4  C   UNL     1      -8.747  -3.320 129.054  0.00  0.00    +0.000 A 
ATOM      5  C   UNL     1      -8.890  -3.971 127.828  0.00  0.00    +0.000 A 
ATOM      6  C   UNL     1      -8.281  -3.453 126.686  0.00  0.00    +0.000 A 
ATOM      7  C   UNL     1      -7.515  -2.293 126.774  0.00  0.00    +0.000 A 
ATOM      8  C   UNL     1      -7.339  -1.653 128.007  0.00  0.00    +0.000 A 
ATOM      9  C   UNL     1      -6.544  -0.379 128.102  0.00  0.00    +0.000 C 
ATOM     10  C   UNL     1      -7.481   0.812 128.296  0.00  0.00    +0.000 C 
ATOM     11  C   UNL     1      -8.205   0.952 129.625  0.00  0.00    +0.000 A 
ATOM     12  C   UNL     1      -8.816   2.197 129.856  0.00  0.00    +0.000 A 
ATOM     13  C   UNL     1      -9.519   2.453 131.032  0.00  0.00    +0.000 A 
ATOM     14  C   UNL     1      -9.641   1.464 132.000  0.00  0.00    +0.000 A 
ATOM     15  C   UNL     1      -9.065   0.220 131.784  0.00  0.00    +0.000 A 
ATOM     16  C   UNL     1      -8.340  -0.051 130.609  0.00  0.00    +0.000 A 
ENDROOT
BRANCH   1  17
ATOM     17  C   UNL     1      -6.431  -3.277 131.343  0.00  0.00    +0.000 C 
BRANCH  17  18
ATOM     18  C   UNL     1      -4.912  -3.390 131.284  0.00  0.00    +0.000 C 
BRANCH  18  20
ATOM     19  C   UNL     1      -4.376  -2.858 133.643  0.00  0.00    +0.000 C 
ATOM     20  N   UNL     1      -4.365  -3.947 132.605  0.00  0.00    +0.000 NA
ATOM     21  C   UNL     1      -5.121  -5.196 133.007  0.00  0.00    +0.000 C 
ATOM     22  O   UNL     1      -3.041  -4.313 132.443  0.00  0.00    +0.000 OA
ENDBRANCH  18  20
ENDBRANCH  17  18
ENDBRANCH   1  17
TORSDOF 3
ENDMDL
MODEL 8
REMARK VINA RESULT:      -6.8      7.976     10.346
REMARK  Name = Amitriptylinoxide
REMARK  5 active torsions:
REMARK  status: ('A' for Active; 'I' for Inactive)
REMARK    1  A    between atoms: C_1  and  N_2
REMARK    2  A    between atoms: N_2  and  C_3
REMARK    3  A    between atoms: N_2  and  C_5
REMARK    4  A    between atoms: C_5  and  C_6
REMARK    5  A    between atoms: C_6  and  C_7
REMARK                            x       y       z     vdW  Elec       q    Type
REMARK                         _______ _______ _______ _____ _____    ______ ____
ROOT
ATOM      1  C   UNL     1      -6.270   5.588 130.464  0.00  0.00    +0.000 C 
ATOM      2  C   UNL     1      -4.908   5.608 130.488  0.00  0.00    +0.000 C 
ATOM      3  C   UNL     1      -4.180   6.497 131.432  0.00  0.00    +0.000 A 
ATOM      4  C   UNL     1      -4.137   6.249 132.811  0.00  0.00    +0.000 A 
ATOM      5  C   UNL     1      -3.419   7.093 133.661  0.00  0.00    +0.000 A 
ATOM      6  C   UNL     1      -2.710   8.173 133.138  0.00  0.00    +0.000 A 
ATOM      7  C   UNL     1      -2.732   8.420 131.767  0.00  0.00    +0.000 A 
ATOM      8  C   UNL     1      -3.478   7.598 130.913  0.00  0.00    +0.000 A 
ATOM      9  C   UNL     1      -3.476   7.836 129.427  0.00  0.00    +0.000 C 
ATOM     10  C   UNL     1      -2.627   6.777 128.726  0.00  0.00    +0.000 C 
ATOM     11  C   UNL     1      -3.147   5.349 128.678  0.00  0.00    +0.000 A 
ATOM     12  C   UNL     1      -2.483   4.489 127.786  0.00  0.00    +0.000 A 
ATOM     13  C   UNL     1      -2.856   3.153 127.653  0.00  0.00    +0.000 A 
ATOM     14  C   UNL     1      -3.894   2.640 128.421  0.00  0.00    +0.000 A 
ATOM     15  C   UNL     1      -4.549   3.464 129.324  0.00  0.00    +0.000 A 
ATOM     16  C   UNL     1      -4.195   4.820 129.462  0.00  0.00    +0.000 A 
ENDROOT
BRANCH   1  17
ATOM     17  C   UNL     1      -7.072   6.405 131.411  0.00  0.00    +0.000 C 
BRANCH  17  18
ATOM     18  C   UNL     1      -8.138   5.735 132.269  0.00  0.00    +0.000 C 
BRANCH  18  20
ATOM     19  C   UNL     1      -9.445   7.028 130.609  0.00  0.00    +0.000 C 
ATOM     20  N   UNL     1      -9.531   5.961 131.667  0.00  0.00    +0.000 NA
ATOM     21  C   UNL     1     -10.117   4.652 131.183  0.00  0.00    +0.000 C 
ATOM     22  O   UNL     1     -10.385   6.449 132.639  0.00  0.00    +0.000 OA
ENDBRANCH  18  20
ENDBRANCH  17  18
ENDBRANCH   1  17
TORSDOF 3
ENDMDL
MODEL 9
REMARK VINA RESULT:      -6.8      3.193      5.720
REMARK  Name = Amitriptylinoxide
REMARK  5 active torsions:
REMARK  status: ('A' for Active; 'I' for Inactive)
REMARK    1  A    between atoms: C_1  and  N_2
REMARK    2  A    between atoms: N_2  and  C_3
REMARK    3  A    between atoms: N_2  and  C_5
REMARK    4  A    between atoms: C_5  and  C_6
REMARK    5  A    between atoms: C_6  and  C_7
REMARK                            x       y       z     vdW  Elec       q    Type
REMARK                         _______ _______ _______ _____ _____    ______ ____
ROOT
ATOM      1  C   UNL     1      -8.705   0.508 126.835  0.00  0.00    +0.000 C 
ATOM      2  C   UNL     1      -8.306   0.317 125.546  0.00  0.00    +0.000 C 
ATOM      3  C   UNL     1      -7.778   1.451 124.741  0.00  0.00    +0.000 A 
ATOM      4  C   UNL     1      -6.517   2.015 124.979  0.00  0.00    +0.000 A 
ATOM      5  C   UNL     1      -6.046   3.059 124.182  0.00  0.00    +0.000 A 
ATOM      6  C   UNL     1      -6.814   3.529 123.119  0.00  0.00    +0.000 A 
ATOM      7  C   UNL     1      -8.062   2.965 122.862  0.00  0.00    +0.000 A 
ATOM      8  C   UNL     1      -8.556   1.939 123.677  0.00  0.00    +0.000 A 
ATOM      9  C   UNL     1      -9.885   1.300 123.383  0.00  0.00    +0.000 C 
ATOM     10  C   UNL     1      -9.680  -0.091 122.785  0.00  0.00    +0.000 C 
ATOM     11  C   UNL     1      -9.146  -1.193 123.686  0.00  0.00    +0.000 A 
ATOM     12  C   UNL     1      -9.249  -2.498 123.176  0.00  0.00    +0.000 A 
ATOM     13  C   UNL     1      -8.790  -3.598 123.899  0.00  0.00    +0.000 A 
ATOM     14  C   UNL     1      -8.202  -3.416 125.144  0.00  0.00    +0.000 A 
ATOM     15  C   UNL     1      -8.069  -2.135 125.658  0.00  0.00    +0.000 A 
ATOM     16  C   UNL     1      -8.540  -1.014 124.948  0.00  0.00    +0.000 A 
ENDROOT
BRANCH   1  17
ATOM     17  C   UNL     1      -8.575   1.832 127.496  0.00  0.00    +0.000 C 
BRANCH  17  18
ATOM     18  C   UNL     1      -8.411   1.906 129.009  0.00  0.00    +0.000 C 
BRANCH  18  20
ATOM     19  C   UNL     1      -7.972   3.402 130.934  0.00  0.00    +0.000 C 
ATOM     20  N   UNL     1      -8.291   3.367 129.464  0.00  0.00    +0.000 NA
ATOM     21  C   UNL     1      -7.301   4.112 128.595  0.00  0.00    +0.000 C 
ATOM     22  O   UNL     1      -9.511   4.001 129.319  0.00  0.00    +0.000 OA
ENDBRANCH  18  20
ENDBRANCH  17  18
ENDBRANCH   1  17
TORSDOF 3
ENDMDL
