MODEL 1
REMARK VINA RESULT:      -7.7      0.000      0.000
REMARK  Name = Amlexanox
REMARK  6 active torsions:
REMARK  status: ('A' for Active; 'I' for Inactive)
REMARK    1  A    between atoms: C_1  and  C_2
REMARK    2  A    between atoms: C_2  and  C_3
REMARK    3  A    between atoms: C_2  and  C_4
REMARK    4  A    between atoms: C_11  and  N_12
REMARK    5  A    between atoms: C_13  and  C_18
REMARK    6  A    between atoms: C_18  and  O_19
REMARK                            x       y       z     vdW  Elec       q    Type
REMARK                         _______ _______ _______ _____ _____    ______ ____
ROOT
ATOM      1  C   UNL     1      -5.881   5.072 134.133  0.00  0.00    +0.000 A 
ATOM      2  C   UNL     1      -6.180   5.783 132.975  0.00  0.00    +0.000 A 
ATOM      3  C   UNL     1      -7.502   5.900 132.561  0.00  0.00    +0.000 A 
ATOM      4  C   UNL     1      -8.555   5.305 133.250  0.00  0.00    +0.000 A 
ATOM      5  O   UNL     1      -9.875   5.424 132.871  0.00  0.00    +0.000 OA
ATOM      6  C   UNL     1     -10.163   6.176 131.745  0.00  0.00    +0.000 A 
ATOM      7  N   UNL     1     -11.469   6.259 131.403  0.00  0.00    +0.000 NA
ATOM      8  C   UNL     1     -11.801   6.986 130.298  0.00  0.00    +0.000 A 
ATOM      9  C   UNL     1     -10.846   7.653 129.502  0.00  0.00    +0.000 A 
ATOM     10  C   UNL     1      -9.515   7.552 129.877  0.00  0.00    +0.000 A 
ATOM     11  C   UNL     1      -9.185   6.808 131.002  0.00  0.00    +0.000 A 
ATOM     12  C   UNL     1      -7.793   6.699 131.386  0.00  0.00    +0.000 A 
ATOM     13  O   UNL     1      -6.914   7.263 130.741  0.00  0.00    +0.000 OA
ATOM     14  C   UNL     1      -8.262   4.557 134.385  0.00  0.00    +0.000 A 
ATOM     15  C   UNL     1      -6.934   4.441 134.818  0.00  0.00    +0.000 A 
ENDROOT
BRANCH   1  17
ATOM     16  C   UNL     1      -3.664   3.963 133.939  0.00  0.00    +0.000 C 
ATOM     17  C   UNL     1      -4.446   5.092 134.623  0.00  0.00    +0.000 C 
ATOM     18  C   UNL     1      -3.755   6.429 134.373  0.00  0.00    +0.000 C 
ENDBRANCH   1  17
BRANCH   8  19
ATOM     19  N   UNL     1     -13.144   7.034 129.999  0.00  0.00    +0.000 N 
ATOM     20  H   UNL     1     -13.469   7.511 129.174  0.00  0.00    +0.000 HD
ATOM     21  H   UNL     1     -13.803   6.580 130.633  0.00  0.00    +0.000 HD
ENDBRANCH   8  19
BRANCH   9  22
ATOM     22  C   UNL     1     -11.269   8.432 128.300  0.00  0.00    +0.000 C 
ATOM     23  O   UNL     1     -10.788   8.237 127.193  0.00  0.00    +0.000 OA
BRANCH  22  24
ATOM     24  O   UNL     1     -12.216   9.377 128.476  0.00  0.00    +0.000 OA
ATOM     25  H   UNL     1     -12.072  10.287 128.169  0.00  0.00    +0.000 HD
ENDBRANCH  22  24
ENDBRANCH   9  22
TORSDOF 4
ENDMDL
MODEL 2
REMARK VINA RESULT:      -7.4      9.001      9.297
REMARK  Name = Amlexanox
REMARK  6 active torsions:
REMARK  status: ('A' for Active; 'I' for Inactive)
REMARK    1  A    between atoms: C_1  and  C_2
REMARK    2  A    between atoms: C_2  and  C_3
REMARK    3  A    between atoms: C_2  and  C_4
REMARK    4  A    between atoms: C_11  and  N_12
REMARK    5  A    between atoms: C_13  and  C_18
REMARK    6  A    between atoms: C_18  and  O_19
REMARK                            x       y       z     vdW  Elec       q    Type
REMARK                         _______ _______ _______ _____ _____    ______ ____
ROOT
ATOM      1  C   UNL     1      -7.578  -3.245 129.137  0.00  0.00    +0.000 A 
ATOM      2  C   UNL     1      -7.241  -2.013 128.586  0.00  0.00    +0.000 A 
ATOM      3  C   UNL     1      -7.840  -1.601 127.401  0.00  0.00    +0.000 A 
ATOM      4  C   UNL     1      -8.758  -2.392 126.715  0.00  0.00    +0.000 A 
ATOM      5  O   UNL     1      -9.380  -1.997 125.551  0.00  0.00    +0.000 OA
ATOM      6  C   UNL     1      -9.073  -0.747 125.040  0.00  0.00    +0.000 A 
ATOM      7  N   UNL     1      -9.699  -0.403 123.891  0.00  0.00    +0.000 NA
ATOM      8  C   UNL     1      -9.424   0.818 123.348  0.00  0.00    +0.000 A 
ATOM      9  C   UNL     1      -8.522   1.732 123.931  0.00  0.00    +0.000 A 
ATOM     10  C   UNL     1      -7.896   1.354 125.109  0.00  0.00    +0.000 A 
ATOM     11  C   UNL     1      -8.180   0.108 125.654  0.00  0.00    +0.000 A 
ATOM     12  C   UNL     1      -7.518  -0.285 126.882  0.00  0.00    +0.000 A 
ATOM     13  O   UNL     1      -6.730   0.468 127.444  0.00  0.00    +0.000 OA
ATOM     14  C   UNL     1      -9.069  -3.643 127.236  0.00  0.00    +0.000 A 
ATOM     15  C   UNL     1      -8.479  -4.064 128.436  0.00  0.00    +0.000 A 
ENDROOT
BRANCH   1  17
ATOM     16  C   UNL     1      -5.598  -4.167 130.326  0.00  0.00    +0.000 C 
ATOM     17  C   UNL     1      -7.009  -3.588 130.500  0.00  0.00    +0.000 C 
ATOM     18  C   UNL     1      -6.967  -2.389 131.442  0.00  0.00    +0.000 C 
ENDBRANCH   1  17
BRANCH   8  19
ATOM     19  N   UNL     1     -10.090   1.111 122.179  0.00  0.00    +0.000 N 
ATOM     20  H   UNL     1      -9.581   1.394 121.358  0.00  0.00    +0.000 HD
ATOM     21  H   UNL     1     -11.108   1.041 122.165  0.00  0.00    +0.000 HD
ENDBRANCH   8  19
BRANCH   9  22
ATOM     22  C   UNL     1      -8.259   3.054 123.289  0.00  0.00    +0.000 C 
ATOM     23  O   UNL     1      -8.098   3.173 122.083  0.00  0.00    +0.000 OA
BRANCH  22  24
ATOM     24  O   UNL     1      -8.202   4.135 124.095  0.00  0.00    +0.000 OA
ATOM     25  H   UNL     1      -7.562   4.846 123.927  0.00  0.00    +0.000 HD
ENDBRANCH  22  24
ENDBRANCH   9  22
TORSDOF 4
ENDMDL
MODEL 3
REMARK VINA RESULT:      -7.4      2.492      6.995
REMARK  Name = Amlexanox
REMARK  6 active torsions:
REMARK  status: ('A' for Active; 'I' for Inactive)
REMARK    1  A    between atoms: C_1  and  C_2
REMARK    2  A    between atoms: C_2  and  C_3
REMARK    3  A    between atoms: C_2  and  C_4
REMARK    4  A    between atoms: C_11  and  N_12
REMARK    5  A    between atoms: C_13  and  C_18
REMARK    6  A    between atoms: C_18  and  O_19
REMARK                            x       y       z     vdW  Elec       q    Type
REMARK                         _______ _______ _______ _____ _____    ______ ____
ROOT
ATOM      1  C   UNL     1     -11.400   7.559 129.629  0.00  0.00    +0.000 A 
ATOM      2  C   UNL     1     -10.026   7.565 129.848  0.00  0.00    +0.000 A 
ATOM      3  C   UNL     1      -9.500   6.893 130.945  0.00  0.00    +0.000 A 
ATOM      4  C   UNL     1     -10.303   6.226 131.866  0.00  0.00    +0.000 A 
ATOM      5  O   UNL     1      -9.803   5.536 132.950  0.00  0.00    +0.000 OA
ATOM      6  C   UNL     1      -8.430   5.509 133.127  0.00  0.00    +0.000 A 
ATOM      7  N   UNL     1      -7.983   4.829 134.208  0.00  0.00    +0.000 NA
ATOM      8  C   UNL     1      -6.638   4.778 134.427  0.00  0.00    +0.000 A 
ATOM      9  C   UNL     1      -5.698   5.400 133.578  0.00  0.00    +0.000 A 
ATOM     10  C   UNL     1      -6.185   6.088 132.477  0.00  0.00    +0.000 A 
ATOM     11  C   UNL     1      -7.556   6.137 132.263  0.00  0.00    +0.000 A 
ATOM     12  C   UNL     1      -8.060   6.863 131.115  0.00  0.00    +0.000 A 
ATOM     13  O   UNL     1      -7.295   7.417 130.332  0.00  0.00    +0.000 OA
ATOM     14  C   UNL     1     -11.680   6.250 131.679  0.00  0.00    +0.000 A 
ATOM     15  C   UNL     1     -12.221   6.915 130.570  0.00  0.00    +0.000 A 
ENDROOT
BRANCH   1  17
ATOM     16  C   UNL     1     -10.843   8.040 127.254  0.00  0.00    +0.000 C 
ATOM     17  C   UNL     1     -11.913   8.181 128.345  0.00  0.00    +0.000 C 
ATOM     18  C   UNL     1     -13.224   7.560 127.871  0.00  0.00    +0.000 C 
ENDBRANCH   1  17
BRANCH   8  19
ATOM     19  N   UNL     1      -6.243   4.074 135.542  0.00  0.00    +0.000 N 
ATOM     20  H   UNL     1      -6.306   3.069 135.562  0.00  0.00    +0.000 HD
ATOM     21  H   UNL     1      -5.892   4.591 136.348  0.00  0.00    +0.000 HD
ENDBRANCH   8  19
BRANCH   9  22
ATOM     22  C   UNL     1      -4.236   5.312 133.869  0.00  0.00    +0.000 C 
ATOM     23  O   UNL     1      -3.647   4.243 133.939  0.00  0.00    +0.000 OA
BRANCH  22  24
ATOM     24  O   UNL     1      -3.572   6.472 134.057  0.00  0.00    +0.000 OA
ATOM     25  H   UNL     1      -2.718   6.631 133.622  0.00  0.00    +0.000 HD
ENDBRANCH  22  24
ENDBRANCH   9  22
TORSDOF 4
ENDMDL
MODEL 4
REMARK VINA RESULT:      -7.4      1.722      2.791
REMARK  Name = Amlexanox
REMARK  6 active torsions:
REMARK  status: ('A' for Active; 'I' for Inactive)
REMARK    1  A    between atoms: C_1  and  C_2
REMARK    2  A    between atoms: C_2  and  C_3
REMARK    3  A    between atoms: C_2  and  C_4
REMARK    4  A    between atoms: C_11  and  N_12
REMARK    5  A    between atoms: C_13  and  C_18
REMARK    6  A    between atoms: C_18  and  O_19
REMARK                            x       y       z     vdW  Elec       q    Type
REMARK                         _______ _______ _______ _____ _____    ______ ____
ROOT
ATOM      1  C   UNL     1      -4.913   5.337 133.381  0.00  0.00    +0.000 A 
ATOM      2  C   UNL     1      -6.302   5.290 133.433  0.00  0.00    +0.000 A 
ATOM      3  C   UNL     1      -7.050   5.944 132.461  0.00  0.00    +0.000 A 
ATOM      4  C   UNL     1      -6.461   6.680 131.436  0.00  0.00    +0.000 A 
ATOM      5  O   UNL     1      -7.181   7.319 130.450  0.00  0.00    +0.000 OA
ATOM      6  C   UNL     1      -8.562   7.222 130.485  0.00  0.00    +0.000 A 
ATOM      7  N   UNL     1      -9.229   7.873 129.504  0.00  0.00    +0.000 NA
ATOM      8  C   UNL     1     -10.592   7.809 129.500  0.00  0.00    +0.000 A 
ATOM      9  C   UNL     1     -11.330   7.097 130.469  0.00  0.00    +0.000 A 
ATOM     10  C   UNL     1     -10.620   6.439 131.461  0.00  0.00    +0.000 A 
ATOM     11  C   UNL     1      -9.233   6.510 131.459  0.00  0.00    +0.000 A 
ATOM     12  C   UNL     1      -8.495   5.826 132.502  0.00  0.00    +0.000 A 
ATOM     13  O   UNL     1      -9.077   5.182 133.369  0.00  0.00    +0.000 OA
ATOM     14  C   UNL     1      -5.074   6.768 131.401  0.00  0.00    +0.000 A 
ATOM     15  C   UNL     1      -4.310   6.103 132.369  0.00  0.00    +0.000 A 
ENDROOT
BRANCH   1  17
ATOM     16  C   UNL     1      -5.112   3.550 135.098  0.00  0.00    +0.000 C 
ATOM     17  C   UNL     1      -4.140   4.492 134.376  0.00  0.00    +0.000 C 
ATOM     18  C   UNL     1      -3.022   3.686 133.723  0.00  0.00    +0.000 C 
ENDBRANCH   1  17
BRANCH   8  19
ATOM     19  N   UNL     1     -11.215   8.491 128.480  0.00  0.00    +0.000 N 
ATOM     20  H   UNL     1     -11.801   8.004 127.822  0.00  0.00    +0.000 HD
ATOM     21  H   UNL     1     -11.066   9.497 128.402  0.00  0.00    +0.000 HD
ENDBRANCH   8  19
BRANCH   9  22
ATOM     22  C   UNL     1     -12.822   7.066 130.415  0.00  0.00    +0.000 C 
ATOM     23  O   UNL     1     -13.434   6.894 129.371  0.00  0.00    +0.000 OA
BRANCH  22  24
ATOM     24  O   UNL     1     -13.487   7.236 131.577  0.00  0.00    +0.000 OA
ATOM     25  H   UNL     1     -13.363   6.617 132.316  0.00  0.00    +0.000 HD
ENDBRANCH  22  24
ENDBRANCH   9  22
TORSDOF 4
ENDMDL
MODEL 5
REMARK VINA RESULT:      -7.3      1.504      2.214
REMARK  Name = Amlexanox
REMARK  6 active torsions:
REMARK  status: ('A' for Active; 'I' for Inactive)
REMARK    1  A    between atoms: C_1  and  C_2
REMARK    2  A    between atoms: C_2  and  C_3
REMARK    3  A    between atoms: C_2  and  C_4
REMARK    4  A    between atoms: C_11  and  N_12
REMARK    5  A    between atoms: C_13  and  C_18
REMARK    6  A    between atoms: C_18  and  O_19
REMARK                            x       y       z     vdW  Elec       q    Type
REMARK                         _______ _______ _______ _____ _____    ______ ____
ROOT
ATOM      1  C   UNL     1      -3.540   5.953 133.261  0.00  0.00    +0.000 A 
ATOM      2  C   UNL     1      -4.337   6.415 132.218  0.00  0.00    +0.000 A 
ATOM      3  C   UNL     1      -5.719   6.291 132.300  0.00  0.00    +0.000 A 
ATOM      4  C   UNL     1      -6.351   5.690 133.385  0.00  0.00    +0.000 A 
ATOM      5  O   UNL     1      -7.719   5.574 133.499  0.00  0.00    +0.000 OA
ATOM      6  C   UNL     1      -8.502   6.084 132.477  0.00  0.00    +0.000 A 
ATOM      7  N   UNL     1      -9.840   5.940 132.624  0.00  0.00    +0.000 NA
ATOM      8  C   UNL     1     -10.652   6.423 131.640  0.00  0.00    +0.000 A 
ATOM      9  C   UNL     1     -10.159   7.063 130.484  0.00  0.00    +0.000 A 
ATOM     10  C   UNL     1      -8.785   7.198 130.360  0.00  0.00    +0.000 A 
ATOM     11  C   UNL     1      -7.965   6.702 131.365  0.00  0.00    +0.000 A 
ATOM     12  C   UNL     1      -6.529   6.838 131.229  0.00  0.00    +0.000 A 
ATOM     13  O   UNL     1      -6.037   7.393 130.251  0.00  0.00    +0.000 OA
ATOM     14  C   UNL     1      -5.560   5.187 134.413  0.00  0.00    +0.000 A 
ATOM     15  C   UNL     1      -4.166   5.316 134.346  0.00  0.00    +0.000 A 
ENDROOT
BRANCH   1  17
ATOM     16  C   UNL     1      -1.333   5.024 132.592  0.00  0.00    +0.000 C 
ATOM     17  C   UNL     1      -2.052   6.239 133.192  0.00  0.00    +0.000 C 
ATOM     18  C   UNL     1      -1.727   7.490 132.382  0.00  0.00    +0.000 C 
ENDBRANCH   1  17
BRANCH   8  19
ATOM     19  N   UNL     1     -12.002   6.247 131.844  0.00  0.00    +0.000 N 
ATOM     20  H   UNL     1     -12.588   7.026 132.095  0.00  0.00    +0.000 HD
ATOM     21  H   UNL     1     -12.394   5.311 131.741  0.00  0.00    +0.000 HD
ENDBRANCH   8  19
BRANCH   9  22
ATOM     22  C   UNL     1     -11.097   7.569 129.437  0.00  0.00    +0.000 C 
ATOM     23  O   UNL     1     -11.993   8.362 129.692  0.00  0.00    +0.000 OA
BRANCH  22  24
ATOM     24  O   UNL     1     -10.924   7.116 128.178  0.00  0.00    +0.000 OA
ATOM     25  H   UNL     1     -11.121   6.192 127.952  0.00  0.00    +0.000 HD
ENDBRANCH  22  24
ENDBRANCH   9  22
TORSDOF 4
ENDMDL
MODEL 6
REMARK VINA RESULT:      -7.2      3.268      7.210
REMARK  Name = Amlexanox
REMARK  6 active torsions:
REMARK  status: ('A' for Active; 'I' for Inactive)
REMARK    1  A    between atoms: C_1  and  C_2
REMARK    2  A    between atoms: C_2  and  C_3
REMARK    3  A    between atoms: C_2  and  C_4
REMARK    4  A    between atoms: C_11  and  N_12
REMARK    5  A    between atoms: C_13  and  C_18
REMARK    6  A    between atoms: C_18  and  O_19
REMARK                            x       y       z     vdW  Elec       q    Type
REMARK                         _______ _______ _______ _____ _____    ______ ____
ROOT
ATOM      1  C   UNL     1     -10.203   6.992 130.614  0.00  0.00    +0.000 A 
ATOM      2  C   UNL     1      -8.828   7.177 130.501  0.00  0.00    +0.000 A 
ATOM      3  C   UNL     1      -7.980   6.635 131.460  0.00  0.00    +0.000 A 
ATOM      4  C   UNL     1      -8.453   5.927 132.561  0.00  0.00    +0.000 A 
ATOM      5  O   UNL     1      -7.630   5.363 133.513  0.00  0.00    +0.000 OA
ATOM      6  C   UNL     1      -6.262   5.513 133.361  0.00  0.00    +0.000 A 
ATOM      7  N   UNL     1      -5.492   4.953 134.322  0.00  0.00    +0.000 NA
ATOM      8  C   UNL     1      -4.138   5.078 134.217  0.00  0.00    +0.000 A 
ATOM      9  C   UNL     1      -3.510   5.761 133.155  0.00  0.00    +0.000 A 
ATOM     10  C   UNL     1      -4.324   6.323 132.183  0.00  0.00    +0.000 A 
ATOM     11  C   UNL     1      -5.701   6.193 132.298  0.00  0.00    +0.000 A 
ATOM     12  C   UNL     1      -6.548   6.789 131.284  0.00  0.00    +0.000 A 
ATOM     13  O   UNL     1      -6.064   7.388 130.329  0.00  0.00    +0.000 OA
ATOM     14  C   UNL     1      -9.827   5.773 132.705  0.00  0.00    +0.000 A 
ATOM     15  C   UNL     1     -10.692   6.306 131.739  0.00  0.00    +0.000 A 
ENDROOT
BRANCH   1  17
ATOM     16  C   UNL     1     -12.304   8.194 130.048  0.00  0.00    +0.000 C 
ATOM     17  C   UNL     1     -11.076   7.475 129.473  0.00  0.00    +0.000 C 
ATOM     18  C   UNL     1     -10.335   8.399 128.512  0.00  0.00    +0.000 C 
ENDBRANCH   1  17
BRANCH   8  19
ATOM     19  N   UNL     1      -3.407   4.489 135.224  0.00  0.00    +0.000 N 
ATOM     20  H   UNL     1      -3.408   3.489 135.340  0.00  0.00    +0.000 HD
ATOM     21  H   UNL     1      -2.871   5.087 135.853  0.00  0.00    +0.000 HD
ENDBRANCH   8  19
BRANCH   9  22
ATOM     22  C   UNL     1      -2.022   5.868 133.094  0.00  0.00    +0.000 C 
ATOM     23  O   UNL     1      -1.397   5.706 132.056  0.00  0.00    +0.000 OA
BRANCH  22  24
ATOM     24  O   UNL     1      -1.374   6.154 134.243  0.00  0.00    +0.000 OA
ATOM     25  H   UNL     1      -1.548   5.644 135.051  0.00  0.00    +0.000 HD
ENDBRANCH  22  24
ENDBRANCH   9  22
TORSDOF 4
ENDMDL
MODEL 7
REMARK VINA RESULT:      -7.0     10.073     12.038
REMARK  Name = Amlexanox
REMARK  6 active torsions:
REMARK  status: ('A' for Active; 'I' for Inactive)
REMARK    1  A    between atoms: C_1  and  C_2
REMARK    2  A    between atoms: C_2  and  C_3
REMARK    3  A    between atoms: C_2  and  C_4
REMARK    4  A    between atoms: C_11  and  N_12
REMARK    5  A    between atoms: C_13  and  C_18
REMARK    6  A    between atoms: C_18  and  O_19
REMARK                            x       y       z     vdW  Elec       q    Type
REMARK                         _______ _______ _______ _____ _____    ______ ____
ROOT
ATOM      1  C   UNL     1      -7.621  -2.417 124.333  0.00  0.00    +0.000 A 
ATOM      2  C   UNL     1      -8.093  -2.837 125.573  0.00  0.00    +0.000 A 
ATOM      3  C   UNL     1      -7.312  -2.645 126.707  0.00  0.00    +0.000 A 
ATOM      4  C   UNL     1      -6.046  -2.068 126.654  0.00  0.00    +0.000 A 
ATOM      5  O   UNL     1      -5.263  -1.849 127.766  0.00  0.00    +0.000 OA
ATOM      6  C   UNL     1      -5.767  -2.226 129.000  0.00  0.00    +0.000 A 
ATOM      7  N   UNL     1      -4.962  -2.003 130.065  0.00  0.00    +0.000 NA
ATOM      8  C   UNL     1      -5.413  -2.361 131.301  0.00  0.00    +0.000 A 
ATOM      9  C   UNL     1      -6.677  -2.951 131.515  0.00  0.00    +0.000 A 
ATOM     10  C   UNL     1      -7.481  -3.167 130.407  0.00  0.00    +0.000 A 
ATOM     11  C   UNL     1      -7.013  -2.800 129.152  0.00  0.00    +0.000 A 
ATOM     12  C   UNL     1      -7.854  -3.034 127.995  0.00  0.00    +0.000 A 
ATOM     13  O   UNL     1      -8.968  -3.535 128.115  0.00  0.00    +0.000 OA
ATOM     14  C   UNL     1      -5.549  -1.685 125.413  0.00  0.00    +0.000 A 
ATOM     15  C   UNL     1      -6.331  -1.862 124.264  0.00  0.00    +0.000 A 
ENDROOT
BRANCH   1  17
ATOM     16  C   UNL     1      -9.676  -3.521 123.473  0.00  0.00    +0.000 C 
ATOM     17  C   UNL     1      -8.563  -2.515 123.149  0.00  0.00    +0.000 C 
ATOM     18  C   UNL     1      -9.172  -1.170 122.766  0.00  0.00    +0.000 C 
ENDBRANCH   1  17
BRANCH   8  19
ATOM     19  N   UNL     1      -4.551  -2.111 132.344  0.00  0.00    +0.000 N 
ATOM     20  H   UNL     1      -4.776  -2.410 133.278  0.00  0.00    +0.000 HD
ATOM     21  H   UNL     1      -3.682  -1.611 132.151  0.00  0.00    +0.000 HD
ENDBRANCH   8  19
BRANCH   9  22
ATOM     22  C   UNL     1      -7.116  -3.326 132.892  0.00  0.00    +0.000 C 
ATOM     23  O   UNL     1      -8.055  -2.775 133.450  0.00  0.00    +0.000 OA
BRANCH  22  24
ATOM     24  O   UNL     1      -6.433  -4.309 133.515  0.00  0.00    +0.000 OA
ATOM     25  H   UNL     1      -6.435  -4.378 134.484  0.00  0.00    +0.000 HD
ENDBRANCH  22  24
ENDBRANCH   9  22
TORSDOF 4
ENDMDL
MODEL 8
REMARK VINA RESULT:      -6.9     10.054     10.614
REMARK  Name = Amlexanox
REMARK  6 active torsions:
REMARK  status: ('A' for Active; 'I' for Inactive)
REMARK    1  A    between atoms: C_1  and  C_2
REMARK    2  A    between atoms: C_2  and  C_3
REMARK    3  A    between atoms: C_2  and  C_4
REMARK    4  A    between atoms: C_11  and  N_12
REMARK    5  A    between atoms: C_13  and  C_18
REMARK    6  A    between atoms: C_18  and  O_19
REMARK                            x       y       z     vdW  Elec       q    Type
REMARK                         _______ _______ _______ _____ _____    ______ ____
ROOT
ATOM      1  C   UNL     1      -6.095  -3.375 131.469  0.00  0.00    +0.000 A 
ATOM      2  C   UNL     1      -7.118  -3.447 130.529  0.00  0.00    +0.000 A 
ATOM      3  C   UNL     1      -6.880  -3.041 129.221  0.00  0.00    +0.000 A 
ATOM      4  C   UNL     1      -5.652  -2.531 128.809  0.00  0.00    +0.000 A 
ATOM      5  O   UNL     1      -5.386  -2.141 127.514  0.00  0.00    +0.000 OA
ATOM      6  C   UNL     1      -6.398  -2.265 126.577  0.00  0.00    +0.000 A 
ATOM      7  N   UNL     1      -6.097  -1.862 125.321  0.00  0.00    +0.000 NA
ATOM      8  C   UNL     1      -7.064  -1.961 124.364  0.00  0.00    +0.000 A 
ATOM      9  C   UNL     1      -8.355  -2.464 124.627  0.00  0.00    +0.000 A 
ATOM     10  C   UNL     1      -8.635  -2.871 125.922  0.00  0.00    +0.000 A 
ATOM     11  C   UNL     1      -7.646  -2.765 126.891  0.00  0.00    +0.000 A 
ATOM     12  C   UNL     1      -7.944  -3.185 128.245  0.00  0.00    +0.000 A 
ATOM     13  O   UNL     1      -9.045  -3.640 128.537  0.00  0.00    +0.000 OA
ATOM     14  C   UNL     1      -4.637  -2.416 129.753  0.00  0.00    +0.000 A 
ATOM     15  C   UNL     1      -4.862  -2.832 131.072  0.00  0.00    +0.000 A 
ENDROOT
BRANCH   1  17
ATOM     16  C   UNL     1      -5.091  -3.826 133.698  0.00  0.00    +0.000 C 
ATOM     17  C   UNL     1      -6.357  -3.962 132.843  0.00  0.00    +0.000 C 
ATOM     18  C   UNL     1      -7.537  -3.304 133.551  0.00  0.00    +0.000 C 
ENDBRANCH   1  17
BRANCH   8  19
ATOM     19  N   UNL     1      -6.701  -1.536 123.106  0.00  0.00    +0.000 N 
ATOM     20  H   UNL     1      -7.398  -1.381 122.397  0.00  0.00    +0.000 HD
ATOM     21  H   UNL     1      -5.711  -1.386 122.907  0.00  0.00    +0.000 HD
ENDBRANCH   8  19
BRANCH   9  22
ATOM     22  C   UNL     1      -9.375  -2.546 123.538  0.00  0.00    +0.000 C 
ATOM     23  O   UNL     1      -9.902  -3.601 123.215  0.00  0.00    +0.000 OA
BRANCH  22  24
ATOM     24  O   UNL     1      -9.704  -1.398 122.909  0.00  0.00    +0.000 OA
ATOM     25  H   UNL     1      -9.360  -0.545 123.222  0.00  0.00    +0.000 HD
ENDBRANCH  22  24
ENDBRANCH   9  22
TORSDOF 4
ENDMDL
MODEL 9
REMARK VINA RESULT:      -6.7      6.085      6.932
REMARK  Name = Amlexanox
REMARK  6 active torsions:
REMARK  status: ('A' for Active; 'I' for Inactive)
REMARK    1  A    between atoms: C_1  and  C_2
REMARK    2  A    between atoms: C_2  and  C_3
REMARK    3  A    between atoms: C_2  and  C_4
REMARK    4  A    between atoms: C_11  and  N_12
REMARK    5  A    between atoms: C_13  and  C_18
REMARK    6  A    between atoms: C_18  and  O_19
REMARK                            x       y       z     vdW  Elec       q    Type
REMARK                         _______ _______ _______ _____ _____    ______ ____
ROOT
ATOM      1  C   UNL     1      -7.391  -1.432 128.031  0.00  0.00    +0.000 A 
ATOM      2  C   UNL     1      -7.817  -0.108 128.063  0.00  0.00    +0.000 A 
ATOM      3  C   UNL     1      -8.117   0.489 129.282  0.00  0.00    +0.000 A 
ATOM      4  C   UNL     1      -8.035  -0.198 130.490  0.00  0.00    +0.000 A 
ATOM      5  O   UNL     1      -8.307   0.379 131.712  0.00  0.00    +0.000 OA
ATOM      6  C   UNL     1      -8.682   1.712 131.734  0.00  0.00    +0.000 A 
ATOM      7  N   UNL     1      -8.949   2.235 132.953  0.00  0.00    +0.000 NA
ATOM      8  C   UNL     1      -9.326   3.544 133.023  0.00  0.00    +0.000 A 
ATOM      9  C   UNL     1      -9.448   4.370 131.886  0.00  0.00    +0.000 A 
ATOM     10  C   UNL     1      -9.167   3.808 130.651  0.00  0.00    +0.000 A 
ATOM     11  C   UNL     1      -8.785   2.474 130.587  0.00  0.00    +0.000 A 
ATOM     12  C   UNL     1      -8.499   1.889 129.293  0.00  0.00    +0.000 A 
ATOM     13  O   UNL     1      -8.577   2.556 128.267  0.00  0.00    +0.000 OA
ATOM     14  C   UNL     1      -7.650  -1.533 130.464  0.00  0.00    +0.000 A 
ATOM     15  C   UNL     1      -7.335  -2.143 129.242  0.00  0.00    +0.000 A 
ENDROOT
BRANCH   1  17
ATOM     16  C   UNL     1      -8.170  -2.413 125.884  0.00  0.00    +0.000 C 
ATOM     17  C   UNL     1      -6.938  -1.996 126.698  0.00  0.00    +0.000 C 
ATOM     18  C   UNL     1      -6.093  -1.011 125.896  0.00  0.00    +0.000 C 
ENDBRANCH   1  17
BRANCH   8  19
ATOM     19  N   UNL     1      -9.586   4.020 134.289  0.00  0.00    +0.000 N 
ATOM     20  H   UNL     1     -10.131   4.856 134.419  0.00  0.00    +0.000 HD
ATOM     21  H   UNL     1      -9.210   3.511 135.089  0.00  0.00    +0.000 HD
ENDBRANCH   8  19
BRANCH   9  22
ATOM     22  C   UNL     1      -9.869   5.796 132.025  0.00  0.00    +0.000 C 
ATOM     23  O   UNL     1      -9.177   6.723 131.628  0.00  0.00    +0.000 OA
BRANCH  22  24
ATOM     24  O   UNL     1     -11.060   6.037 132.614  0.00  0.00    +0.000 OA
ATOM     25  H   UNL     1     -11.384   6.946 132.725  0.00  0.00    +0.000 HD
ENDBRANCH  22  24
ENDBRANCH   9  22
TORSDOF 4
ENDMDL
