MODEL 1
REMARK VINA RESULT:      -6.1      0.000      0.000
REMARK  Name = Amlodipine
REMARK  14 active torsions:
REMARK  status: ('A' for Active; 'I' for Inactive)
REMARK    1  A    between atoms: C_1  and  C_2
REMARK    2  A    between atoms: C_2  and  O_3
REMARK    3  A    between atoms: O_3  and  C_4
REMARK    4  A    between atoms: C_4  and  C_6
REMARK    5  A    between atoms: C_7  and  C_8
REMARK    6  A    between atoms: C_8  and  O_9
REMARK    7  A    between atoms: O_9  and  C_10
REMARK    8  A    between atoms: C_10  and  C_11
REMARK    9  A    between atoms: C_11  and  N_12
REMARK   10  A    between atoms: C_14  and  C_15
REMARK   11  A    between atoms: C_16  and  C_25
REMARK   12  A    between atoms: C_17  and  C_18
REMARK   13  A    between atoms: C_25  and  O_27
REMARK   14  A    between atoms: O_27  and  C_28
REMARK                            x       y       z     vdW  Elec       q    Type
REMARK                         _______ _______ _______ _____ _____    ______ ____
ROOT
ATOM      1  C   UNL     1      -7.087   0.149 125.874  0.00  0.00    +0.000 C 
ATOM      2  C   UNL     1      -7.229   0.785 124.686  0.00  0.00    +0.000 C 
ATOM      3  N   UNL     1      -6.789   0.143 123.525  0.00  0.00    +0.000 N 
ATOM      4  C   UNL     1      -6.453  -1.205 123.443  0.00  0.00    +0.000 C 
ATOM      5  C   UNL     1      -6.397  -1.802 122.055  0.00  0.00    +0.000 C 
ATOM      6  C   UNL     1      -6.235  -1.932 124.569  0.00  0.00    +0.000 C 
ATOM      7  C   UNL     1      -6.364  -1.216 125.936  0.00  0.00    +0.000 C 
ATOM      8  H   UNL     1      -6.924   0.634 122.644  0.00  0.00    +0.000 HD
ENDROOT
BRANCH   7   9
ATOM      9  C   UNL     1      -7.013  -2.102 126.979  0.00  0.00    +0.000 A 
ATOM     10  C   UNL     1      -8.314  -2.592 126.737  0.00  0.00    +0.000 A 
ATOM     11  C   UNL     1      -8.953  -3.373 127.693  0.00  0.00    +0.000 A 
ATOM     12  C   UNL     1      -8.296  -3.685 128.881  0.00  0.00    +0.000 A 
ATOM     13  C   UNL     1      -7.015  -3.197 129.132  0.00  0.00    +0.000 A 
ATOM     14  C   UNL     1      -6.376  -2.401 128.193  0.00  0.00    +0.000 A 
ATOM     15 CL   UNL     1      -4.814  -1.787 128.622  0.00  0.00    +0.000 Cl
ENDBRANCH   7   9
BRANCH   1  16
ATOM     16  C   UNL     1      -7.588   0.732 127.157  0.00  0.00    +0.000 C 
ATOM     17  O   UNL     1      -8.790   0.895 127.384  0.00  0.00    +0.000 OA
BRANCH  16  18
ATOM     18  O   UNL     1      -6.569   1.089 128.001  0.00  0.00    +0.000 OA
BRANCH  18  20
ATOM     19  C   UNL     1      -4.389   2.245 127.955  0.00  0.00    +0.000 C 
ATOM     20  C   UNL     1      -5.909   2.337 127.693  0.00  0.00    +0.000 C 
ENDBRANCH  18  20
ENDBRANCH  16  18
ENDBRANCH   1  16
BRANCH   6  21
ATOM     21  C   UNL     1      -5.980  -3.416 124.444  0.00  0.00    +0.000 C 
ATOM     22  O   UNL     1      -6.852  -4.266 124.310  0.00  0.00    +0.000 OA
BRANCH  21  23
ATOM     23  O   UNL     1      -4.668  -3.749 124.515  0.00  0.00    +0.000 OA
ATOM     24  C   UNL     1      -4.243  -4.668 123.498  0.00  0.00    +0.000 C 
ENDBRANCH  21  23
ENDBRANCH   6  21
BRANCH   2  25
ATOM     25  C   UNL     1      -7.831   2.177 124.493  0.00  0.00    +0.000 C 
BRANCH  25  26
ATOM     26  O   UNL     1      -8.766   2.225 123.419  0.00  0.00    +0.000 OA
BRANCH  26  27
ATOM     27  C   UNL     1      -9.959   1.494 123.672  0.00  0.00    +0.000 C 
BRANCH  27  28
ATOM     28  C   UNL     1     -10.274   0.545 122.506  0.00  0.00    +0.000 C 
BRANCH  28  29
ATOM     29  N   UNL     1      -9.915  -0.835 122.779  0.00  0.00    +0.000 NA
ATOM     30  H   UNL     1     -10.681  -1.279 123.273  0.00  0.00    +0.000 HD
ATOM     31  H   UNL     1      -9.108  -0.834 123.405  0.00  0.00    +0.000 HD
ENDBRANCH  28  29
ENDBRANCH  27  28
ENDBRANCH  26  27
ENDBRANCH  25  26
ENDBRANCH   2  25
TORSDOF 11
ENDMDL
MODEL 2
REMARK VINA RESULT:      -6.0      2.691      4.886
REMARK  Name = Amlodipine
REMARK  14 active torsions:
REMARK  status: ('A' for Active; 'I' for Inactive)
REMARK    1  A    between atoms: C_1  and  C_2
REMARK    2  A    between atoms: C_2  and  O_3
REMARK    3  A    between atoms: O_3  and  C_4
REMARK    4  A    between atoms: C_4  and  C_6
REMARK    5  A    between atoms: C_7  and  C_8
REMARK    6  A    between atoms: C_8  and  O_9
REMARK    7  A    between atoms: O_9  and  C_10
REMARK    8  A    between atoms: C_10  and  C_11
REMARK    9  A    between atoms: C_11  and  N_12
REMARK   10  A    between atoms: C_14  and  C_15
REMARK   11  A    between atoms: C_16  and  C_25
REMARK   12  A    between atoms: C_17  and  C_18
REMARK   13  A    between atoms: C_25  and  O_27
REMARK   14  A    between atoms: O_27  and  C_28
REMARK                            x       y       z     vdW  Elec       q    Type
REMARK                         _______ _______ _______ _____ _____    ______ ____
ROOT
ATOM      1  C   UNL     1      -7.949   0.407 126.800  0.00  0.00    +0.000 C 
ATOM      2  C   UNL     1      -7.796   1.350 127.760  0.00  0.00    +0.000 C 
ATOM      3  N   UNL     1      -7.588   0.935 129.080  0.00  0.00    +0.000 N 
ATOM      4  C   UNL     1      -7.264  -0.363 129.461  0.00  0.00    +0.000 C 
ATOM      5  C   UNL     1      -6.687  -0.532 130.848  0.00  0.00    +0.000 C 
ATOM      6  C   UNL     1      -7.425  -1.397 128.597  0.00  0.00    +0.000 C 
ATOM      7  C   UNL     1      -7.986  -1.089 127.187  0.00  0.00    +0.000 C 
ATOM      8  H   UNL     1      -7.458   1.663 129.779  0.00  0.00    +0.000 HD
ENDROOT
BRANCH   7   9
ATOM      9  C   UNL     1      -7.311  -1.921 126.116  0.00  0.00    +0.000 A 
ATOM     10  C   UNL     1      -5.952  -1.677 125.825  0.00  0.00    +0.000 A 
ATOM     11  C   UNL     1      -5.316  -2.395 124.819  0.00  0.00    +0.000 A 
ATOM     12  C   UNL     1      -6.020  -3.368 124.114  0.00  0.00    +0.000 A 
ATOM     13  C   UNL     1      -7.365  -3.608 124.389  0.00  0.00    +0.000 A 
ATOM     14  C   UNL     1      -8.015  -2.884 125.377  0.00  0.00    +0.000 A 
ATOM     15 CL   UNL     1      -9.701  -3.206 125.600  0.00  0.00    +0.000 Cl
ENDBRANCH   7   9
BRANCH   1  16
ATOM     16  C   UNL     1      -8.109   0.757 125.354  0.00  0.00    +0.000 C 
ATOM     17  O   UNL     1      -7.185   1.219 124.680  0.00  0.00    +0.000 OA
BRANCH  16  18
ATOM     18  O   UNL     1      -9.387   0.547 124.905  0.00  0.00    +0.000 OA
BRANCH  18  20
ATOM     19  C   UNL     1      -9.463  -0.731 122.795  0.00  0.00    +0.000 C 
ATOM     20  C   UNL     1      -9.574   0.652 123.476  0.00  0.00    +0.000 C 
ENDBRANCH  18  20
ENDBRANCH  16  18
ENDBRANCH   1  16
BRANCH   6  21
ATOM     21  C   UNL     1      -6.959  -2.775 129.008  0.00  0.00    +0.000 C 
ATOM     22  O   UNL     1      -7.696  -3.678 129.385  0.00  0.00    +0.000 OA
BRANCH  21  23
ATOM     23  O   UNL     1      -5.615  -2.934 128.946  0.00  0.00    +0.000 OA
ATOM     24  C   UNL     1      -5.080  -3.791 129.964  0.00  0.00    +0.000 C 
ENDBRANCH  21  23
ENDBRANCH   6  21
BRANCH   2  25
ATOM     25  C   UNL     1      -7.840   2.861 127.533  0.00  0.00    +0.000 C 
BRANCH  25  26
ATOM     26  O   UNL     1      -6.551   3.416 127.285  0.00  0.00    +0.000 OA
BRANCH  26  27
ATOM     27  C   UNL     1      -6.520   4.298 126.171  0.00  0.00    +0.000 C 
BRANCH  27  28
ATOM     28  C   UNL     1      -7.939   4.559 125.643  0.00  0.00    +0.000 C 
BRANCH  28  29
ATOM     29  N   UNL     1      -8.117   4.151 124.260  0.00  0.00    +0.000 NA
ATOM     30  H   UNL     1      -7.235   4.260 123.773  0.00  0.00    +0.000 HD
ATOM     31  H   UNL     1      -8.786   4.788 123.826  0.00  0.00    +0.000 HD
ENDBRANCH  28  29
ENDBRANCH  27  28
ENDBRANCH  26  27
ENDBRANCH  25  26
ENDBRANCH   2  25
TORSDOF 11
ENDMDL
MODEL 3
REMARK VINA RESULT:      -6.0      2.193      5.018
REMARK  Name = Amlodipine
REMARK  14 active torsions:
REMARK  status: ('A' for Active; 'I' for Inactive)
REMARK    1  A    between atoms: C_1  and  C_2
REMARK    2  A    between atoms: C_2  and  O_3
REMARK    3  A    between atoms: O_3  and  C_4
REMARK    4  A    between atoms: C_4  and  C_6
REMARK    5  A    between atoms: C_7  and  C_8
REMARK    6  A    between atoms: C_8  and  O_9
REMARK    7  A    between atoms: O_9  and  C_10
REMARK    8  A    between atoms: C_10  and  C_11
REMARK    9  A    between atoms: C_11  and  N_12
REMARK   10  A    between atoms: C_14  and  C_15
REMARK   11  A    between atoms: C_16  and  C_25
REMARK   12  A    between atoms: C_17  and  C_18
REMARK   13  A    between atoms: C_25  and  O_27
REMARK   14  A    between atoms: O_27  and  C_28
REMARK                            x       y       z     vdW  Elec       q    Type
REMARK                         _______ _______ _______ _____ _____    ______ ____
ROOT
ATOM      1  C   UNL     1      -7.068  -1.081 126.314  0.00  0.00    +0.000 C 
ATOM      2  C   UNL     1      -7.093   0.054 125.576  0.00  0.00    +0.000 C 
ATOM      3  N   UNL     1      -7.379   1.265 126.215  0.00  0.00    +0.000 N 
ATOM      4  C   UNL     1      -7.386   1.450 127.594  0.00  0.00    +0.000 C 
ATOM      5  C   UNL     1      -7.312   2.880 128.081  0.00  0.00    +0.000 C 
ATOM      6  C   UNL     1      -7.413   0.384 128.434  0.00  0.00    +0.000 C 
ATOM      7  C   UNL     1      -7.444  -1.034 127.813  0.00  0.00    +0.000 C 
ATOM      8  H   UNL     1      -7.374   2.105 125.641  0.00  0.00    +0.000 HD
ENDROOT
BRANCH   7   9
ATOM      9  C   UNL     1      -6.592  -2.012 128.594  0.00  0.00    +0.000 A 
ATOM     10  C   UNL     1      -5.200  -1.795 128.662  0.00  0.00    +0.000 A 
ATOM     11  C   UNL     1      -4.386  -2.698 129.336  0.00  0.00    +0.000 A 
ATOM     12  C   UNL     1      -4.954  -3.806 129.961  0.00  0.00    +0.000 A 
ATOM     13  C   UNL     1      -6.327  -4.033 129.891  0.00  0.00    +0.000 A 
ATOM     14  C   UNL     1      -7.145  -3.149 129.204  0.00  0.00    +0.000 A 
ATOM     15 CL   UNL     1      -8.828  -3.550 129.116  0.00  0.00    +0.000 Cl
ENDBRANCH   7   9
BRANCH   1  16
ATOM     16  C   UNL     1      -6.707  -2.409 125.727  0.00  0.00    +0.000 C 
ATOM     17  O   UNL     1      -5.553  -2.693 125.396  0.00  0.00    +0.000 OA
BRANCH  16  18
ATOM     18  O   UNL     1      -7.798  -3.224 125.571  0.00  0.00    +0.000 OA
BRANCH  18  20
ATOM     19  C   UNL     1      -9.445  -3.302 123.734  0.00  0.00    +0.000 C 
ATOM     20  C   UNL     1      -8.036  -3.701 124.228  0.00  0.00    +0.000 C 
ENDBRANCH  18  20
ENDBRANCH  16  18
ENDBRANCH   1  16
BRANCH   6  21
ATOM     21  C   UNL     1      -7.308   0.623 129.923  0.00  0.00    +0.000 C 
ATOM     22  O   UNL     1      -6.271   0.889 130.516  0.00  0.00    +0.000 OA
BRANCH  21  23
ATOM     23  O   UNL     1      -8.488   0.494 130.577  0.00  0.00    +0.000 OA
ATOM     24  C   UNL     1      -8.428  -0.360 131.727  0.00  0.00    +0.000 C 
ENDBRANCH  21  23
ENDBRANCH   6  21
BRANCH   2  25
ATOM     25  C   UNL     1      -6.842   0.137 124.070  0.00  0.00    +0.000 C 
BRANCH  25  26
ATOM     26  O   UNL     1      -7.797   0.953 123.399  0.00  0.00    +0.000 OA
BRANCH  26  27
ATOM     27  C   UNL     1      -9.086   0.358 123.308  0.00  0.00    +0.000 C 
BRANCH  27  28
ATOM     28  C   UNL     1     -10.177   1.361 123.713  0.00  0.00    +0.000 C 
BRANCH  28  29
ATOM     29  N   UNL     1      -9.702   2.384 124.627  0.00  0.00    +0.000 NA
ATOM     30  H   UNL     1      -9.042   1.963 125.272  0.00  0.00    +0.000 HD
ATOM     31  H   UNL     1     -10.497   2.713 125.176  0.00  0.00    +0.000 HD
ENDBRANCH  28  29
ENDBRANCH  27  28
ENDBRANCH  26  27
ENDBRANCH  25  26
ENDBRANCH   2  25
TORSDOF 11
ENDMDL
MODEL 4
REMARK VINA RESULT:      -6.0      1.837      2.463
REMARK  Name = Amlodipine
REMARK  14 active torsions:
REMARK  status: ('A' for Active; 'I' for Inactive)
REMARK    1  A    between atoms: C_1  and  C_2
REMARK    2  A    between atoms: C_2  and  O_3
REMARK    3  A    between atoms: O_3  and  C_4
REMARK    4  A    between atoms: C_4  and  C_6
REMARK    5  A    between atoms: C_7  and  C_8
REMARK    6  A    between atoms: C_8  and  O_9
REMARK    7  A    between atoms: O_9  and  C_10
REMARK    8  A    between atoms: C_10  and  C_11
REMARK    9  A    between atoms: C_11  and  N_12
REMARK   10  A    between atoms: C_14  and  C_15
REMARK   11  A    between atoms: C_16  and  C_25
REMARK   12  A    between atoms: C_17  and  C_18
REMARK   13  A    between atoms: C_25  and  O_27
REMARK   14  A    between atoms: O_27  and  C_28
REMARK                            x       y       z     vdW  Elec       q    Type
REMARK                         _______ _______ _______ _____ _____    ______ ____
ROOT
ATOM      1  C   UNL     1      -7.308   0.310 125.863  0.00  0.00    +0.000 C 
ATOM      2  C   UNL     1      -7.803   0.824 124.712  0.00  0.00    +0.000 C 
ATOM      3  N   UNL     1      -7.597   0.122 123.520  0.00  0.00    +0.000 N 
ATOM      4  C   UNL     1      -7.152  -1.193 123.442  0.00  0.00    +0.000 C 
ATOM      5  C   UNL     1      -7.377  -1.903 122.126  0.00  0.00    +0.000 C 
ATOM      6  C   UNL     1      -6.590  -1.797 124.520  0.00  0.00    +0.000 C 
ATOM      7  C   UNL     1      -6.454  -0.978 125.827  0.00  0.00    +0.000 C 
ATOM      8  H   UNL     1      -7.994   0.521 122.672  0.00  0.00    +0.000 HD
ENDROOT
BRANCH   7   9
ATOM      9  C   UNL     1      -6.731  -1.820 127.054  0.00  0.00    +0.000 A 
ATOM     10  C   UNL     1      -5.685  -2.037 127.977  0.00  0.00    +0.000 A 
ATOM     11  C   UNL     1      -5.897  -2.840 129.092  0.00  0.00    +0.000 A 
ATOM     12  C   UNL     1      -7.149  -3.412 129.304  0.00  0.00    +0.000 A 
ATOM     13  C   UNL     1      -8.184  -3.211 128.392  0.00  0.00    +0.000 A 
ATOM     14  C   UNL     1      -7.978  -2.428 127.267  0.00  0.00    +0.000 A 
ATOM     15 CL   UNL     1      -9.302  -2.289 126.159  0.00  0.00    +0.000 Cl
ENDBRANCH   7   9
BRANCH   1  16
ATOM     16  C   UNL     1      -7.537   0.958 127.191  0.00  0.00    +0.000 C 
ATOM     17  O   UNL     1      -8.646   0.984 127.732  0.00  0.00    +0.000 OA
BRANCH  16  18
ATOM     18  O   UNL     1      -6.400   1.539 127.691  0.00  0.00    +0.000 OA
BRANCH  18  20
ATOM     19  C   UNL     1      -5.887   1.018 130.049  0.00  0.00    +0.000 C 
ATOM     20  C   UNL     1      -6.491   2.029 129.047  0.00  0.00    +0.000 C 
ENDBRANCH  18  20
ENDBRANCH  16  18
ENDBRANCH   1  16
BRANCH   6  21
ATOM     21  C   UNL     1      -6.220  -3.260 124.430  0.00  0.00    +0.000 C 
ATOM     22  O   UNL     1      -7.024  -4.184 124.409  0.00  0.00    +0.000 OA
BRANCH  21  23
ATOM     23  O   UNL     1      -4.883  -3.480 124.394  0.00  0.00    +0.000 OA
ATOM     24  C   UNL     1      -4.503  -4.647 123.651  0.00  0.00    +0.000 C 
ENDBRANCH  21  23
ENDBRANCH   6  21
BRANCH   2  25
ATOM     25  C   UNL     1      -8.576   2.138 124.588  0.00  0.00    +0.000 C 
BRANCH  25  26
ATOM     26  O   UNL     1      -7.840   3.144 123.899  0.00  0.00    +0.000 OA
BRANCH  26  27
ATOM     27  C   UNL     1      -7.077   3.978 124.762  0.00  0.00    +0.000 C 
BRANCH  27  28
ATOM     28  C   UNL     1      -7.911   4.414 125.976  0.00  0.00    +0.000 C 
BRANCH  28  29
ATOM     29  N   UNL     1      -8.730   5.584 125.715  0.00  0.00    +0.000 NA
ATOM     30  H   UNL     1      -9.398   5.688 126.471  0.00  0.00    +0.000 HD
ATOM     31  H   UNL     1      -9.262   5.414 124.860  0.00  0.00    +0.000 HD
ENDBRANCH  28  29
ENDBRANCH  27  28
ENDBRANCH  26  27
ENDBRANCH  25  26
ENDBRANCH   2  25
TORSDOF 11
ENDMDL
MODEL 5
REMARK VINA RESULT:      -5.9      2.236      4.991
REMARK  Name = Amlodipine
REMARK  14 active torsions:
REMARK  status: ('A' for Active; 'I' for Inactive)
REMARK    1  A    between atoms: C_1  and  C_2
REMARK    2  A    between atoms: C_2  and  O_3
REMARK    3  A    between atoms: O_3  and  C_4
REMARK    4  A    between atoms: C_4  and  C_6
REMARK    5  A    between atoms: C_7  and  C_8
REMARK    6  A    between atoms: C_8  and  O_9
REMARK    7  A    between atoms: O_9  and  C_10
REMARK    8  A    between atoms: C_10  and  C_11
REMARK    9  A    between atoms: C_11  and  N_12
REMARK   10  A    between atoms: C_14  and  C_15
REMARK   11  A    between atoms: C_16  and  C_25
REMARK   12  A    between atoms: C_17  and  C_18
REMARK   13  A    between atoms: C_25  and  O_27
REMARK   14  A    between atoms: O_27  and  C_28
REMARK                            x       y       z     vdW  Elec       q    Type
REMARK                         _______ _______ _______ _____ _____    ______ ____
ROOT
ATOM      1  C   UNL     1      -8.103  -1.450 126.813  0.00  0.00    +0.000 C 
ATOM      2  C   UNL     1      -8.486  -0.348 126.125  0.00  0.00    +0.000 C 
ATOM      3  N   UNL     1      -8.706   0.840 126.829  0.00  0.00    +0.000 N 
ATOM      4  C   UNL     1      -8.314   1.065 128.145  0.00  0.00    +0.000 C 
ATOM      5  C   UNL     1      -8.265   2.507 128.596  0.00  0.00    +0.000 C 
ATOM      6  C   UNL     1      -7.957   0.029 128.947  0.00  0.00    +0.000 C 
ATOM      7  C   UNL     1      -8.007  -1.402 128.355  0.00  0.00    +0.000 C 
ATOM      8  H   UNL     1      -8.975   1.658 126.287  0.00  0.00    +0.000 HD
ENDROOT
BRANCH   7   9
ATOM      9  C   UNL     1      -6.848  -2.252 128.831  0.00  0.00    +0.000 A 
ATOM     10  C   UNL     1      -7.118  -3.365 129.656  0.00  0.00    +0.000 A 
ATOM     11  C   UNL     1      -6.072  -4.140 130.143  0.00  0.00    +0.000 A 
ATOM     12  C   UNL     1      -4.760  -3.825 129.798  0.00  0.00    +0.000 A 
ATOM     13  C   UNL     1      -4.484  -2.722 128.992  0.00  0.00    +0.000 A 
ATOM     14  C   UNL     1      -5.518  -1.930 128.517  0.00  0.00    +0.000 A 
ATOM     15 CL   UNL     1      -5.074  -0.544 127.579  0.00  0.00    +0.000 Cl
ENDBRANCH   7   9
BRANCH   1  16
ATOM     16  C   UNL     1      -7.782  -2.744 126.134  0.00  0.00    +0.000 C 
ATOM     17  O   UNL     1      -8.531  -3.723 126.192  0.00  0.00    +0.000 OA
BRANCH  16  18
ATOM     18  O   UNL     1      -6.568  -2.713 125.500  0.00  0.00    +0.000 OA
BRANCH  18  20
ATOM     19  C   UNL     1      -5.037  -3.590 123.774  0.00  0.00    +0.000 C 
ATOM     20  C   UNL     1      -6.499  -3.424 124.243  0.00  0.00    +0.000 C 
ENDBRANCH  18  20
ENDBRANCH  16  18
ENDBRANCH   1  16
BRANCH   6  21
ATOM     21  C   UNL     1      -7.433   0.321 130.333  0.00  0.00    +0.000 C 
ATOM     22  O   UNL     1      -6.300   0.714 130.583  0.00  0.00    +0.000 OA
BRANCH  21  23
ATOM     23  O   UNL     1      -8.338   0.089 131.315  0.00  0.00    +0.000 OA
ATOM     24  C   UNL     1      -7.883  -0.822 132.325  0.00  0.00    +0.000 C 
ENDBRANCH  21  23
ENDBRANCH   6  21
BRANCH   2  25
ATOM     25  C   UNL     1      -8.717  -0.281 124.615  0.00  0.00    +0.000 C 
BRANCH  25  26
ATOM     26  O   UNL     1      -9.871   0.478 124.270  0.00  0.00    +0.000 OA
BRANCH  26  27
ATOM     27  C   UNL     1      -9.659   1.367 123.180  0.00  0.00    +0.000 C 
BRANCH  27  28
ATOM     28  C   UNL     1      -8.747   2.532 123.598  0.00  0.00    +0.000 C 
BRANCH  28  29
ATOM     29  N   UNL     1      -9.189   3.196 124.811  0.00  0.00    +0.000 NA
ATOM     30  H   UNL     1      -9.478   4.139 124.579  0.00  0.00    +0.000 HD
ATOM     31  H   UNL     1      -8.389   3.268 125.441  0.00  0.00    +0.000 HD
ENDBRANCH  28  29
ENDBRANCH  27  28
ENDBRANCH  26  27
ENDBRANCH  25  26
ENDBRANCH   2  25
TORSDOF 11
ENDMDL
MODEL 6
REMARK VINA RESULT:      -5.8      2.759      5.728
REMARK  Name = Amlodipine
REMARK  14 active torsions:
REMARK  status: ('A' for Active; 'I' for Inactive)
REMARK    1  A    between atoms: C_1  and  C_2
REMARK    2  A    between atoms: C_2  and  O_3
REMARK    3  A    between atoms: O_3  and  C_4
REMARK    4  A    between atoms: C_4  and  C_6
REMARK    5  A    between atoms: C_7  and  C_8
REMARK    6  A    between atoms: C_8  and  O_9
REMARK    7  A    between atoms: O_9  and  C_10
REMARK    8  A    between atoms: C_10  and  C_11
REMARK    9  A    between atoms: C_11  and  N_12
REMARK   10  A    between atoms: C_14  and  C_15
REMARK   11  A    between atoms: C_16  and  C_25
REMARK   12  A    between atoms: C_17  and  C_18
REMARK   13  A    between atoms: C_25  and  O_27
REMARK   14  A    between atoms: O_27  and  C_28
REMARK                            x       y       z     vdW  Elec       q    Type
REMARK                         _______ _______ _______ _____ _____    ______ ____
ROOT
ATOM      1  C   UNL     1      -5.844  -0.432 127.376  0.00  0.00    +0.000 C 
ATOM      2  C   UNL     1      -5.623   0.717 128.057  0.00  0.00    +0.000 C 
ATOM      3  N   UNL     1      -5.705   1.932 127.369  0.00  0.00    +0.000 N 
ATOM      4  C   UNL     1      -6.251   2.087 126.098  0.00  0.00    +0.000 C 
ATOM      5  C   UNL     1      -6.621   3.496 125.693  0.00  0.00    +0.000 C 
ATOM      6  C   UNL     1      -6.469   1.008 125.304  0.00  0.00    +0.000 C 
ATOM      7  C   UNL     1      -6.087  -0.389 125.850  0.00  0.00    +0.000 C 
ATOM      8  H   UNL     1      -5.553   2.781 127.907  0.00  0.00    +0.000 HD
ENDROOT
BRANCH   7   9
ATOM      9  C   UNL     1      -7.096  -1.447 125.453  0.00  0.00    +0.000 A 
ATOM     10  C   UNL     1      -8.420  -1.332 125.927  0.00  0.00    +0.000 A 
ATOM     11  C   UNL     1      -9.358  -2.309 125.615  0.00  0.00    +0.000 A 
ATOM     12  C   UNL     1      -8.991  -3.389 124.816  0.00  0.00    +0.000 A 
ATOM     13  C   UNL     1      -7.683  -3.515 124.351  0.00  0.00    +0.000 A 
ATOM     14  C   UNL     1      -6.734  -2.557 124.673  0.00  0.00    +0.000 A 
ATOM     15 CL   UNL     1      -5.121  -2.832 124.106  0.00  0.00    +0.000 Cl
ENDBRANCH   7   9
BRANCH   1  16
ATOM     16  C   UNL     1      -5.843  -1.771 128.044  0.00  0.00    +0.000 C 
ATOM     17  O   UNL     1      -4.988  -2.628 127.804  0.00  0.00    +0.000 OA
BRANCH  16  18
ATOM     18  O   UNL     1      -6.906  -1.930 128.895  0.00  0.00    +0.000 OA
BRANCH  18  20
ATOM     19  C   UNL     1      -8.503  -3.798 128.673  0.00  0.00    +0.000 C 
ATOM     20  C   UNL     1      -7.186  -3.289 129.299  0.00  0.00    +0.000 C 
ENDBRANCH  18  20
ENDBRANCH  16  18
ENDBRANCH   1  16
BRANCH   6  21
ATOM     21  C   UNL     1      -7.164   1.205 123.976  0.00  0.00    +0.000 C 
ATOM     22  O   UNL     1      -6.607   1.179 122.886  0.00  0.00    +0.000 OA
BRANCH  21  23
ATOM     23  O   UNL     1      -8.494   1.442 124.089  0.00  0.00    +0.000 OA
ATOM     24  C   UNL     1      -9.029   2.278 123.054  0.00  0.00    +0.000 C 
ENDBRANCH  21  23
ENDBRANCH   6  21
BRANCH   2  25
ATOM     25  C   UNL     1      -5.274   0.814 129.543  0.00  0.00    +0.000 C 
BRANCH  25  26
ATOM     26  O   UNL     1      -4.018   0.216 129.850  0.00  0.00    +0.000 OA
BRANCH  26  27
ATOM     27  C   UNL     1      -4.002  -0.454 131.104  0.00  0.00    +0.000 C 
BRANCH  27  28
ATOM     28  C   UNL     1      -3.583  -1.922 130.930  0.00  0.00    +0.000 C 
BRANCH  28  29
ATOM     29  N   UNL     1      -2.661  -2.126 129.828  0.00  0.00    +0.000 NA
ATOM     30  H   UNL     1      -3.045  -2.831 129.208  0.00  0.00    +0.000 HD
ATOM     31  H   UNL     1      -1.790  -2.499 130.208  0.00  0.00    +0.000 HD
ENDBRANCH  28  29
ENDBRANCH  27  28
ENDBRANCH  26  27
ENDBRANCH  25  26
ENDBRANCH   2  25
TORSDOF 11
ENDMDL
MODEL 7
REMARK VINA RESULT:      -5.8      2.698      5.155
REMARK  Name = Amlodipine
REMARK  14 active torsions:
REMARK  status: ('A' for Active; 'I' for Inactive)
REMARK    1  A    between atoms: C_1  and  C_2
REMARK    2  A    between atoms: C_2  and  O_3
REMARK    3  A    between atoms: O_3  and  C_4
REMARK    4  A    between atoms: C_4  and  C_6
REMARK    5  A    between atoms: C_7  and  C_8
REMARK    6  A    between atoms: C_8  and  O_9
REMARK    7  A    between atoms: O_9  and  C_10
REMARK    8  A    between atoms: C_10  and  C_11
REMARK    9  A    between atoms: C_11  and  N_12
REMARK   10  A    between atoms: C_14  and  C_15
REMARK   11  A    between atoms: C_16  and  C_25
REMARK   12  A    between atoms: C_17  and  C_18
REMARK   13  A    between atoms: C_25  and  O_27
REMARK   14  A    between atoms: O_27  and  C_28
REMARK                            x       y       z     vdW  Elec       q    Type
REMARK                         _______ _______ _______ _____ _____    ______ ____
ROOT
ATOM      1  C   UNL     1      -7.030   0.722 126.082  0.00  0.00    +0.000 C 
ATOM      2  C   UNL     1      -6.545   1.808 126.732  0.00  0.00    +0.000 C 
ATOM      3  N   UNL     1      -6.015   1.640 128.015  0.00  0.00    +0.000 N 
ATOM      4  C   UNL     1      -5.700   0.412 128.588  0.00  0.00    +0.000 C 
ATOM      5  C   UNL     1      -4.778   0.446 129.786  0.00  0.00    +0.000 C 
ATOM      6  C   UNL     1      -6.173  -0.742 128.053  0.00  0.00    +0.000 C 
ATOM      7  C   UNL     1      -7.074  -0.648 126.797  0.00  0.00    +0.000 C 
ATOM      8  H   UNL     1      -5.641   2.468 128.474  0.00  0.00    +0.000 HD
ENDROOT
BRANCH   7   9
ATOM      9  C   UNL     1      -6.787  -1.760 125.810  0.00  0.00    +0.000 A 
ATOM     10  C   UNL     1      -5.539  -1.776 125.153  0.00  0.00    +0.000 A 
ATOM     11  C   UNL     1      -5.262  -2.760 124.210  0.00  0.00    +0.000 A 
ATOM     12  C   UNL     1      -6.213  -3.739 123.934  0.00  0.00    +0.000 A 
ATOM     13  C   UNL     1      -7.452  -3.724 124.572  0.00  0.00    +0.000 A 
ATOM     14  C   UNL     1      -7.747  -2.736 125.499  0.00  0.00    +0.000 A 
ATOM     15 CL   UNL     1      -9.334  -2.761 126.190  0.00  0.00    +0.000 Cl
ENDBRANCH   7   9
BRANCH   1  16
ATOM     16  C   UNL     1      -7.554   0.796 124.683  0.00  0.00    +0.000 C 
ATOM     17  O   UNL     1      -6.836   1.084 123.722  0.00  0.00    +0.000 OA
BRANCH  16  18
ATOM     18  O   UNL     1      -8.902   0.553 124.618  0.00  0.00    +0.000 OA
BRANCH  18  20
ATOM     19  C   UNL     1      -9.377  -1.043 122.797  0.00  0.00    +0.000 C 
ATOM     20  C   UNL     1      -9.451   0.421 123.288  0.00  0.00    +0.000 C 
ENDBRANCH  18  20
ENDBRANCH  16  18
ENDBRANCH   1  16
BRANCH   6  21
ATOM     21  C   UNL     1      -5.720  -2.060 128.637  0.00  0.00    +0.000 C 
ATOM     22  O   UNL     1      -4.736  -2.687 128.265  0.00  0.00    +0.000 OA
BRANCH  21  23
ATOM     23  O   UNL     1      -6.525  -2.521 129.624  0.00  0.00    +0.000 OA
ATOM     24  C   UNL     1      -7.487  -3.492 129.188  0.00  0.00    +0.000 C 
ENDBRANCH  21  23
ENDBRANCH   6  21
BRANCH   2  25
ATOM     25  C   UNL     1      -6.532   3.235 126.184  0.00  0.00    +0.000 C 
BRANCH  25  26
ATOM     26  O   UNL     1      -5.289   3.579 125.580  0.00  0.00    +0.000 OA
BRANCH  26  27
ATOM     27  C   UNL     1      -4.466   4.395 126.404  0.00  0.00    +0.000 C 
BRANCH  27  28
ATOM     28  C   UNL     1      -3.065   3.781 126.552  0.00  0.00    +0.000 C 
BRANCH  28  29
ATOM     29  N   UNL     1      -3.091   2.342 126.751  0.00  0.00    +0.000 NA
ATOM     30  H   UNL     1      -2.222   1.951 126.406  0.00  0.00    +0.000 HD
ATOM     31  H   UNL     1      -3.846   1.957 126.183  0.00  0.00    +0.000 HD
ENDBRANCH  28  29
ENDBRANCH  27  28
ENDBRANCH  26  27
ENDBRANCH  25  26
ENDBRANCH   2  25
TORSDOF 11
ENDMDL
MODEL 8
REMARK VINA RESULT:      -5.8      2.575      4.842
REMARK  Name = Amlodipine
REMARK  14 active torsions:
REMARK  status: ('A' for Active; 'I' for Inactive)
REMARK    1  A    between atoms: C_1  and  C_2
REMARK    2  A    between atoms: C_2  and  O_3
REMARK    3  A    between atoms: O_3  and  C_4
REMARK    4  A    between atoms: C_4  and  C_6
REMARK    5  A    between atoms: C_7  and  C_8
REMARK    6  A    between atoms: C_8  and  O_9
REMARK    7  A    between atoms: O_9  and  C_10
REMARK    8  A    between atoms: C_10  and  C_11
REMARK    9  A    between atoms: C_11  and  N_12
REMARK   10  A    between atoms: C_14  and  C_15
REMARK   11  A    between atoms: C_16  and  C_25
REMARK   12  A    between atoms: C_17  and  C_18
REMARK   13  A    between atoms: C_25  and  O_27
REMARK   14  A    between atoms: O_27  and  C_28
REMARK                            x       y       z     vdW  Elec       q    Type
REMARK                         _______ _______ _______ _____ _____    ______ ____
ROOT
ATOM      1  C   UNL     1      -8.117   1.111 126.174  0.00  0.00    +0.000 C 
ATOM      2  C   UNL     1      -7.798   2.147 126.986  0.00  0.00    +0.000 C 
ATOM      3  N   UNL     1      -7.517   1.883 128.331  0.00  0.00    +0.000 N 
ATOM      4  C   UNL     1      -7.279   0.618 128.857  0.00  0.00    +0.000 C 
ATOM      5  C   UNL     1      -6.604   0.567 130.209  0.00  0.00    +0.000 C 
ATOM      6  C   UNL     1      -7.606  -0.496 128.153  0.00  0.00    +0.000 C 
ATOM      7  C   UNL     1      -8.254  -0.314 126.759  0.00  0.00    +0.000 C 
ATOM      8  H   UNL     1      -7.264   2.677 128.916  0.00  0.00    +0.000 HD
ENDROOT
BRANCH   7   9
ATOM      9  C   UNL     1      -7.750  -1.336 125.762  0.00  0.00    +0.000 A 
ATOM     10  C   UNL     1      -8.652  -2.303 125.269  0.00  0.00    +0.000 A 
ATOM     11  C   UNL     1      -8.210  -3.280 124.385  0.00  0.00    +0.000 A 
ATOM     12  C   UNL     1      -6.879  -3.288 123.974  0.00  0.00    +0.000 A 
ATOM     13  C   UNL     1      -5.980  -2.343 124.464  0.00  0.00    +0.000 A 
ATOM     14  C   UNL     1      -6.406  -1.376 125.361  0.00  0.00    +0.000 A 
ATOM     15 CL   UNL     1      -5.203  -0.286 125.965  0.00  0.00    +0.000 Cl
ENDBRANCH   7   9
BRANCH   1  16
ATOM     16  C   UNL     1      -8.367   1.291 124.710  0.00  0.00    +0.000 C 
ATOM     17  O   UNL     1      -7.463   1.551 123.912  0.00  0.00    +0.000 OA
BRANCH  16  18
ATOM     18  O   UNL     1      -9.696   1.177 124.391  0.00  0.00    +0.000 OA
BRANCH  18  20
ATOM     19  C   UNL     1      -9.967  -0.318 122.446  0.00  0.00    +0.000 C 
ATOM     20  C   UNL     1      -9.998   1.133 122.979  0.00  0.00    +0.000 C 
ENDBRANCH  18  20
ENDBRANCH  16  18
ENDBRANCH   1  16
BRANCH   6  21
ATOM     21  C   UNL     1      -7.232  -1.850 128.709  0.00  0.00    +0.000 C 
ATOM     22  O   UNL     1      -6.110  -2.340 128.660  0.00  0.00    +0.000 OA
BRANCH  21  23
ATOM     23  O   UNL     1      -8.272  -2.513 129.269  0.00  0.00    +0.000 OA
ATOM     24  C   UNL     1      -8.631  -3.722 128.585  0.00  0.00    +0.000 C 
ENDBRANCH  21  23
ENDBRANCH   6  21
BRANCH   2  25
ATOM     25  C   UNL     1      -7.726   3.615 126.564  0.00  0.00    +0.000 C 
BRANCH  25  26
ATOM     26  O   UNL     1      -6.416   4.006 126.164  0.00  0.00    +0.000 OA
BRANCH  26  27
ATOM     27  C   UNL     1      -6.407   4.961 125.111  0.00  0.00    +0.000 C 
BRANCH  27  28
ATOM     28  C   UNL     1      -5.550   4.468 123.935  0.00  0.00    +0.000 C 
BRANCH  28  29
ATOM     29  N   UNL     1      -6.325   4.192 122.739  0.00  0.00    +0.000 NA
ATOM     30  H   UNL     1      -5.790   3.573 122.140  0.00  0.00    +0.000 HD
ATOM     31  H   UNL     1      -6.452   5.070 122.234  0.00  0.00    +0.000 HD
ENDBRANCH  28  29
ENDBRANCH  27  28
ENDBRANCH  26  27
ENDBRANCH  25  26
ENDBRANCH   2  25
TORSDOF 11
ENDMDL
MODEL 9
REMARK VINA RESULT:      -5.7      1.402      1.881
REMARK  Name = Amlodipine
REMARK  14 active torsions:
REMARK  status: ('A' for Active; 'I' for Inactive)
REMARK    1  A    between atoms: C_1  and  C_2
REMARK    2  A    between atoms: C_2  and  O_3
REMARK    3  A    between atoms: O_3  and  C_4
REMARK    4  A    between atoms: C_4  and  C_6
REMARK    5  A    between atoms: C_7  and  C_8
REMARK    6  A    between atoms: C_8  and  O_9
REMARK    7  A    between atoms: O_9  and  C_10
REMARK    8  A    between atoms: C_10  and  C_11
REMARK    9  A    between atoms: C_11  and  N_12
REMARK   10  A    between atoms: C_14  and  C_15
REMARK   11  A    between atoms: C_16  and  C_25
REMARK   12  A    between atoms: C_17  and  C_18
REMARK   13  A    between atoms: C_25  and  O_27
REMARK   14  A    between atoms: O_27  and  C_28
REMARK                            x       y       z     vdW  Elec       q    Type
REMARK                         _______ _______ _______ _____ _____    ______ ____
ROOT
ATOM      1  C   UNL     1      -6.373   0.250 126.900  0.00  0.00    +0.000 C 
ATOM      2  C   UNL     1      -6.588   1.088 125.858  0.00  0.00    +0.000 C 
ATOM      3  N   UNL     1      -6.446   0.593 124.558  0.00  0.00    +0.000 N 
ATOM      4  C   UNL     1      -6.358  -0.756 124.229  0.00  0.00    +0.000 C 
ATOM      5  C   UNL     1      -6.617  -1.114 122.784  0.00  0.00    +0.000 C 
ATOM      6  C   UNL     1      -6.094  -1.684 125.184  0.00  0.00    +0.000 C 
ATOM      7  C   UNL     1      -5.890  -1.195 126.639  0.00  0.00    +0.000 C 
ATOM      8  H   UNL     1      -6.631   1.239 123.794  0.00  0.00    +0.000 HD
ENDROOT
BRANCH   7   9
ATOM      9  C   UNL     1      -6.510  -2.141 127.646  0.00  0.00    +0.000 A 
ATOM     10  C   UNL     1      -7.871  -2.483 127.505  0.00  0.00    +0.000 A 
ATOM     11  C   UNL     1      -8.480  -3.317 128.437  0.00  0.00    +0.000 A 
ATOM     12  C   UNL     1      -7.735  -3.827 129.498  0.00  0.00    +0.000 A 
ATOM     13  C   UNL     1      -6.392  -3.487 129.649  0.00  0.00    +0.000 A 
ATOM     14  C   UNL     1      -5.780  -2.641 128.736  0.00  0.00    +0.000 A 
ATOM     15 CL   UNL     1      -4.128  -2.222 129.044  0.00  0.00    +0.000 Cl
ENDBRANCH   7   9
BRANCH   1  16
ATOM     16  C   UNL     1      -6.566   0.675 128.321  0.00  0.00    +0.000 C 
ATOM     17  O   UNL     1      -5.623   0.996 129.049  0.00  0.00    +0.000 OA
BRANCH  16  18
ATOM     18  O   UNL     1      -7.880   0.619 128.709  0.00  0.00    +0.000 OA
BRANCH  18  20
ATOM     19  C   UNL     1      -8.389  -0.464 130.868  0.00  0.00    +0.000 C 
ATOM     20  C   UNL     1      -8.130   0.859 130.112  0.00  0.00    +0.000 C 
ENDBRANCH  18  20
ENDBRANCH  16  18
ENDBRANCH   1  16
BRANCH   6  21
ATOM     21  C   UNL     1      -6.114  -3.147 124.809  0.00  0.00    +0.000 C 
ATOM     22  O   UNL     1      -7.126  -3.789 124.553  0.00  0.00    +0.000 OA
BRANCH  21  23
ATOM     23  O   UNL     1      -4.887  -3.721 124.796  0.00  0.00    +0.000 OA
ATOM     24  C   UNL     1      -4.459  -4.158 123.498  0.00  0.00    +0.000 C 
ENDBRANCH  21  23
ENDBRANCH   6  21
BRANCH   2  25
ATOM     25  C   UNL     1      -6.971   2.564 125.973  0.00  0.00    +0.000 C 
BRANCH  25  26
ATOM     26  O   UNL     1      -8.380   2.768 125.954  0.00  0.00    +0.000 OA
BRANCH  26  27
ATOM     27  C   UNL     1      -8.915   2.898 124.642  0.00  0.00    +0.000 C 
BRANCH  27  28
ATOM     28  C   UNL     1      -9.844   1.718 124.314  0.00  0.00    +0.000 C 
BRANCH  28  29
ATOM     29  N   UNL     1      -9.442   0.990 123.124  0.00  0.00    +0.000 NA
ATOM     30  H   UNL     1      -9.969   1.343 122.333  0.00  0.00    +0.000 HD
ATOM     31  H   UNL     1      -9.701   0.010 123.250  0.00  0.00    +0.000 HD
ENDBRANCH  28  29
ENDBRANCH  27  28
ENDBRANCH  26  27
ENDBRANCH  25  26
ENDBRANCH   2  25
TORSDOF 11
ENDMDL
