MODEL 1
REMARK VINA RESULT:      -6.3      0.000      0.000
REMARK  Name = Amobarbital
REMARK  7 active torsions:
REMARK  status: ('A' for Active; 'I' for Inactive)
REMARK    1  A    between atoms: C_1  and  C_2
REMARK    2  A    between atoms: C_2  and  C_3
REMARK    3  A    between atoms: C_3  and  C_4
REMARK    4  A    between atoms: C_4  and  C_5
REMARK    5  A    between atoms: C_5  and  C_6
REMARK    6  A    between atoms: C_6  and  C_7
REMARK    7  A    between atoms: C_6  and  C_8
REMARK                            x       y       z     vdW  Elec       q    Type
REMARK                         _______ _______ _______ _____ _____    ______ ____
ROOT
ATOM      1  C   UNL     1      -9.567   6.274 130.508  0.00  0.00    +0.000 C 
ATOM      2  C   UNL     1     -10.154   5.792 131.821  0.00  0.00    +0.000 C 
ATOM      3  O   UNL     1     -10.598   6.558 132.677  0.00  0.00    +0.000 OA
ATOM      4  N   UNL     1     -10.180   4.448 132.035  0.00  0.00    +0.000 N 
ATOM      5  C   UNL     1      -9.810   3.477 131.160  0.00  0.00    +0.000 C 
ATOM      6  O   UNL     1      -9.946   2.292 131.424  0.00  0.00    +0.000 OA
ATOM      7  N   UNL     1      -9.305   3.886 129.968  0.00  0.00    +0.000 N 
ATOM      8  C   UNL     1      -9.252   5.166 129.514  0.00  0.00    +0.000 C 
ATOM      9  O   UNL     1      -8.955   5.382 128.338  0.00  0.00    +0.000 OA
ATOM     10  H   UNL     1     -10.586   4.141 132.908  0.00  0.00    +0.000 HD
ATOM     11  H   UNL     1      -9.092   3.165 129.293  0.00  0.00    +0.000 HD
ENDROOT
BRANCH   1  13
ATOM     12  C   UNL     1      -7.236   6.325 131.599  0.00  0.00    +0.000 C 
ATOM     13  C   UNL     1      -8.298   7.106 130.836  0.00  0.00    +0.000 C 
ENDBRANCH   1  13
BRANCH   1  14
ATOM     14  C   UNL     1     -10.620   7.170 129.832  0.00  0.00    +0.000 C 
BRANCH  14  15
ATOM     15  C   UNL     1     -11.938   6.414 129.610  0.00  0.00    +0.000 C 
BRANCH  15  16
ATOM     16  C   UNL     1     -13.113   7.350 129.353  0.00  0.00    +0.000 C 
ATOM     17  C   UNL     1     -12.698   8.813 129.518  0.00  0.00    +0.000 C 
ATOM     18  C   UNL     1     -13.628   7.112 127.936  0.00  0.00    +0.000 C 
ENDBRANCH  15  16
ENDBRANCH  14  15
ENDBRANCH   1  14
TORSDOF 4
ENDMDL
MODEL 2
REMARK VINA RESULT:      -6.2      1.836      3.154
REMARK  Name = Amobarbital
REMARK  7 active torsions:
REMARK  status: ('A' for Active; 'I' for Inactive)
REMARK    1  A    between atoms: C_1  and  C_2
REMARK    2  A    between atoms: C_2  and  C_3
REMARK    3  A    between atoms: C_3  and  C_4
REMARK    4  A    between atoms: C_4  and  C_5
REMARK    5  A    between atoms: C_5  and  C_6
REMARK    6  A    between atoms: C_6  and  C_7
REMARK    7  A    between atoms: C_6  and  C_8
REMARK                            x       y       z     vdW  Elec       q    Type
REMARK                         _______ _______ _______ _____ _____    ______ ____
ROOT
ATOM      1  C   UNL     1     -10.436   6.199 130.522  0.00  0.00    +0.000 C 
ATOM      2  C   UNL     1      -8.932   6.013 130.592  0.00  0.00    +0.000 C 
ATOM      3  O   UNL     1      -8.208   6.037 129.597  0.00  0.00    +0.000 OA
ATOM      4  N   UNL     1      -8.386   5.816 131.824  0.00  0.00    +0.000 N 
ATOM      5  C   UNL     1      -9.035   5.849 133.016  0.00  0.00    +0.000 C 
ATOM      6  O   UNL     1      -8.436   5.735 134.075  0.00  0.00    +0.000 OA
ATOM      7  N   UNL     1     -10.379   6.040 132.979  0.00  0.00    +0.000 N 
ATOM      8  C   UNL     1     -11.119   6.328 131.876  0.00  0.00    +0.000 C 
ATOM      9  O   UNL     1     -12.294   6.674 132.006  0.00  0.00    +0.000 OA
ATOM     10  H   UNL     1      -7.382   5.707 131.856  0.00  0.00    +0.000 HD
ATOM     11  H   UNL     1     -10.850   6.130 133.868  0.00  0.00    +0.000 HD
ENDROOT
BRANCH   1  13
ATOM     12  C   UNL     1     -10.903   3.670 130.426  0.00  0.00    +0.000 C 
ATOM     13  C   UNL     1     -11.021   5.011 129.713  0.00  0.00    +0.000 C 
ENDBRANCH   1  13
BRANCH   1  14
ATOM     14  C   UNL     1     -10.705   7.520 129.780  0.00  0.00    +0.000 C 
BRANCH  14  15
ATOM     15  C   UNL     1     -11.288   7.268 128.382  0.00  0.00    +0.000 C 
BRANCH  15  16
ATOM     16  C   UNL     1     -12.589   8.028 128.146  0.00  0.00    +0.000 C 
ATOM     17  C   UNL     1     -13.784   7.075 128.107  0.00  0.00    +0.000 C 
ATOM     18  C   UNL     1     -12.772   9.046 129.268  0.00  0.00    +0.000 C 
ENDBRANCH  15  16
ENDBRANCH  14  15
ENDBRANCH   1  14
TORSDOF 4
ENDMDL
MODEL 3
REMARK VINA RESULT:      -5.9      1.640      3.064
REMARK  Name = Amobarbital
REMARK  7 active torsions:
REMARK  status: ('A' for Active; 'I' for Inactive)
REMARK    1  A    between atoms: C_1  and  C_2
REMARK    2  A    between atoms: C_2  and  C_3
REMARK    3  A    between atoms: C_3  and  C_4
REMARK    4  A    between atoms: C_4  and  C_5
REMARK    5  A    between atoms: C_5  and  C_6
REMARK    6  A    between atoms: C_6  and  C_7
REMARK    7  A    between atoms: C_6  and  C_8
REMARK                            x       y       z     vdW  Elec       q    Type
REMARK                         _______ _______ _______ _____ _____    ______ ____
ROOT
ATOM      1  C   UNL     1      -9.903   5.871 130.436  0.00  0.00    +0.000 C 
ATOM      2  C   UNL     1      -8.896   5.317 129.446  0.00  0.00    +0.000 C 
ATOM      3  O   UNL     1      -9.064   5.358 128.227  0.00  0.00    +0.000 OA
ATOM      4  N   UNL     1      -7.764   4.758 129.956  0.00  0.00    +0.000 N 
ATOM      5  C   UNL     1      -7.395   4.715 131.262  0.00  0.00    +0.000 C 
ATOM      6  O   UNL     1      -6.317   4.256 131.608  0.00  0.00    +0.000 OA
ATOM      7  N   UNL     1      -8.270   5.228 132.164  0.00  0.00    +0.000 N 
ATOM      8  C   UNL     1      -9.420   5.895 131.879  0.00  0.00    +0.000 C 
ATOM      9  O   UNL     1     -10.021   6.483 132.780  0.00  0.00    +0.000 OA
ATOM     10  H   UNL     1      -7.096   4.405 129.284  0.00  0.00    +0.000 HD
ATOM     11  H   UNL     1      -7.967   5.255 133.128  0.00  0.00    +0.000 HD
ENDROOT
BRANCH   1  13
ATOM     12  C   UNL     1     -11.000   3.543 130.494  0.00  0.00    +0.000 C 
ATOM     13  C   UNL     1     -11.206   5.039 130.298  0.00  0.00    +0.000 C 
ENDBRANCH   1  13
BRANCH   1  14
ATOM     14  C   UNL     1     -10.173   7.336 130.051  0.00  0.00    +0.000 C 
BRANCH  14  15
ATOM     15  C   UNL     1     -11.677   7.607 129.904  0.00  0.00    +0.000 C 
BRANCH  15  16
ATOM     16  C   UNL     1     -12.027   8.253 128.568  0.00  0.00    +0.000 C 
ATOM     17  C   UNL     1     -10.802   8.332 127.657  0.00  0.00    +0.000 C 
ATOM     18  C   UNL     1     -13.122   7.428 127.897  0.00  0.00    +0.000 C 
ENDBRANCH  15  16
ENDBRANCH  14  15
ENDBRANCH   1  14
TORSDOF 4
ENDMDL
MODEL 4
REMARK VINA RESULT:      -5.8      8.081     10.260
REMARK  Name = Amobarbital
REMARK  7 active torsions:
REMARK  status: ('A' for Active; 'I' for Inactive)
REMARK    1  A    between atoms: C_1  and  C_2
REMARK    2  A    between atoms: C_2  and  C_3
REMARK    3  A    between atoms: C_3  and  C_4
REMARK    4  A    between atoms: C_4  and  C_5
REMARK    5  A    between atoms: C_5  and  C_6
REMARK    6  A    between atoms: C_6  and  C_7
REMARK    7  A    between atoms: C_6  and  C_8
REMARK                            x       y       z     vdW  Elec       q    Type
REMARK                         _______ _______ _______ _____ _____    ______ ____
ROOT
ATOM      1  C   UNL     1      -8.761  -0.162 123.803  0.00  0.00    +0.000 C 
ATOM      2  C   UNL     1      -7.391   0.482 123.911  0.00  0.00    +0.000 C 
ATOM      3  O   UNL     1      -6.433  -0.071 124.452  0.00  0.00    +0.000 OA
ATOM      4  N   UNL     1      -7.244   1.725 123.376  0.00  0.00    +0.000 N 
ATOM      5  C   UNL     1      -8.174   2.426 122.677  0.00  0.00    +0.000 C 
ATOM      6  O   UNL     1      -7.914   3.507 122.171  0.00  0.00    +0.000 OA
ATOM      7  N   UNL     1      -9.400   1.856 122.546  0.00  0.00    +0.000 N 
ATOM      8  C   UNL     1      -9.749   0.602 122.934  0.00  0.00    +0.000 C 
ATOM      9  O   UNL     1     -10.833   0.135 122.579  0.00  0.00    +0.000 OA
ATOM     10  H   UNL     1      -6.323   2.136 123.444  0.00  0.00    +0.000 HD
ATOM     11  H   UNL     1     -10.070   2.348 121.971  0.00  0.00    +0.000 HD
ENDROOT
BRANCH   1  13
ATOM     12  C   UNL     1      -9.327   0.939 126.060  0.00  0.00    +0.000 C 
ATOM     13  C   UNL     1      -9.310  -0.346 125.242  0.00  0.00    +0.000 C 
ENDBRANCH   1  13
BRANCH   1  14
ATOM     14  C   UNL     1      -8.574  -1.535 123.133  0.00  0.00    +0.000 C 
BRANCH  14  15
ATOM     15  C   UNL     1      -9.305  -2.640 123.910  0.00  0.00    +0.000 C 
BRANCH  15  16
ATOM     16  C   UNL     1      -8.350  -3.679 124.487  0.00  0.00    +0.000 C 
ATOM     17  C   UNL     1      -6.903  -3.370 124.103  0.00  0.00    +0.000 C 
ATOM     18  C   UNL     1      -8.495  -3.687 126.006  0.00  0.00    +0.000 C 
ENDBRANCH  15  16
ENDBRANCH  14  15
ENDBRANCH   1  14
TORSDOF 4
ENDMDL
MODEL 5
REMARK VINA RESULT:      -5.7      2.197      4.799
REMARK  Name = Amobarbital
REMARK  7 active torsions:
REMARK  status: ('A' for Active; 'I' for Inactive)
REMARK    1  A    between atoms: C_1  and  C_2
REMARK    2  A    between atoms: C_2  and  C_3
REMARK    3  A    between atoms: C_3  and  C_4
REMARK    4  A    between atoms: C_4  and  C_5
REMARK    5  A    between atoms: C_5  and  C_6
REMARK    6  A    between atoms: C_6  and  C_7
REMARK    7  A    between atoms: C_6  and  C_8
REMARK                            x       y       z     vdW  Elec       q    Type
REMARK                         _______ _______ _______ _____ _____    ______ ____
ROOT
ATOM      1  C   UNL     1      -9.093   5.687 131.219  0.00  0.00    +0.000 C 
ATOM      2  C   UNL     1     -10.016   5.814 130.021  0.00  0.00    +0.000 C 
ATOM      3  O   UNL     1      -9.663   5.544 128.873  0.00  0.00    +0.000 OA
ATOM      4  N   UNL     1     -11.285   6.246 130.256  0.00  0.00    +0.000 N 
ATOM      5  C   UNL     1     -11.848   6.499 131.466  0.00  0.00    +0.000 C 
ATOM      6  O   UNL     1     -13.024   6.810 131.573  0.00  0.00    +0.000 OA
ATOM      7  N   UNL     1     -11.047   6.366 132.555  0.00  0.00    +0.000 N 
ATOM      8  C   UNL     1      -9.777   5.883 132.564  0.00  0.00    +0.000 C 
ATOM      9  O   UNL     1      -9.231   5.627 133.639  0.00  0.00    +0.000 OA
ATOM     10  H   UNL     1     -11.892   6.314 129.451  0.00  0.00    +0.000 HD
ATOM     11  H   UNL     1     -11.483   6.491 133.458  0.00  0.00    +0.000 HD
ENDROOT
BRANCH   1  13
ATOM     12  C   UNL     1      -6.569   6.144 131.418  0.00  0.00    +0.000 C 
ATOM     13  C   UNL     1      -7.933   6.699 131.030  0.00  0.00    +0.000 C 
ENDBRANCH   1  13
BRANCH   1  14
ATOM     14  C   UNL     1      -8.540   4.250 131.225  0.00  0.00    +0.000 C 
BRANCH  14  15
ATOM     15  C   UNL     1      -9.672   3.215 131.303  0.00  0.00    +0.000 C 
BRANCH  15  16
ATOM     16  C   UNL     1      -9.436   2.172 132.389  0.00  0.00    +0.000 C 
ATOM     17  C   UNL     1      -9.392   0.762 131.798  0.00  0.00    +0.000 C 
ATOM     18  C   UNL     1      -8.116   2.484 133.090  0.00  0.00    +0.000 C 
ENDBRANCH  15  16
ENDBRANCH  14  15
ENDBRANCH   1  14
TORSDOF 4
ENDMDL
MODEL 6
REMARK VINA RESULT:      -5.7      2.149      4.751
REMARK  Name = Amobarbital
REMARK  7 active torsions:
REMARK  status: ('A' for Active; 'I' for Inactive)
REMARK    1  A    between atoms: C_1  and  C_2
REMARK    2  A    between atoms: C_2  and  C_3
REMARK    3  A    between atoms: C_3  and  C_4
REMARK    4  A    between atoms: C_4  and  C_5
REMARK    5  A    between atoms: C_5  and  C_6
REMARK    6  A    between atoms: C_6  and  C_7
REMARK    7  A    between atoms: C_6  and  C_8
REMARK                            x       y       z     vdW  Elec       q    Type
REMARK                         _______ _______ _______ _____ _____    ______ ____
ROOT
ATOM      1  C   UNL     1      -9.270   5.987 130.915  0.00  0.00    +0.000 C 
ATOM      2  C   UNL     1      -9.916   6.134 132.280  0.00  0.00    +0.000 C 
ATOM      3  O   UNL     1      -9.291   6.005 133.333  0.00  0.00    +0.000 OA
ATOM      4  N   UNL     1     -11.246   6.424 132.311  0.00  0.00    +0.000 N 
ATOM      5  C   UNL     1     -12.048   6.680 131.246  0.00  0.00    +0.000 C 
ATOM      6  O   UNL     1     -13.216   7.008 131.388  0.00  0.00    +0.000 OA
ATOM      7  N   UNL     1     -11.484   6.579 130.015  0.00  0.00    +0.000 N 
ATOM      8  C   UNL     1     -10.167   6.373 129.748  0.00  0.00    +0.000 C 
ATOM      9  O   UNL     1      -9.753   6.500 128.595  0.00  0.00    +0.000 OA
ATOM     10  H   UNL     1     -11.659   6.533 133.227  0.00  0.00    +0.000 HD
ATOM     11  H   UNL     1     -12.064   6.834 129.227  0.00  0.00    +0.000 HD
ENDROOT
BRANCH   1  13
ATOM     12  C   UNL     1      -9.912   3.505 130.689  0.00  0.00    +0.000 C 
ATOM     13  C   UNL     1      -8.781   4.520 130.780  0.00  0.00    +0.000 C 
ENDBRANCH   1  13
BRANCH   1  14
ATOM     14  C   UNL     1      -8.068   6.946 130.866  0.00  0.00    +0.000 C 
BRANCH  14  15
ATOM     15  C   UNL     1      -6.740   6.177 130.817  0.00  0.00    +0.000 C 
BRANCH  15  16
ATOM     16  C   UNL     1      -5.773   6.612 131.913  0.00  0.00    +0.000 C 
ATOM     17  C   UNL     1      -5.740   5.595 133.054  0.00  0.00    +0.000 C 
ATOM     18  C   UNL     1      -4.379   6.758 131.306  0.00  0.00    +0.000 C 
ENDBRANCH  15  16
ENDBRANCH  14  15
ENDBRANCH   1  14
TORSDOF 4
ENDMDL
MODEL 7
REMARK VINA RESULT:      -5.6      8.461     10.274
REMARK  Name = Amobarbital
REMARK  7 active torsions:
REMARK  status: ('A' for Active; 'I' for Inactive)
REMARK    1  A    between atoms: C_1  and  C_2
REMARK    2  A    between atoms: C_2  and  C_3
REMARK    3  A    between atoms: C_3  and  C_4
REMARK    4  A    between atoms: C_4  and  C_5
REMARK    5  A    between atoms: C_5  and  C_6
REMARK    6  A    between atoms: C_6  and  C_7
REMARK    7  A    between atoms: C_6  and  C_8
REMARK                            x       y       z     vdW  Elec       q    Type
REMARK                         _______ _______ _______ _____ _____    ______ ____
ROOT
ATOM      1  C   UNL     1      -8.030  -1.957 125.693  0.00  0.00    +0.000 C 
ATOM      2  C   UNL     1      -8.909  -0.777 125.324  0.00  0.00    +0.000 C 
ATOM      3  O   UNL     1      -9.996  -0.558 125.859  0.00  0.00    +0.000 OA
ATOM      4  N   UNL     1      -8.449   0.063 124.355  0.00  0.00    +0.000 N 
ATOM      5  C   UNL     1      -7.242   0.006 123.736  0.00  0.00    +0.000 C 
ATOM      6  O   UNL     1      -6.894   0.857 122.931  0.00  0.00    +0.000 OA
ATOM      7  N   UNL     1      -6.428  -1.028 124.070  0.00  0.00    +0.000 N 
ATOM      8  C   UNL     1      -6.649  -1.939 125.055  0.00  0.00    +0.000 C 
ATOM      9  O   UNL     1      -5.744  -2.704 125.389  0.00  0.00    +0.000 OA
ATOM     10  H   UNL     1      -9.039   0.852 124.129  0.00  0.00    +0.000 HD
ATOM     11  H   UNL     1      -5.506  -1.033 123.658  0.00  0.00    +0.000 HD
ENDROOT
BRANCH   1  13
ATOM     12  C   UNL     1      -9.211  -3.319 123.857  0.00  0.00    +0.000 C 
ATOM     13  C   UNL     1      -8.800  -3.252 125.321  0.00  0.00    +0.000 C 
ENDBRANCH   1  13
BRANCH   1  14
ATOM     14  C   UNL     1      -7.799  -1.903 127.214  0.00  0.00    +0.000 C 
BRANCH  14  15
ATOM     15  C   UNL     1      -8.348  -3.159 127.908  0.00  0.00    +0.000 C 
BRANCH  15  16
ATOM     16  C   UNL     1      -8.091  -3.155 129.411  0.00  0.00    +0.000 C 
ATOM     17  C   UNL     1      -6.787  -3.878 129.749  0.00  0.00    +0.000 C 
ATOM     18  C   UNL     1      -8.025  -1.708 129.893  0.00  0.00    +0.000 C 
ENDBRANCH  15  16
ENDBRANCH  14  15
ENDBRANCH   1  14
TORSDOF 4
ENDMDL
MODEL 8
REMARK VINA RESULT:      -5.6      1.647      2.144
REMARK  Name = Amobarbital
REMARK  7 active torsions:
REMARK  status: ('A' for Active; 'I' for Inactive)
REMARK    1  A    between atoms: C_1  and  C_2
REMARK    2  A    between atoms: C_2  and  C_3
REMARK    3  A    between atoms: C_3  and  C_4
REMARK    4  A    between atoms: C_4  and  C_5
REMARK    5  A    between atoms: C_5  and  C_6
REMARK    6  A    between atoms: C_6  and  C_7
REMARK    7  A    between atoms: C_6  and  C_8
REMARK                            x       y       z     vdW  Elec       q    Type
REMARK                         _______ _______ _______ _____ _____    ______ ____
ROOT
ATOM      1  C   UNL     1      -9.898   5.412 130.622  0.00  0.00    +0.000 C 
ATOM      2  C   UNL     1      -8.913   5.664 131.748  0.00  0.00    +0.000 C 
ATOM      3  O   UNL     1      -8.347   6.745 131.913  0.00  0.00    +0.000 OA
ATOM      4  N   UNL     1      -8.663   4.631 132.599  0.00  0.00    +0.000 N 
ATOM      5  C   UNL     1      -9.267   3.415 132.602  0.00  0.00    +0.000 C 
ATOM      6  O   UNL     1      -9.024   2.581 133.461  0.00  0.00    +0.000 OA
ATOM      7  N   UNL     1     -10.172   3.177 131.618  0.00  0.00    +0.000 N 
ATOM      8  C   UNL     1     -10.627   4.079 130.709  0.00  0.00    +0.000 C 
ATOM      9  O   UNL     1     -11.592   3.793 129.999  0.00  0.00    +0.000 OA
ATOM     10  H   UNL     1      -8.015   4.818 133.352  0.00  0.00    +0.000 HD
ATOM     11  H   UNL     1     -10.668   2.297 131.659  0.00  0.00    +0.000 HD
ENDROOT
BRANCH   1  13
ATOM     12  C   UNL     1      -8.121   4.421 129.047  0.00  0.00    +0.000 C 
ATOM     13  C   UNL     1      -9.127   5.540 129.283  0.00  0.00    +0.000 C 
ENDBRANCH   1  13
BRANCH   1  14
ATOM     14  C   UNL     1     -10.985   6.500 130.707  0.00  0.00    +0.000 C 
BRANCH  14  15
ATOM     15  C   UNL     1     -10.793   7.568 129.622  0.00  0.00    +0.000 C 
BRANCH  15  16
ATOM     16  C   UNL     1     -12.100   7.942 128.932  0.00  0.00    +0.000 C 
ATOM     17  C   UNL     1     -13.053   6.748 128.872  0.00  0.00    +0.000 C 
ATOM     18  C   UNL     1     -12.750   9.089 129.703  0.00  0.00    +0.000 C 
ENDBRANCH  15  16
ENDBRANCH  14  15
ENDBRANCH   1  14
TORSDOF 4
ENDMDL
MODEL 9
REMARK VINA RESULT:      -5.5      8.175     10.430
REMARK  Name = Amobarbital
REMARK  7 active torsions:
REMARK  status: ('A' for Active; 'I' for Inactive)
REMARK    1  A    between atoms: C_1  and  C_2
REMARK    2  A    between atoms: C_2  and  C_3
REMARK    3  A    between atoms: C_3  and  C_4
REMARK    4  A    between atoms: C_4  and  C_5
REMARK    5  A    between atoms: C_5  and  C_6
REMARK    6  A    between atoms: C_6  and  C_7
REMARK    7  A    between atoms: C_6  and  C_8
REMARK                            x       y       z     vdW  Elec       q    Type
REMARK                         _______ _______ _______ _____ _____    ______ ____
ROOT
ATOM      1  C   UNL     1      -7.552  -1.553 125.693  0.00  0.00    +0.000 C 
ATOM      2  C   UNL     1      -6.640  -0.341 125.722  0.00  0.00    +0.000 C 
ATOM      3  O   UNL     1      -5.417  -0.421 125.601  0.00  0.00    +0.000 OA
ATOM      4  N   UNL     1      -7.226   0.876 125.889  0.00  0.00    +0.000 N 
ATOM      5  C   UNL     1      -8.558   1.136 125.951  0.00  0.00    +0.000 C 
ATOM      6  O   UNL     1      -8.985   2.278 126.026  0.00  0.00    +0.000 OA
ATOM      7  N   UNL     1      -9.394   0.067 125.901  0.00  0.00    +0.000 N 
ATOM      8  C   UNL     1      -9.038  -1.223 125.667  0.00  0.00    +0.000 C 
ATOM      9  O   UNL     1      -9.909  -2.065 125.449  0.00  0.00    +0.000 OA
ATOM     10  H   UNL     1      -6.607   1.675 125.893  0.00  0.00    +0.000 HD
ATOM     11  H   UNL     1     -10.385   0.266 125.881  0.00  0.00    +0.000 HD
ENDROOT
BRANCH   1  13
ATOM     12  C   UNL     1      -7.591  -1.820 128.252  0.00  0.00    +0.000 C 
ATOM     13  C   UNL     1      -7.199  -2.439 126.917  0.00  0.00    +0.000 C 
ENDBRANCH   1  13
BRANCH   1  14
ATOM     14  C   UNL     1      -7.261  -2.320 124.390  0.00  0.00    +0.000 C 
BRANCH  14  15
ATOM     15  C   UNL     1      -6.395  -3.560 124.653  0.00  0.00    +0.000 C 
BRANCH  15  16
ATOM     16  C   UNL     1      -5.023  -3.464 123.995  0.00  0.00    +0.000 C 
ATOM     17  C   UNL     1      -4.494  -4.848 123.620  0.00  0.00    +0.000 C 
ATOM     18  C   UNL     1      -5.138  -2.594 122.746  0.00  0.00    +0.000 C 
ENDBRANCH  15  16
ENDBRANCH  14  15
ENDBRANCH   1  14
TORSDOF 4
ENDMDL
