MODEL 1
REMARK VINA RESULT:      -7.3      0.000      0.000
REMARK  Name = Amodiaquine
REMARK  9 active torsions:
REMARK  status: ('A' for Active; 'I' for Inactive)
REMARK    1  A    between atoms: C_1  and  C_2
REMARK    2  A    between atoms: C_2  and  N_3
REMARK    3  A    between atoms: N_3  and  C_4
REMARK    4  A    between atoms: N_3  and  C_6
REMARK    5  A    between atoms: C_4  and  C_5
REMARK    6  A    between atoms: C_6  and  C_7
REMARK    7  A    between atoms: C_8  and  O_9
REMARK    8  A    between atoms: C_12  and  N_13
REMARK    9  A    between atoms: N_13  and  C_14
REMARK                            x       y       z     vdW  Elec       q    Type
REMARK                         _______ _______ _______ _____ _____    ______ ____
ROOT
ATOM      1  C   UNL     1      -9.076   5.779 131.154  0.00  0.00    +0.000 A 
ATOM      2  C   UNL     1      -9.470   5.668 132.492  0.00  0.00    +0.000 A 
ATOM      3  C   UNL     1      -8.562   5.812 133.534  0.00  0.00    +0.000 A 
ATOM      4  C   UNL     1      -7.200   5.834 133.269  0.00  0.00    +0.000 A 
ATOM      5  C   UNL     1      -6.743   5.689 131.958  0.00  0.00    +0.000 A 
ATOM      6  C   UNL     1      -7.695   5.692 130.913  0.00  0.00    +0.000 A 
ENDROOT
BRANCH   2   7
ATOM      7  O   UNL     1     -10.760   5.450 132.890  0.00  0.00    +0.000 OA
ATOM      8  H   UNL     1     -10.801   4.574 133.303  0.00  0.00    +0.000 HD
ENDBRANCH   2   7
BRANCH   5   9
ATOM      9  N   UNL     1      -5.346   5.694 131.716  0.00  0.00    +0.000 N 
ATOM     10  H   UNL     1      -4.868   4.884 132.095  0.00  0.00    +0.000 HD
BRANCH   9  11
ATOM     11  C   UNL     1      -4.710   6.270 130.587  0.00  0.00    +0.000 A 
ATOM     12  C   UNL     1      -4.042   5.454 129.646  0.00  0.00    +0.000 A 
ATOM     13  C   UNL     1      -4.090   4.045 129.684  0.00  0.00    +0.000 A 
ATOM     14  C   UNL     1      -3.374   3.271 128.785  0.00  0.00    +0.000 A 
ATOM     15  C   UNL     1      -2.632   3.910 127.801  0.00  0.00    +0.000 A 
ATOM     16 CL   UNL     1      -1.757   2.964 126.663  0.00  0.00    +0.000 Cl
ATOM     17  C   UNL     1      -2.596   5.302 127.732  0.00  0.00    +0.000 A 
ATOM     18  C   UNL     1      -3.281   6.096 128.639  0.00  0.00    +0.000 A 
ATOM     19  N   UNL     1      -3.191   7.431 128.552  0.00  0.00    +0.000 NA
ATOM     20  C   UNL     1      -3.847   8.181 129.464  0.00  0.00    +0.000 A 
ATOM     21  C   UNL     1      -4.613   7.655 130.489  0.00  0.00    +0.000 A 
ENDBRANCH   9  11
ENDBRANCH   5   9
BRANCH   1  22
ATOM     22  C   UNL     1     -10.033   6.043 129.985  0.00  0.00    +0.000 C 
BRANCH  22  23
ATOM     23  N   UNL     1     -10.711   7.395 129.971  0.00  0.00    +0.000 NA
BRANCH  23  25
ATOM     24  C   UNL     1     -11.554   8.399 127.816  0.00  0.00    +0.000 C 
ATOM     25  C   UNL     1     -10.361   8.098 128.718  0.00  0.00    +0.000 C 
ENDBRANCH  23  25
BRANCH  23  26
ATOM     26  C   UNL     1     -12.166   7.258 130.142  0.00  0.00    +0.000 C 
ATOM     27  C   UNL     1     -12.925   7.645 131.397  0.00  0.00    +0.000 C 
ENDBRANCH  23  26
ENDBRANCH  22  23
ENDBRANCH   1  22
TORSDOF 7
ENDMDL
MODEL 2
REMARK VINA RESULT:      -7.3      8.633     10.317
REMARK  Name = Amodiaquine
REMARK  9 active torsions:
REMARK  status: ('A' for Active; 'I' for Inactive)
REMARK    1  A    between atoms: C_1  and  C_2
REMARK    2  A    between atoms: C_2  and  N_3
REMARK    3  A    between atoms: N_3  and  C_4
REMARK    4  A    between atoms: N_3  and  C_6
REMARK    5  A    between atoms: C_4  and  C_5
REMARK    6  A    between atoms: C_6  and  C_7
REMARK    7  A    between atoms: C_8  and  O_9
REMARK    8  A    between atoms: C_12  and  N_13
REMARK    9  A    between atoms: N_13  and  C_14
REMARK                            x       y       z     vdW  Elec       q    Type
REMARK                         _______ _______ _______ _____ _____    ______ ____
ROOT
ATOM      1  C   UNL     1      -8.398  -1.482 126.281  0.00  0.00    +0.000 A 
ATOM      2  C   UNL     1      -9.140  -2.661 126.145  0.00  0.00    +0.000 A 
ATOM      3  C   UNL     1      -9.194  -3.610 127.159  0.00  0.00    +0.000 A 
ATOM      4  C   UNL     1      -8.325  -3.523 128.237  0.00  0.00    +0.000 A 
ATOM      5  C   UNL     1      -7.382  -2.495 128.291  0.00  0.00    +0.000 A 
ATOM      6  C   UNL     1      -7.454  -1.470 127.320  0.00  0.00    +0.000 A 
ENDROOT
BRANCH   2   7
ATOM      7  O   UNL     1      -9.891  -2.964 125.043  0.00  0.00    +0.000 OA
ATOM      8  H   UNL     1      -9.765  -2.256 124.392  0.00  0.00    +0.000 HD
ENDBRANCH   2   7
BRANCH   5   9
ATOM      9  N   UNL     1      -6.493  -2.440 129.393  0.00  0.00    +0.000 N 
ATOM     10  H   UNL     1      -5.566  -2.109 129.147  0.00  0.00    +0.000 HD
BRANCH   9  11
ATOM     11  C   UNL     1      -6.864  -2.185 130.738  0.00  0.00    +0.000 A 
ATOM     12  C   UNL     1      -6.544  -3.109 131.758  0.00  0.00    +0.000 A 
ATOM     13  C   UNL     1      -5.729  -4.239 131.541  0.00  0.00    +0.000 A 
ATOM     14  C   UNL     1      -5.484  -5.161 132.545  0.00  0.00    +0.000 A 
ATOM     15  C   UNL     1      -6.023  -4.931 133.804  0.00  0.00    +0.000 A 
ATOM     16 CL   UNL     1      -5.709  -6.053 135.068  0.00  0.00    +0.000 Cl
ATOM     17  C   UNL     1      -6.807  -3.803 134.044  0.00  0.00    +0.000 A 
ATOM     18  C   UNL     1      -7.089  -2.884 133.046  0.00  0.00    +0.000 A 
ATOM     19  N   UNL     1      -7.875  -1.831 133.316  0.00  0.00    +0.000 NA
ATOM     20  C   UNL     1      -8.155  -0.964 132.319  0.00  0.00    +0.000 A 
ATOM     21  C   UNL     1      -7.678  -1.094 131.027  0.00  0.00    +0.000 A 
ENDBRANCH   9  11
ENDBRANCH   5   9
BRANCH   1  22
ATOM     22  C   UNL     1      -8.597  -0.225 125.425  0.00  0.00    +0.000 C 
BRANCH  22  23
ATOM     23  N   UNL     1      -8.421  -0.400 123.933  0.00  0.00    +0.000 NA
BRANCH  23  25
ATOM     24  C   UNL     1     -10.258   0.503 122.460  0.00  0.00    +0.000 C 
ATOM     25  C   UNL     1      -8.976   0.781 123.239  0.00  0.00    +0.000 C 
ENDBRANCH  23  25
BRANCH  23  26
ATOM     26  C   UNL     1      -7.008  -0.630 123.592  0.00  0.00    +0.000 C 
ATOM     27  C   UNL     1      -6.501  -1.799 122.768  0.00  0.00    +0.000 C 
ENDBRANCH  23  26
ENDBRANCH  22  23
ENDBRANCH   1  22
TORSDOF 7
ENDMDL
MODEL 3
REMARK VINA RESULT:      -7.3      1.244      2.000
REMARK  Name = Amodiaquine
REMARK  9 active torsions:
REMARK  status: ('A' for Active; 'I' for Inactive)
REMARK    1  A    between atoms: C_1  and  C_2
REMARK    2  A    between atoms: C_2  and  N_3
REMARK    3  A    between atoms: N_3  and  C_4
REMARK    4  A    between atoms: N_3  and  C_6
REMARK    5  A    between atoms: C_4  and  C_5
REMARK    6  A    between atoms: C_6  and  C_7
REMARK    7  A    between atoms: C_8  and  O_9
REMARK    8  A    between atoms: C_12  and  N_13
REMARK    9  A    between atoms: N_13  and  C_14
REMARK                            x       y       z     vdW  Elec       q    Type
REMARK                         _______ _______ _______ _____ _____    ______ ____
ROOT
ATOM      1  C   UNL     1      -9.643   5.961 130.406  0.00  0.00    +0.000 A 
ATOM      2  C   UNL     1     -10.103   4.641 130.465  0.00  0.00    +0.000 A 
ATOM      3  C   UNL     1      -9.326   3.620 130.998  0.00  0.00    +0.000 A 
ATOM      4  C   UNL     1      -7.982   3.840 131.267  0.00  0.00    +0.000 A 
ATOM      5  C   UNL     1      -7.409   5.081 130.982  0.00  0.00    +0.000 A 
ATOM      6  C   UNL     1      -8.260   6.135 130.580  0.00  0.00    +0.000 A 
ENDROOT
BRANCH   2   7
ATOM      7  O   UNL     1     -11.346   4.250 130.049  0.00  0.00    +0.000 OA
ATOM      8  H   UNL     1     -12.000   4.642 130.649  0.00  0.00    +0.000 HD
ENDBRANCH   2   7
BRANCH   5   9
ATOM      9  N   UNL     1      -6.030   5.274 131.247  0.00  0.00    +0.000 N 
ATOM     10  H   UNL     1      -5.617   4.530 131.801  0.00  0.00    +0.000 HD
BRANCH   9  11
ATOM     11  C   UNL     1      -5.114   5.941 130.394  0.00  0.00    +0.000 A 
ATOM     12  C   UNL     1      -4.302   5.207 129.500  0.00  0.00    +0.000 A 
ATOM     13  C   UNL     1      -4.448   3.820 129.294  0.00  0.00    +0.000 A 
ATOM     14  C   UNL     1      -3.596   3.117 128.458  0.00  0.00    +0.000 A 
ATOM     15  C   UNL     1      -2.607   3.814 127.779  0.00  0.00    +0.000 A 
ATOM     16 CL   UNL     1      -1.557   2.961 126.719  0.00  0.00    +0.000 Cl
ATOM     17  C   UNL     1      -2.466   5.191 127.949  0.00  0.00    +0.000 A 
ATOM     18  C   UNL     1      -3.288   5.909 128.802  0.00  0.00    +0.000 A 
ATOM     19  N   UNL     1      -3.095   7.227 128.958  0.00  0.00    +0.000 NA
ATOM     20  C   UNL     1      -3.893   7.899 129.815  0.00  0.00    +0.000 A 
ATOM     21  C   UNL     1      -4.907   7.309 130.548  0.00  0.00    +0.000 A 
ENDBRANCH   9  11
ENDBRANCH   5   9
BRANCH   1  22
ATOM     22  C   UNL     1     -10.544   7.189 130.229  0.00  0.00    +0.000 C 
BRANCH  22  23
ATOM     23  N   UNL     1     -11.519   7.139 129.074  0.00  0.00    +0.000 NA
BRANCH  23  25
ATOM     24  C   UNL     1     -13.018   7.421 131.084  0.00  0.00    +0.000 C 
ATOM     25  C   UNL     1     -12.870   7.484 129.566  0.00  0.00    +0.000 C 
ENDBRANCH  23  25
BRANCH  23  26
ATOM     26  C   UNL     1     -11.088   8.022 127.978  0.00  0.00    +0.000 C 
ATOM     27  C   UNL     1     -11.032   7.615 126.517  0.00  0.00    +0.000 C 
ENDBRANCH  23  26
ENDBRANCH  22  23
ENDBRANCH   1  22
TORSDOF 7
ENDMDL
MODEL 4
REMARK VINA RESULT:      -7.1      8.876     10.122
REMARK  Name = Amodiaquine
REMARK  9 active torsions:
REMARK  status: ('A' for Active; 'I' for Inactive)
REMARK    1  A    between atoms: C_1  and  C_2
REMARK    2  A    between atoms: C_2  and  N_3
REMARK    3  A    between atoms: N_3  and  C_4
REMARK    4  A    between atoms: N_3  and  C_6
REMARK    5  A    between atoms: C_4  and  C_5
REMARK    6  A    between atoms: C_6  and  C_7
REMARK    7  A    between atoms: C_8  and  O_9
REMARK    8  A    between atoms: C_12  and  N_13
REMARK    9  A    between atoms: N_13  and  C_14
REMARK                            x       y       z     vdW  Elec       q    Type
REMARK                         _______ _______ _______ _____ _____    ______ ____
ROOT
ATOM      1  C   UNL     1      -8.734  -1.328 126.095  0.00  0.00    +0.000 A 
ATOM      2  C   UNL     1      -9.220  -2.632 125.948  0.00  0.00    +0.000 A 
ATOM      3  C   UNL     1      -9.139  -3.562 126.977  0.00  0.00    +0.000 A 
ATOM      4  C   UNL     1      -8.361  -3.293 128.095  0.00  0.00    +0.000 A 
ATOM      5  C   UNL     1      -7.645  -2.098 128.174  0.00  0.00    +0.000 A 
ATOM      6  C   UNL     1      -7.867  -1.118 127.179  0.00  0.00    +0.000 A 
ENDROOT
BRANCH   2   7
ATOM      7  O   UNL     1      -9.837  -3.091 124.817  0.00  0.00    +0.000 OA
ATOM      8  H   UNL     1      -9.274  -2.871 124.058  0.00  0.00    +0.000 HD
ENDBRANCH   2   7
BRANCH   5   9
ATOM      9  N   UNL     1      -6.843  -1.855 129.317  0.00  0.00    +0.000 N 
ATOM     10  H   UNL     1      -7.366  -1.496 130.108  0.00  0.00    +0.000 HD
BRANCH   9  11
ATOM     11  C   UNL     1      -5.676  -2.578 129.671  0.00  0.00    +0.000 A 
ATOM     12  C   UNL     1      -5.594  -3.243 130.915  0.00  0.00    +0.000 A 
ATOM     13  C   UNL     1      -6.688  -3.354 131.798  0.00  0.00    +0.000 A 
ATOM     14  C   UNL     1      -6.560  -3.957 133.039  0.00  0.00    +0.000 A 
ATOM     15  C   UNL     1      -5.333  -4.500 133.391  0.00  0.00    +0.000 A 
ATOM     16 CL   UNL     1      -5.164  -5.273 134.917  0.00  0.00    +0.000 Cl
ATOM     17  C   UNL     1      -4.247  -4.424 132.518  0.00  0.00    +0.000 A 
ATOM     18  C   UNL     1      -4.345  -3.800 131.285  0.00  0.00    +0.000 A 
ATOM     19  N   UNL     1      -3.266  -3.723 130.493  0.00  0.00    +0.000 NA
ATOM     20  C   UNL     1      -3.381  -3.087 129.307  0.00  0.00    +0.000 A 
ATOM     21  C   UNL     1      -4.551  -2.505 128.854  0.00  0.00    +0.000 A 
ENDBRANCH   9  11
ENDBRANCH   5   9
BRANCH   1  22
ATOM     22  C   UNL     1      -9.134  -0.146 125.205  0.00  0.00    +0.000 C 
BRANCH  22  23
ATOM     23  N   UNL     1      -8.973  -0.350 123.714  0.00  0.00    +0.000 NA
BRANCH  23  25
ATOM     24  C   UNL     1      -9.251   2.153 123.567  0.00  0.00    +0.000 C 
ATOM     25  C   UNL     1      -9.602   0.781 123.000  0.00  0.00    +0.000 C 
ENDBRANCH  23  25
BRANCH  23  26
ATOM     26  C   UNL     1      -7.555  -0.512 123.353  0.00  0.00    +0.000 C 
ATOM     27  C   UNL     1      -6.957  -1.776 122.764  0.00  0.00    +0.000 C 
ENDBRANCH  23  26
ENDBRANCH  22  23
ENDBRANCH   1  22
TORSDOF 7
ENDMDL
MODEL 5
REMARK VINA RESULT:      -6.9      8.361     10.246
REMARK  Name = Amodiaquine
REMARK  9 active torsions:
REMARK  status: ('A' for Active; 'I' for Inactive)
REMARK    1  A    between atoms: C_1  and  C_2
REMARK    2  A    between atoms: C_2  and  N_3
REMARK    3  A    between atoms: N_3  and  C_4
REMARK    4  A    between atoms: N_3  and  C_6
REMARK    5  A    between atoms: C_4  and  C_5
REMARK    6  A    between atoms: C_6  and  C_7
REMARK    7  A    between atoms: C_8  and  O_9
REMARK    8  A    between atoms: C_12  and  N_13
REMARK    9  A    between atoms: N_13  and  C_14
REMARK                            x       y       z     vdW  Elec       q    Type
REMARK                         _______ _______ _______ _____ _____    ______ ____
ROOT
ATOM      1  C   UNL     1      -6.465   3.545 122.023  0.00  0.00    +0.000 A 
ATOM      2  C   UNL     1      -5.562   4.068 122.955  0.00  0.00    +0.000 A 
ATOM      3  C   UNL     1      -5.606   3.707 124.296  0.00  0.00    +0.000 A 
ATOM      4  C   UNL     1      -6.695   3.000 124.788  0.00  0.00    +0.000 A 
ATOM      5  C   UNL     1      -7.754   2.673 123.940  0.00  0.00    +0.000 A 
ATOM      6  C   UNL     1      -7.607   2.928 122.557  0.00  0.00    +0.000 A 
ENDROOT
BRANCH   2   7
ATOM      7  O   UNL     1      -4.554   4.934 122.634  0.00  0.00    +0.000 OA
ATOM      8  H   UNL     1      -3.734   4.598 123.028  0.00  0.00    +0.000 HD
ENDBRANCH   2   7
BRANCH   5   9
ATOM      9  N   UNL     1      -8.863   1.969 124.471  0.00  0.00    +0.000 N 
ATOM     10  H   UNL     1      -9.715   2.520 124.499  0.00  0.00    +0.000 HD
BRANCH   9  11
ATOM     11  C   UNL     1      -9.078   0.571 124.364  0.00  0.00    +0.000 A 
ATOM     12  C   UNL     1      -8.743  -0.290 125.432  0.00  0.00    +0.000 A 
ATOM     13  C   UNL     1      -8.324   0.180 126.694  0.00  0.00    +0.000 A 
ATOM     14  C   UNL     1      -7.941  -0.689 127.702  0.00  0.00    +0.000 A 
ATOM     15  C   UNL     1      -8.019  -2.055 127.467  0.00  0.00    +0.000 A 
ATOM     16 CL   UNL     1      -7.571  -3.147 128.716  0.00  0.00    +0.000 Cl
ATOM     17  C   UNL     1      -8.458  -2.538 126.235  0.00  0.00    +0.000 A 
ATOM     18  C   UNL     1      -8.817  -1.687 125.203  0.00  0.00    +0.000 A 
ATOM     19  N   UNL     1      -9.203  -2.197 124.024  0.00  0.00    +0.000 NA
ATOM     20  C   UNL     1      -9.523  -1.345 123.027  0.00  0.00    +0.000 A 
ATOM     21  C   UNL     1      -9.480   0.032 123.145  0.00  0.00    +0.000 A 
ENDBRANCH   9  11
ENDBRANCH   5   9
BRANCH   1  22
ATOM     22  C   UNL     1      -6.250   3.554 120.504  0.00  0.00    +0.000 C 
BRANCH  22  23
ATOM     23  N   UNL     1      -6.792   4.755 119.762  0.00  0.00    +0.000 NA
BRANCH  23  25
ATOM     24  C   UNL     1      -5.888   6.077 117.813  0.00  0.00    +0.000 C 
ATOM     25  C   UNL     1      -5.663   5.543 119.224  0.00  0.00    +0.000 C 
ENDBRANCH  23  25
BRANCH  23  26
ATOM     26  C   UNL     1      -7.733   4.344 118.707  0.00  0.00    +0.000 C 
ATOM     27  C   UNL     1      -9.236   4.241 118.887  0.00  0.00    +0.000 C 
ENDBRANCH  23  26
ENDBRANCH  22  23
ENDBRANCH   1  22
TORSDOF 7
ENDMDL
MODEL 6
REMARK VINA RESULT:      -6.8      4.791      6.935
REMARK  Name = Amodiaquine
REMARK  9 active torsions:
REMARK  status: ('A' for Active; 'I' for Inactive)
REMARK    1  A    between atoms: C_1  and  C_2
REMARK    2  A    between atoms: C_2  and  N_3
REMARK    3  A    between atoms: N_3  and  C_4
REMARK    4  A    between atoms: N_3  and  C_6
REMARK    5  A    between atoms: C_4  and  C_5
REMARK    6  A    between atoms: C_6  and  C_7
REMARK    7  A    between atoms: C_8  and  O_9
REMARK    8  A    between atoms: C_12  and  N_13
REMARK    9  A    between atoms: N_13  and  C_14
REMARK                            x       y       z     vdW  Elec       q    Type
REMARK                         _______ _______ _______ _____ _____    ______ ____
ROOT
ATOM      1  C   UNL     1      -8.318   1.070 129.621  0.00  0.00    +0.000 A 
ATOM      2  C   UNL     1      -8.291   0.055 130.583  0.00  0.00    +0.000 A 
ATOM      3  C   UNL     1      -9.014   0.150 131.766  0.00  0.00    +0.000 A 
ATOM      4  C   UNL     1      -9.593   1.359 132.129  0.00  0.00    +0.000 A 
ATOM      5  C   UNL     1      -9.430   2.481 131.315  0.00  0.00    +0.000 A 
ATOM      6  C   UNL     1      -8.815   2.310 130.054  0.00  0.00    +0.000 A 
ENDROOT
BRANCH   2   7
ATOM      7  O   UNL     1      -7.596  -1.114 130.436  0.00  0.00    +0.000 OA
ATOM      8  H   UNL     1      -6.802  -0.926 129.912  0.00  0.00    +0.000 HD
ENDBRANCH   2   7
BRANCH   5   9
ATOM      9  N   UNL     1     -10.015   3.708 131.717  0.00  0.00    +0.000 N 
ATOM     10  H   UNL     1     -10.462   3.663 132.627  0.00  0.00    +0.000 HD
BRANCH   9  11
ATOM     11  C   UNL     1      -9.544   4.998 131.364  0.00  0.00    +0.000 A 
ATOM     12  C   UNL     1     -10.323   5.848 130.548  0.00  0.00    +0.000 A 
ATOM     13  C   UNL     1     -11.645   5.540 130.163  0.00  0.00    +0.000 A 
ATOM     14  C   UNL     1     -12.362   6.363 129.310  0.00  0.00    +0.000 A 
ATOM     15  C   UNL     1     -11.771   7.538 128.866  0.00  0.00    +0.000 A 
ATOM     16 CL   UNL     1     -12.656   8.582 127.827  0.00  0.00    +0.000 Cl
ATOM     17  C   UNL     1     -10.475   7.871 129.259  0.00  0.00    +0.000 A 
ATOM     18  C   UNL     1      -9.728   7.049 130.088  0.00  0.00    +0.000 A 
ATOM     19  N   UNL     1      -8.475   7.395 130.413  0.00  0.00    +0.000 NA
ATOM     20  C   UNL     1      -7.760   6.564 131.201  0.00  0.00    +0.000 A 
ATOM     21  C   UNL     1      -8.244   5.367 131.699  0.00  0.00    +0.000 A 
ENDBRANCH   9  11
ENDBRANCH   5   9
BRANCH   1  22
ATOM     22  C   UNL     1      -7.907   0.890 128.155  0.00  0.00    +0.000 C 
BRANCH  22  23
ATOM     23  N   UNL     1      -8.581   1.803 127.156  0.00  0.00    +0.000 NA
BRANCH  23  25
ATOM     24  C   UNL     1      -7.763   4.181 126.955  0.00  0.00    +0.000 C 
ATOM     25  C   UNL     1      -7.573   2.716 126.576  0.00  0.00    +0.000 C 
ENDBRANCH  23  25
BRANCH  23  26
ATOM     26  C   UNL     1      -9.286   1.028 126.122  0.00  0.00    +0.000 C 
ATOM     27  C   UNL     1      -9.583   1.532 124.722  0.00  0.00    +0.000 C 
ENDBRANCH  23  26
ENDBRANCH  22  23
ENDBRANCH   1  22
TORSDOF 7
ENDMDL
MODEL 7
REMARK VINA RESULT:      -6.8      7.021      9.510
REMARK  Name = Amodiaquine
REMARK  9 active torsions:
REMARK  status: ('A' for Active; 'I' for Inactive)
REMARK    1  A    between atoms: C_1  and  C_2
REMARK    2  A    between atoms: C_2  and  N_3
REMARK    3  A    between atoms: N_3  and  C_4
REMARK    4  A    between atoms: N_3  and  C_6
REMARK    5  A    between atoms: C_4  and  C_5
REMARK    6  A    between atoms: C_6  and  C_7
REMARK    7  A    between atoms: C_8  and  O_9
REMARK    8  A    between atoms: C_12  and  N_13
REMARK    9  A    between atoms: N_13  and  C_14
REMARK                            x       y       z     vdW  Elec       q    Type
REMARK                         _______ _______ _______ _____ _____    ______ ____
ROOT
ATOM      1  C   UNL     1      -6.286   3.479 125.365  0.00  0.00    +0.000 A 
ATOM      2  C   UNL     1      -7.507   4.101 125.087  0.00  0.00    +0.000 A 
ATOM      3  C   UNL     1      -8.604   3.383 124.626  0.00  0.00    +0.000 A 
ATOM      4  C   UNL     1      -8.446   2.070 124.205  0.00  0.00    +0.000 A 
ATOM      5  C   UNL     1      -7.181   1.480 124.225  0.00  0.00    +0.000 A 
ATOM      6  C   UNL     1      -6.121   2.189 124.834  0.00  0.00    +0.000 A 
ENDROOT
BRANCH   2   7
ATOM      7  O   UNL     1      -7.741   5.436 125.273  0.00  0.00    +0.000 OA
ATOM      8  H   UNL     1      -7.023   5.792 125.819  0.00  0.00    +0.000 HD
ENDBRANCH   2   7
BRANCH   5   9
ATOM      9  N   UNL     1      -7.042   0.144 123.772  0.00  0.00    +0.000 N 
ATOM     10  H   UNL     1      -6.076  -0.152 123.680  0.00  0.00    +0.000 HD
BRANCH   9  11
ATOM     11  C   UNL     1      -7.952  -0.912 124.032  0.00  0.00    +0.000 A 
ATOM     12  C   UNL     1      -8.038  -1.483 125.322  0.00  0.00    +0.000 A 
ATOM     13  C   UNL     1      -7.354  -0.960 126.439  0.00  0.00    +0.000 A 
ATOM     14  C   UNL     1      -7.408  -1.579 127.677  0.00  0.00    +0.000 A 
ATOM     15  C   UNL     1      -8.193  -2.715 127.819  0.00  0.00    +0.000 A 
ATOM     16 CL   UNL     1      -8.289  -3.481 129.355  0.00  0.00    +0.000 Cl
ATOM     17  C   UNL     1      -8.898  -3.230 126.732  0.00  0.00    +0.000 A 
ATOM     18  C   UNL     1      -8.835  -2.644 125.478  0.00  0.00    +0.000 A 
ATOM     19  N   UNL     1      -9.505  -3.193 124.454  0.00  0.00    +0.000 NA
ATOM     20  C   UNL     1      -9.407  -2.618 123.236  0.00  0.00    +0.000 A 
ATOM     21  C   UNL     1      -8.653  -1.488 122.976  0.00  0.00    +0.000 A 
ENDBRANCH   9  11
ENDBRANCH   5   9
BRANCH   1  22
ATOM     22  C   UNL     1      -5.181   4.084 126.240  0.00  0.00    +0.000 C 
BRANCH  22  23
ATOM     23  N   UNL     1      -4.353   3.104 127.041  0.00  0.00    +0.000 NA
BRANCH  23  25
ATOM     24  C   UNL     1      -1.881   3.125 126.539  0.00  0.00    +0.000 C 
ATOM     25  C   UNL     1      -3.039   3.711 127.341  0.00  0.00    +0.000 C 
ENDBRANCH  23  25
BRANCH  23  26
ATOM     26  C   UNL     1      -5.062   2.687 128.262  0.00  0.00    +0.000 C 
ATOM     27  C   UNL     1      -4.794   1.397 129.014  0.00  0.00    +0.000 C 
ENDBRANCH  23  26
ENDBRANCH  22  23
ENDBRANCH   1  22
TORSDOF 7
ENDMDL
MODEL 8
REMARK VINA RESULT:      -6.7      8.068      9.974
REMARK  Name = Amodiaquine
REMARK  9 active torsions:
REMARK  status: ('A' for Active; 'I' for Inactive)
REMARK    1  A    between atoms: C_1  and  C_2
REMARK    2  A    between atoms: C_2  and  N_3
REMARK    3  A    between atoms: N_3  and  C_4
REMARK    4  A    between atoms: N_3  and  C_6
REMARK    5  A    between atoms: C_4  and  C_5
REMARK    6  A    between atoms: C_6  and  C_7
REMARK    7  A    between atoms: C_8  and  O_9
REMARK    8  A    between atoms: C_12  and  N_13
REMARK    9  A    between atoms: N_13  and  C_14
REMARK                            x       y       z     vdW  Elec       q    Type
REMARK                         _______ _______ _______ _____ _____    ______ ____
ROOT
ATOM      1  C   UNL     1      -6.166   3.619 122.083  0.00  0.00    +0.000 A 
ATOM      2  C   UNL     1      -5.208   4.535 122.530  0.00  0.00    +0.000 A 
ATOM      3  C   UNL     1      -4.667   4.460 123.808  0.00  0.00    +0.000 A 
ATOM      4  C   UNL     1      -5.237   3.619 124.753  0.00  0.00    +0.000 A 
ATOM      5  C   UNL     1      -6.365   2.865 124.426  0.00  0.00    +0.000 A 
ATOM      6  C   UNL     1      -6.796   2.857 123.080  0.00  0.00    +0.000 A 
ENDROOT
BRANCH   2   7
ATOM      7  O   UNL     1      -4.700   5.543 121.757  0.00  0.00    +0.000 OA
ATOM      8  H   UNL     1      -3.735   5.448 121.738  0.00  0.00    +0.000 HD
ENDBRANCH   2   7
BRANCH   5   9
ATOM      9  N   UNL     1      -6.939   2.029 125.415  0.00  0.00    +0.000 N 
ATOM     10  H   UNL     1      -7.898   2.271 125.641  0.00  0.00    +0.000 HD
BRANCH   9  11
ATOM     11  C   UNL     1      -6.621   0.663 125.623  0.00  0.00    +0.000 A 
ATOM     12  C   UNL     1      -7.396  -0.354 125.022  0.00  0.00    +0.000 A 
ATOM     13  C   UNL     1      -8.416  -0.089 124.085  0.00  0.00    +0.000 A 
ATOM     14  C   UNL     1      -9.201  -1.102 123.560  0.00  0.00    +0.000 A 
ATOM     15  C   UNL     1      -8.939  -2.411 123.941  0.00  0.00    +0.000 A 
ATOM     16 CL   UNL     1      -9.889  -3.682 123.280  0.00  0.00    +0.000 Cl
ATOM     17  C   UNL     1      -7.916  -2.695 124.845  0.00  0.00    +0.000 A 
ATOM     18  C   UNL     1      -7.138  -1.694 125.405  0.00  0.00    +0.000 A 
ATOM     19  N   UNL     1      -6.186  -2.012 126.295  0.00  0.00    +0.000 NA
ATOM     20  C   UNL     1      -5.459  -1.016 126.844  0.00  0.00    +0.000 A 
ATOM     21  C   UNL     1      -5.634   0.323 126.544  0.00  0.00    +0.000 A 
ENDBRANCH   9  11
ENDBRANCH   5   9
BRANCH   1  22
ATOM     22  C   UNL     1      -6.508   3.368 120.609  0.00  0.00    +0.000 C 
BRANCH  22  23
ATOM     23  N   UNL     1      -7.377   4.410 119.940  0.00  0.00    +0.000 NA
BRANCH  23  25
ATOM     24  C   UNL     1      -5.868   5.825 118.497  0.00  0.00    +0.000 C 
ATOM     25  C   UNL     1      -6.861   4.670 118.579  0.00  0.00    +0.000 C 
ENDBRANCH  23  25
BRANCH  23  26
ATOM     26  C   UNL     1      -8.788   3.991 119.926  0.00  0.00    +0.000 C 
ATOM     27  C   UNL     1      -9.797   4.400 118.869  0.00  0.00    +0.000 C 
ENDBRANCH  23  26
ENDBRANCH  22  23
ENDBRANCH   1  22
TORSDOF 7
ENDMDL
MODEL 9
REMARK VINA RESULT:      -6.7      5.841      7.092
REMARK  Name = Amodiaquine
REMARK  9 active torsions:
REMARK  status: ('A' for Active; 'I' for Inactive)
REMARK    1  A    between atoms: C_1  and  C_2
REMARK    2  A    between atoms: C_2  and  N_3
REMARK    3  A    between atoms: N_3  and  C_4
REMARK    4  A    between atoms: N_3  and  C_6
REMARK    5  A    between atoms: C_4  and  C_5
REMARK    6  A    between atoms: C_6  and  C_7
REMARK    7  A    between atoms: C_8  and  O_9
REMARK    8  A    between atoms: C_12  and  N_13
REMARK    9  A    between atoms: N_13  and  C_14
REMARK                            x       y       z     vdW  Elec       q    Type
REMARK                         _______ _______ _______ _____ _____    ______ ____
ROOT
ATOM      1  C   UNL     1      -9.083   3.597 129.730  0.00  0.00    +0.000 A 
ATOM      2  C   UNL     1      -9.884   3.155 130.788  0.00  0.00    +0.000 A 
ATOM      3  C   UNL     1      -9.634   1.953 131.440  0.00  0.00    +0.000 A 
ATOM      4  C   UNL     1      -8.726   1.050 130.904  0.00  0.00    +0.000 A 
ATOM      5  C   UNL     1      -8.083   1.340 129.700  0.00  0.00    +0.000 A 
ATOM      6  C   UNL     1      -8.252   2.629 129.145  0.00  0.00    +0.000 A 
ENDROOT
BRANCH   2   7
ATOM      7  O   UNL     1     -10.941   3.863 131.290  0.00  0.00    +0.000 OA
ATOM      8  H   UNL     1     -10.833   4.789 131.024  0.00  0.00    +0.000 HD
ENDBRANCH   2   7
BRANCH   5   9
ATOM      9  N   UNL     1      -7.176   0.392 129.164  0.00  0.00    +0.000 N 
ATOM     10  H   UNL     1      -6.202   0.625 129.333  0.00  0.00    +0.000 HD
BRANCH   9  11
ATOM     11  C   UNL     1      -7.425  -0.996 129.022  0.00  0.00    +0.000 A 
ATOM     12  C   UNL     1      -7.895  -1.519 127.796  0.00  0.00    +0.000 A 
ATOM     13  C   UNL     1      -8.002  -0.743 126.623  0.00  0.00    +0.000 A 
ATOM     14  C   UNL     1      -8.526  -1.267 125.452  0.00  0.00    +0.000 A 
ATOM     15  C   UNL     1      -8.909  -2.601 125.434  0.00  0.00    +0.000 A 
ATOM     16 CL   UNL     1      -9.537  -3.273 123.982  0.00  0.00    +0.000 Cl
ATOM     17  C   UNL     1      -8.783  -3.390 126.577  0.00  0.00    +0.000 A 
ATOM     18  C   UNL     1      -8.290  -2.879 127.767  0.00  0.00    +0.000 A 
ATOM     19  N   UNL     1      -8.218  -3.668 128.849  0.00  0.00    +0.000 NA
ATOM     20  C   UNL     1      -7.758  -3.138 130.003  0.00  0.00    +0.000 A 
ATOM     21  C   UNL     1      -7.352  -1.823 130.140  0.00  0.00    +0.000 A 
ENDBRANCH   9  11
ENDBRANCH   5   9
BRANCH   1  22
ATOM     22  C   UNL     1      -9.020   5.047 129.235  0.00  0.00    +0.000 C 
BRANCH  22  23
ATOM     23  N   UNL     1      -9.728   6.075 130.090  0.00  0.00    +0.000 NA
BRANCH  23  25
ATOM     24  C   UNL     1      -7.847   6.337 131.750  0.00  0.00    +0.000 C 
ATOM     25  C   UNL     1      -8.724   6.985 130.683  0.00  0.00    +0.000 C 
ENDBRANCH  23  25
BRANCH  23  26
ATOM     26  C   UNL     1     -10.742   6.803 129.311  0.00  0.00    +0.000 C 
ATOM     27  C   UNL     1     -10.540   7.309 127.895  0.00  0.00    +0.000 C 
ENDBRANCH  23  26
ENDBRANCH  22  23
ENDBRANCH   1  22
TORSDOF 7
ENDMDL
