MODEL 1
REMARK VINA RESULT:      -7.2      0.000      0.000
REMARK  Name = Amorolfine
REMARK  12 active torsions:
REMARK  status: ('A' for Active; 'I' for Inactive)
REMARK    1  A    between atoms: C_2  and  C_3
REMARK    2  A    between atoms: C_2  and  C_4
REMARK    3  A    between atoms: C_2  and  C_15
REMARK    4  A    between atoms: C_4  and  N_5
REMARK    5  A    between atoms: C_7  and  C_9
REMARK    6  A    between atoms: C_11  and  C_13
REMARK    7  A    between atoms: C_15  and  C_16
REMARK    8  A    between atoms: C_19  and  C_22
REMARK    9  A    between atoms: C_22  and  C_23
REMARK   10  A    between atoms: C_22  and  C_24
REMARK   11  A    between atoms: C_22  and  C_25
REMARK   12  A    between atoms: C_25  and  C_26
REMARK                            x       y       z     vdW  Elec       q    Type
REMARK                         _______ _______ _______ _____ _____    ______ ____
ROOT
ATOM      1  C   UNL     1      -7.294   5.689 132.957  0.00  0.00    +0.000 C 
ENDROOT
BRANCH   1   2
ATOM      2  C   UNL     1      -8.523   6.160 132.220  0.00  0.00    +0.000 A 
ATOM      3  C   UNL     1      -9.812   6.014 132.747  0.00  0.00    +0.000 A 
ATOM      4  C   UNL     1     -10.940   6.358 132.052  0.00  0.00    +0.000 A 
ATOM      5  C   UNL     1     -10.821   6.921 130.801  0.00  0.00    +0.000 A 
ATOM      6  C   UNL     1      -9.533   7.072 130.246  0.00  0.00    +0.000 A 
ATOM      7  C   UNL     1      -8.388   6.707 130.957  0.00  0.00    +0.000 A 
BRANCH   5   8
ATOM      8  C   UNL     1     -12.118   7.378 130.148  0.00  0.00    +0.000 C 
ATOM      9  C   UNL     1     -12.647   6.242 129.242  0.00  0.00    +0.000 C 
ATOM     10  C   UNL     1     -13.140   7.653 131.282  0.00  0.00    +0.000 C 
BRANCH   8  11
ATOM     11  C   UNL     1     -11.865   8.660 129.331  0.00  0.00    +0.000 C 
ATOM     12  C   UNL     1     -13.076   9.182 128.592  0.00  0.00    +0.000 C 
ENDBRANCH   8  11
ENDBRANCH   5   8
ENDBRANCH   1   2
BRANCH   1  13
ATOM     13  C   UNL     1      -7.533   4.467 133.858  0.00  0.00    +0.000 C 
ATOM     14  C   UNL     1      -6.935   4.649 135.264  0.00  0.00    +0.000 C 
BRANCH  13  15
ATOM     15  C   UNL     1      -7.101   3.207 133.092  0.00  0.00    +0.000 C 
BRANCH  15  16
ATOM     16  N   UNL     1      -8.040   2.104 133.293  0.00  0.00    +0.000 NA
ATOM     17  C   UNL     1      -9.295   2.502 132.645  0.00  0.00    +0.000 C 
ATOM     18  C   UNL     1      -9.122   2.596 131.109  0.00  0.00    +0.000 C 
ATOM     19  C   UNL     1     -10.404   3.135 130.517  0.00  0.00    +0.000 C 
ATOM     20  O   UNL     1      -8.765   1.315 130.566  0.00  0.00    +0.000 OA
ATOM     21  C   UNL     1      -7.508   0.873 131.128  0.00  0.00    +0.000 C 
ATOM     22  C   UNL     1      -7.175  -0.500 130.554  0.00  0.00    +0.000 C 
ATOM     23  C   UNL     1      -7.587   0.831 132.675  0.00  0.00    +0.000 C 
ENDBRANCH  15  16
ENDBRANCH  13  15
ENDBRANCH   1  13
TORSDOF 6
ENDMDL
MODEL 2
REMARK VINA RESULT:      -7.2      2.540      3.546
REMARK  Name = Amorolfine
REMARK  12 active torsions:
REMARK  status: ('A' for Active; 'I' for Inactive)
REMARK    1  A    between atoms: C_2  and  C_3
REMARK    2  A    between atoms: C_2  and  C_4
REMARK    3  A    between atoms: C_2  and  C_15
REMARK    4  A    between atoms: C_4  and  N_5
REMARK    5  A    between atoms: C_7  and  C_9
REMARK    6  A    between atoms: C_11  and  C_13
REMARK    7  A    between atoms: C_15  and  C_16
REMARK    8  A    between atoms: C_19  and  C_22
REMARK    9  A    between atoms: C_22  and  C_23
REMARK   10  A    between atoms: C_22  and  C_24
REMARK   11  A    between atoms: C_22  and  C_25
REMARK   12  A    between atoms: C_25  and  C_26
REMARK                            x       y       z     vdW  Elec       q    Type
REMARK                         _______ _______ _______ _____ _____    ______ ____
ROOT
ATOM      1  C   UNL     1      -8.761   5.685 133.121  0.00  0.00    +0.000 C 
ENDROOT
BRANCH   1   2
ATOM      2  C   UNL     1      -9.596   6.307 132.029  0.00  0.00    +0.000 A 
ATOM      3  C   UNL     1     -10.995   6.289 132.056  0.00  0.00    +0.000 A 
ATOM      4  C   UNL     1     -11.764   6.772 131.030  0.00  0.00    +0.000 A 
ATOM      5  C   UNL     1     -11.153   7.350 129.941  0.00  0.00    +0.000 A 
ATOM      6  C   UNL     1      -9.744   7.375 129.887  0.00  0.00    +0.000 A 
ATOM      7  C   UNL     1      -8.968   6.868 130.932  0.00  0.00    +0.000 A 
BRANCH   5   8
ATOM      8  C   UNL     1     -12.082   7.964 128.902  0.00  0.00    +0.000 C 
ATOM      9  C   UNL     1     -13.186   6.938 128.553  0.00  0.00    +0.000 C 
ATOM     10  C   UNL     1     -12.729   9.222 129.539  0.00  0.00    +0.000 C 
BRANCH   8  11
ATOM     11  C   UNL     1     -11.276   8.352 127.648  0.00  0.00    +0.000 C 
ATOM     12  C   UNL     1     -11.371   7.361 126.510  0.00  0.00    +0.000 C 
ENDBRANCH   8  11
ENDBRANCH   5   8
ENDBRANCH   1   2
BRANCH   1  13
ATOM     13  C   UNL     1      -8.247   4.275 132.790  0.00  0.00    +0.000 C 
ATOM     14  C   UNL     1      -9.091   3.173 133.454  0.00  0.00    +0.000 C 
BRANCH  13  15
ATOM     15  C   UNL     1      -6.735   4.233 133.065  0.00  0.00    +0.000 C 
BRANCH  15  16
ATOM     16  N   UNL     1      -5.987   3.782 131.893  0.00  0.00    +0.000 NA
ATOM     17  C   UNL     1      -5.909   4.929 130.981  0.00  0.00    +0.000 C 
ATOM     18  C   UNL     1      -5.046   6.063 131.586  0.00  0.00    +0.000 C 
ATOM     19  C   UNL     1      -5.114   7.258 130.663  0.00  0.00    +0.000 C 
ATOM     20  O   UNL     1      -3.698   5.610 131.795  0.00  0.00    +0.000 OA
ATOM     21  C   UNL     1      -3.688   4.501 132.724  0.00  0.00    +0.000 C 
ATOM     22  C   UNL     1      -2.250   4.028 132.900  0.00  0.00    +0.000 C 
ATOM     23  C   UNL     1      -4.600   3.355 132.215  0.00  0.00    +0.000 C 
ENDBRANCH  15  16
ENDBRANCH  13  15
ENDBRANCH   1  13
TORSDOF 6
ENDMDL
MODEL 3
REMARK VINA RESULT:      -7.2      1.578      2.213
REMARK  Name = Amorolfine
REMARK  12 active torsions:
REMARK  status: ('A' for Active; 'I' for Inactive)
REMARK    1  A    between atoms: C_2  and  C_3
REMARK    2  A    between atoms: C_2  and  C_4
REMARK    3  A    between atoms: C_2  and  C_15
REMARK    4  A    between atoms: C_4  and  N_5
REMARK    5  A    between atoms: C_7  and  C_9
REMARK    6  A    between atoms: C_11  and  C_13
REMARK    7  A    between atoms: C_15  and  C_16
REMARK    8  A    between atoms: C_19  and  C_22
REMARK    9  A    between atoms: C_22  and  C_23
REMARK   10  A    between atoms: C_22  and  C_24
REMARK   11  A    between atoms: C_22  and  C_25
REMARK   12  A    between atoms: C_25  and  C_26
REMARK                            x       y       z     vdW  Elec       q    Type
REMARK                         _______ _______ _______ _____ _____    ______ ____
ROOT
ATOM      1  C   UNL     1      -8.959   5.868 133.037  0.00  0.00    +0.000 C 
ENDROOT
BRANCH   1   2
ATOM      2  C   UNL     1      -9.823   6.391 131.917  0.00  0.00    +0.000 A 
ATOM      3  C   UNL     1      -9.283   6.977 130.767  0.00  0.00    +0.000 A 
ATOM      4  C   UNL     1     -10.056   7.533 129.783  0.00  0.00    +0.000 A 
ATOM      5  C   UNL     1     -11.428   7.477 129.888  0.00  0.00    +0.000 A 
ATOM      6  C   UNL     1     -11.997   6.898 131.041  0.00  0.00    +0.000 A 
ATOM      7  C   UNL     1     -11.199   6.344 132.045  0.00  0.00    +0.000 A 
BRANCH   5   8
ATOM      8  C   UNL     1     -12.211   8.015 128.698  0.00  0.00    +0.000 C 
ATOM      9  C   UNL     1     -13.302   6.988 128.314  0.00  0.00    +0.000 C 
ATOM     10  C   UNL     1     -12.884   9.341 129.143  0.00  0.00    +0.000 C 
BRANCH   8  11
ATOM     11  C   UNL     1     -11.255   8.269 127.517  0.00  0.00    +0.000 C 
ATOM     12  C   UNL     1     -11.428   7.319 126.355  0.00  0.00    +0.000 C 
ENDBRANCH   8  11
ENDBRANCH   5   8
ENDBRANCH   1   2
BRANCH   1  13
ATOM     13  C   UNL     1      -8.954   4.336 133.162  0.00  0.00    +0.000 C 
ATOM     14  C   UNL     1      -8.056   3.844 134.311  0.00  0.00    +0.000 C 
BRANCH  13  15
ATOM     15  C   UNL     1      -8.675   3.736 131.775  0.00  0.00    +0.000 C 
BRANCH  15  16
ATOM     16  N   UNL     1      -9.738   2.822 131.359  0.00  0.00    +0.000 NA
ATOM     17  C   UNL     1      -9.626   2.688 129.902  0.00  0.00    +0.000 C 
ATOM     18  C   UNL     1      -8.313   1.968 129.509  0.00  0.00    +0.000 C 
ATOM     19  C   UNL     1      -8.196   1.980 128.002  0.00  0.00    +0.000 C 
ATOM     20  O   UNL     1      -8.289   0.637 130.049  0.00  0.00    +0.000 OA
ATOM     21  C   UNL     1      -8.352   0.689 131.493  0.00  0.00    +0.000 C 
ATOM     22  C   UNL     1      -8.355  -0.738 132.030  0.00  0.00    +0.000 C 
ATOM     23  C   UNL     1      -9.609   1.467 131.957  0.00  0.00    +0.000 C 
ENDBRANCH  15  16
ENDBRANCH  13  15
ENDBRANCH   1  13
TORSDOF 6
ENDMDL
MODEL 4
REMARK VINA RESULT:      -7.1      1.514      2.420
REMARK  Name = Amorolfine
REMARK  12 active torsions:
REMARK  status: ('A' for Active; 'I' for Inactive)
REMARK    1  A    between atoms: C_2  and  C_3
REMARK    2  A    between atoms: C_2  and  C_4
REMARK    3  A    between atoms: C_2  and  C_15
REMARK    4  A    between atoms: C_4  and  N_5
REMARK    5  A    between atoms: C_7  and  C_9
REMARK    6  A    between atoms: C_11  and  C_13
REMARK    7  A    between atoms: C_15  and  C_16
REMARK    8  A    between atoms: C_19  and  C_22
REMARK    9  A    between atoms: C_22  and  C_23
REMARK   10  A    between atoms: C_22  and  C_24
REMARK   11  A    between atoms: C_22  and  C_25
REMARK   12  A    between atoms: C_25  and  C_26
REMARK                            x       y       z     vdW  Elec       q    Type
REMARK                         _______ _______ _______ _____ _____    ______ ____
ROOT
ATOM      1  C   UNL     1      -8.776   5.875 132.814  0.00  0.00    +0.000 C 
ENDROOT
BRANCH   1   2
ATOM      2  C   UNL     1      -9.721   6.399 131.761  0.00  0.00    +0.000 A 
ATOM      3  C   UNL     1      -9.267   6.952 130.559  0.00  0.00    +0.000 A 
ATOM      4  C   UNL     1     -10.108   7.509 129.633  0.00  0.00    +0.000 A 
ATOM      5  C   UNL     1     -11.467   7.487 129.854  0.00  0.00    +0.000 A 
ATOM      6  C   UNL     1     -11.949   6.941 131.061  0.00  0.00    +0.000 A 
ATOM      7  C   UNL     1     -11.082   6.386 132.005  0.00  0.00    +0.000 A 
BRANCH   5   8
ATOM      8  C   UNL     1     -12.335   8.023 128.724  0.00  0.00    +0.000 C 
ATOM      9  C   UNL     1     -13.509   7.042 128.489  0.00  0.00    +0.000 C 
ATOM     10  C   UNL     1     -12.894   9.398 129.176  0.00  0.00    +0.000 C 
BRANCH   8  11
ATOM     11  C   UNL     1     -11.489   8.182 127.447  0.00  0.00    +0.000 C 
ATOM     12  C   UNL     1     -11.861   7.238 126.326  0.00  0.00    +0.000 C 
ENDBRANCH   8  11
ENDBRANCH   5   8
ENDBRANCH   1   2
BRANCH   1  13
ATOM     13  C   UNL     1      -9.180   4.510 133.394  0.00  0.00    +0.000 C 
ATOM     14  C   UNL     1      -8.329   4.117 134.615  0.00  0.00    +0.000 C 
BRANCH  13  15
ATOM     15  C   UNL     1      -9.232   3.491 132.245  0.00  0.00    +0.000 C 
BRANCH  15  16
ATOM     16  N   UNL     1      -7.892   3.139 131.775  0.00  0.00    +0.000 NA
ATOM     17  C   UNL     1      -7.652   1.755 132.197  0.00  0.00    +0.000 C 
ATOM     18  C   UNL     1      -8.597   0.776 131.458  0.00  0.00    +0.000 C 
ATOM     19  C   UNL     1      -8.392  -0.608 132.029  0.00  0.00    +0.000 C 
ATOM     20  O   UNL     1      -8.359   0.823 130.041  0.00  0.00    +0.000 OA
ATOM     21  C   UNL     1      -8.619   2.155 129.541  0.00  0.00    +0.000 C 
ATOM     22  C   UNL     1      -8.329   2.177 128.044  0.00  0.00    +0.000 C 
ATOM     23  C   UNL     1      -7.758   3.200 130.296  0.00  0.00    +0.000 C 
ENDBRANCH  15  16
ENDBRANCH  13  15
ENDBRANCH   1  13
TORSDOF 6
ENDMDL
MODEL 5
REMARK VINA RESULT:      -7.0      2.909      4.324
REMARK  Name = Amorolfine
REMARK  12 active torsions:
REMARK  status: ('A' for Active; 'I' for Inactive)
REMARK    1  A    between atoms: C_2  and  C_3
REMARK    2  A    between atoms: C_2  and  C_4
REMARK    3  A    between atoms: C_2  and  C_15
REMARK    4  A    between atoms: C_4  and  N_5
REMARK    5  A    between atoms: C_7  and  C_9
REMARK    6  A    between atoms: C_11  and  C_13
REMARK    7  A    between atoms: C_15  and  C_16
REMARK    8  A    between atoms: C_19  and  C_22
REMARK    9  A    between atoms: C_22  and  C_23
REMARK   10  A    between atoms: C_22  and  C_24
REMARK   11  A    between atoms: C_22  and  C_25
REMARK   12  A    between atoms: C_25  and  C_26
REMARK                            x       y       z     vdW  Elec       q    Type
REMARK                         _______ _______ _______ _____ _____    ______ ____
ROOT
ATOM      1  C   UNL     1      -8.307   5.826 132.898  0.00  0.00    +0.000 C 
ENDROOT
BRANCH   1   2
ATOM      2  C   UNL     1      -9.293   6.327 131.872  0.00  0.00    +0.000 A 
ATOM      3  C   UNL     1      -8.888   6.978 130.701  0.00  0.00    +0.000 A 
ATOM      4  C   UNL     1      -9.773   7.514 129.805  0.00  0.00    +0.000 A 
ATOM      5  C   UNL     1     -11.125   7.370 130.021  0.00  0.00    +0.000 A 
ATOM      6  C   UNL     1     -11.559   6.724 131.197  0.00  0.00    +0.000 A 
ATOM      7  C   UNL     1     -10.648   6.191 132.112  0.00  0.00    +0.000 A 
BRANCH   5   8
ATOM      8  C   UNL     1     -12.037   7.894 128.920  0.00  0.00    +0.000 C 
ATOM      9  C   UNL     1     -13.060   6.791 128.554  0.00  0.00    +0.000 C 
ATOM     10  C   UNL     1     -12.788   9.129 129.482  0.00  0.00    +0.000 C 
BRANCH   8  11
ATOM     11  C   UNL     1     -11.195   8.291 127.692  0.00  0.00    +0.000 C 
ATOM     12  C   UNL     1     -11.370   7.388 126.493  0.00  0.00    +0.000 C 
ENDBRANCH   8  11
ENDBRANCH   5   8
ENDBRANCH   1   2
BRANCH   1  13
ATOM     13  C   UNL     1      -7.732   4.435 132.587  0.00  0.00    +0.000 C 
ATOM     14  C   UNL     1      -7.803   3.487 133.797  0.00  0.00    +0.000 C 
BRANCH  13  15
ATOM     15  C   UNL     1      -6.348   4.615 131.943  0.00  0.00    +0.000 C 
BRANCH  15  16
ATOM     16  N   UNL     1      -5.655   5.788 132.475  0.00  0.00    +0.000 NA
ATOM     17  C   UNL     1      -4.423   5.295 133.102  0.00  0.00    +0.000 C 
ATOM     18  C   UNL     1      -3.454   4.713 132.044  0.00  0.00    +0.000 C 
ATOM     19  C   UNL     1      -2.271   4.107 132.763  0.00  0.00    +0.000 C 
ATOM     20  O   UNL     1      -3.063   5.730 131.108  0.00  0.00    +0.000 OA
ATOM     21  C   UNL     1      -4.226   6.237 130.414  0.00  0.00    +0.000 C 
ATOM     22  C   UNL     1      -3.780   7.333 129.453  0.00  0.00    +0.000 C 
ATOM     23  C   UNL     1      -5.276   6.768 131.423  0.00  0.00    +0.000 C 
ENDBRANCH  15  16
ENDBRANCH  13  15
ENDBRANCH   1  13
TORSDOF 6
ENDMDL
MODEL 6
REMARK VINA RESULT:      -6.9      3.686      5.035
REMARK  Name = Amorolfine
REMARK  12 active torsions:
REMARK  status: ('A' for Active; 'I' for Inactive)
REMARK    1  A    between atoms: C_2  and  C_3
REMARK    2  A    between atoms: C_2  and  C_4
REMARK    3  A    between atoms: C_2  and  C_15
REMARK    4  A    between atoms: C_4  and  N_5
REMARK    5  A    between atoms: C_7  and  C_9
REMARK    6  A    between atoms: C_11  and  C_13
REMARK    7  A    between atoms: C_15  and  C_16
REMARK    8  A    between atoms: C_19  and  C_22
REMARK    9  A    between atoms: C_22  and  C_23
REMARK   10  A    between atoms: C_22  and  C_24
REMARK   11  A    between atoms: C_22  and  C_25
REMARK   12  A    between atoms: C_25  and  C_26
REMARK                            x       y       z     vdW  Elec       q    Type
REMARK                         _______ _______ _______ _____ _____    ______ ____
ROOT
ATOM      1  C   UNL     1      -7.551   5.971 132.395  0.00  0.00    +0.000 C 
ENDROOT
BRANCH   1   2
ATOM      2  C   UNL     1      -8.725   6.415 131.558  0.00  0.00    +0.000 A 
ATOM      3  C   UNL     1      -8.567   7.176 130.394  0.00  0.00    +0.000 A 
ATOM      4  C   UNL     1      -9.627   7.659 129.674  0.00  0.00    +0.000 A 
ATOM      5  C   UNL     1     -10.909   7.348 130.066  0.00  0.00    +0.000 A 
ATOM      6  C   UNL     1     -11.095   6.587 131.238  0.00  0.00    +0.000 A 
ATOM      7  C   UNL     1     -10.008   6.110 131.974  0.00  0.00    +0.000 A 
BRANCH   5   8
ATOM      8  C   UNL     1     -12.024   7.827 129.145  0.00  0.00    +0.000 C 
ATOM      9  C   UNL     1     -11.403   8.260 127.795  0.00  0.00    +0.000 C 
ATOM     10  C   UNL     1     -12.983   6.631 128.912  0.00  0.00    +0.000 C 
BRANCH   8  11
ATOM     11  C   UNL     1     -12.776   8.998 129.804  0.00  0.00    +0.000 C 
ATOM     12  C   UNL     1     -13.489   9.911 128.834  0.00  0.00    +0.000 C 
ENDBRANCH   8  11
ENDBRANCH   5   8
ENDBRANCH   1   2
BRANCH   1  13
ATOM     13  C   UNL     1      -6.345   5.484 131.575  0.00  0.00    +0.000 C 
ATOM     14  C   UNL     1      -6.274   3.949 131.492  0.00  0.00    +0.000 C 
BRANCH  13  15
ATOM     15  C   UNL     1      -5.086   6.196 132.094  0.00  0.00    +0.000 C 
BRANCH  15  16
ATOM     16  N   UNL     1      -4.600   7.194 131.142  0.00  0.00    +0.000 NA
ATOM     17  C   UNL     1      -3.360   7.739 131.706  0.00  0.00    +0.000 C 
ATOM     18  C   UNL     1      -2.248   6.664 131.750  0.00  0.00    +0.000 C 
ATOM     19  C   UNL     1      -1.047   7.248 132.458  0.00  0.00    +0.000 C 
ATOM     20  O   UNL     1      -1.934   6.213 130.422  0.00  0.00    +0.000 OA
ATOM     21  C   UNL     1      -3.103   5.618 129.812  0.00  0.00    +0.000 C 
ATOM     22  C   UNL     1      -2.743   5.179 128.398  0.00  0.00    +0.000 C 
ATOM     23  C   UNL     1      -4.285   6.621 129.807  0.00  0.00    +0.000 C 
ENDBRANCH  15  16
ENDBRANCH  13  15
ENDBRANCH   1  13
TORSDOF 6
ENDMDL
MODEL 7
REMARK VINA RESULT:      -6.9      6.800     10.444
REMARK  Name = Amorolfine
REMARK  12 active torsions:
REMARK  status: ('A' for Active; 'I' for Inactive)
REMARK    1  A    between atoms: C_2  and  C_3
REMARK    2  A    between atoms: C_2  and  C_4
REMARK    3  A    between atoms: C_2  and  C_15
REMARK    4  A    between atoms: C_4  and  N_5
REMARK    5  A    between atoms: C_7  and  C_9
REMARK    6  A    between atoms: C_11  and  C_13
REMARK    7  A    between atoms: C_15  and  C_16
REMARK    8  A    between atoms: C_19  and  C_22
REMARK    9  A    between atoms: C_22  and  C_23
REMARK   10  A    between atoms: C_22  and  C_24
REMARK   11  A    between atoms: C_22  and  C_25
REMARK   12  A    between atoms: C_25  and  C_26
REMARK                            x       y       z     vdW  Elec       q    Type
REMARK                         _______ _______ _______ _____ _____    ______ ____
ROOT
ATOM      1  C   UNL     1      -7.748  -3.179 124.809  0.00  0.00    +0.000 C 
ENDROOT
BRANCH   1   2
ATOM      2  C   UNL     1      -7.540  -2.888 126.275  0.00  0.00    +0.000 A 
ATOM      3  C   UNL     1      -6.366  -2.302 126.761  0.00  0.00    +0.000 A 
ATOM      4  C   UNL     1      -6.129  -2.113 128.096  0.00  0.00    +0.000 A 
ATOM      5  C   UNL     1      -7.097  -2.460 129.012  0.00  0.00    +0.000 A 
ATOM      6  C   UNL     1      -8.286  -3.058 128.547  0.00  0.00    +0.000 A 
ATOM      7  C   UNL     1      -8.514  -3.259 127.184  0.00  0.00    +0.000 A 
BRANCH   5   8
ATOM      8  C   UNL     1      -6.800  -2.109 130.463  0.00  0.00    +0.000 C 
ATOM      9  C   UNL     1      -5.426  -1.401 130.534  0.00  0.00    +0.000 C 
ATOM     10  C   UNL     1      -7.908  -1.136 130.945  0.00  0.00    +0.000 C 
BRANCH   8  11
ATOM     11  C   UNL     1      -6.802  -3.391 131.319  0.00  0.00    +0.000 C 
ATOM     12  C   UNL     1      -5.738  -4.397 130.944  0.00  0.00    +0.000 C 
ENDBRANCH   8  11
ENDBRANCH   5   8
ENDBRANCH   1   2
BRANCH   1  13
ATOM     13  C   UNL     1      -9.012  -2.536 124.216  0.00  0.00    +0.000 C 
ATOM     14  C   UNL     1      -9.775  -3.496 123.285  0.00  0.00    +0.000 C 
BRANCH  13  15
ATOM     15  C   UNL     1      -8.631  -1.172 123.622  0.00  0.00    +0.000 C 
BRANCH  15  16
ATOM     16  N   UNL     1      -9.642  -0.156 123.912  0.00  0.00    +0.000 NA
ATOM     17  C   UNL     1      -9.551   0.124 125.349  0.00  0.00    +0.000 C 
ATOM     18  C   UNL     1      -8.204   0.799 125.702  0.00  0.00    +0.000 C 
ATOM     19  C   UNL     1      -8.118   0.939 127.204  0.00  0.00    +0.000 C 
ATOM     20  O   UNL     1      -8.085   2.062 125.027  0.00  0.00    +0.000 OA
ATOM     21  C   UNL     1      -8.121   1.864 123.595  0.00  0.00    +0.000 C 
ATOM     22  C   UNL     1      -8.023   3.223 122.913  0.00  0.00    +0.000 C 
ATOM     23  C   UNL     1      -9.415   1.118 123.180  0.00  0.00    +0.000 C 
ENDBRANCH  15  16
ENDBRANCH  13  15
ENDBRANCH   1  13
TORSDOF 6
ENDMDL
MODEL 8
REMARK VINA RESULT:      -6.7      4.320      9.044
REMARK  Name = Amorolfine
REMARK  12 active torsions:
REMARK  status: ('A' for Active; 'I' for Inactive)
REMARK    1  A    between atoms: C_2  and  C_3
REMARK    2  A    between atoms: C_2  and  C_4
REMARK    3  A    between atoms: C_2  and  C_15
REMARK    4  A    between atoms: C_4  and  N_5
REMARK    5  A    between atoms: C_7  and  C_9
REMARK    6  A    between atoms: C_11  and  C_13
REMARK    7  A    between atoms: C_15  and  C_16
REMARK    8  A    between atoms: C_19  and  C_22
REMARK    9  A    between atoms: C_22  and  C_23
REMARK   10  A    between atoms: C_22  and  C_24
REMARK   11  A    between atoms: C_22  and  C_25
REMARK   12  A    between atoms: C_25  and  C_26
REMARK                            x       y       z     vdW  Elec       q    Type
REMARK                         _______ _______ _______ _____ _____    ______ ____
ROOT
ATOM      1  C   UNL     1      -7.917  -3.148 130.316  0.00  0.00    +0.000 C 
ENDROOT
BRANCH   1   2
ATOM      2  C   UNL     1      -7.851  -3.082 128.810  0.00  0.00    +0.000 A 
ATOM      3  C   UNL     1      -6.856  -2.364 128.137  0.00  0.00    +0.000 A 
ATOM      4  C   UNL     1      -6.835  -2.224 126.775  0.00  0.00    +0.000 A 
ATOM      5  C   UNL     1      -7.795  -2.853 126.015  0.00  0.00    +0.000 A 
ATOM      6  C   UNL     1      -8.811  -3.578 126.670  0.00  0.00    +0.000 A 
ATOM      7  C   UNL     1      -8.832  -3.705 128.061  0.00  0.00    +0.000 A 
BRANCH   5   8
ATOM      8  C   UNL     1      -7.630  -2.741 124.505  0.00  0.00    +0.000 C 
ATOM      9  C   UNL     1      -8.948  -3.185 123.826  0.00  0.00    +0.000 C 
ATOM     10  C   UNL     1      -7.355  -1.251 124.174  0.00  0.00    +0.000 C 
BRANCH   8  11
ATOM     11  C   UNL     1      -6.452  -3.620 124.043  0.00  0.00    +0.000 C 
ATOM     12  C   UNL     1      -5.272  -2.850 123.497  0.00  0.00    +0.000 C 
ENDBRANCH   8  11
ENDBRANCH   5   8
ENDBRANCH   1   2
BRANCH   1  13
ATOM     13  C   UNL     1      -6.810  -2.354 131.027  0.00  0.00    +0.000 C 
ATOM     14  C   UNL     1      -5.782  -3.269 131.715  0.00  0.00    +0.000 C 
BRANCH  13  15
ATOM     15  C   UNL     1      -7.471  -1.286 131.914  0.00  0.00    +0.000 C 
BRANCH  15  16
ATOM     16  N   UNL     1      -6.734  -0.024 131.879  0.00  0.00    +0.000 NA
ATOM     17  C   UNL     1      -6.750   0.429 130.484  0.00  0.00    +0.000 C 
ATOM     18  C   UNL     1      -8.184   0.800 130.035  0.00  0.00    +0.000 C 
ATOM     19  C   UNL     1      -8.153   1.130 128.561  0.00  0.00    +0.000 C 
ATOM     20  O   UNL     1      -8.693   1.885 130.828  0.00  0.00    +0.000 OA
ATOM     21  C   UNL     1      -8.749   1.497 132.219  0.00  0.00    +0.000 C 
ATOM     22  C   UNL     1      -9.263   2.679 133.033  0.00  0.00    +0.000 C 
ATOM     23  C   UNL     1      -7.354   1.037 132.715  0.00  0.00    +0.000 C 
ENDBRANCH  15  16
ENDBRANCH  13  15
ENDBRANCH   1  13
TORSDOF 6
ENDMDL
MODEL 9
REMARK VINA RESULT:      -6.6      7.410      9.454
REMARK  Name = Amorolfine
REMARK  12 active torsions:
REMARK  status: ('A' for Active; 'I' for Inactive)
REMARK    1  A    between atoms: C_2  and  C_3
REMARK    2  A    between atoms: C_2  and  C_4
REMARK    3  A    between atoms: C_2  and  C_15
REMARK    4  A    between atoms: C_4  and  N_5
REMARK    5  A    between atoms: C_7  and  C_9
REMARK    6  A    between atoms: C_11  and  C_13
REMARK    7  A    between atoms: C_15  and  C_16
REMARK    8  A    between atoms: C_19  and  C_22
REMARK    9  A    between atoms: C_22  and  C_23
REMARK   10  A    between atoms: C_22  and  C_24
REMARK   11  A    between atoms: C_22  and  C_25
REMARK   12  A    between atoms: C_25  and  C_26
REMARK                            x       y       z     vdW  Elec       q    Type
REMARK                         _______ _______ _______ _____ _____    ______ ____
ROOT
ATOM      1  C   UNL     1      -7.276  -3.355 130.174  0.00  0.00    +0.000 C 
ENDROOT
BRANCH   1   2
ATOM      2  C   UNL     1      -7.542  -3.163 128.701  0.00  0.00    +0.000 A 
ATOM      3  C   UNL     1      -6.704  -2.394 127.885  0.00  0.00    +0.000 A 
ATOM      4  C   UNL     1      -6.980  -2.140 126.568  0.00  0.00    +0.000 A 
ATOM      5  C   UNL     1      -8.098  -2.699 125.991  0.00  0.00    +0.000 A 
ATOM      6  C   UNL     1      -8.961  -3.473 126.794  0.00  0.00    +0.000 A 
ATOM      7  C   UNL     1      -8.678  -3.716 128.140  0.00  0.00    +0.000 A 
BRANCH   5   8
ATOM      8  C   UNL     1      -8.268  -2.461 124.497  0.00  0.00    +0.000 C 
ATOM      9  C   UNL     1      -9.385  -3.392 123.967  0.00  0.00    +0.000 C 
ATOM     10  C   UNL     1      -8.695  -0.982 124.305  0.00  0.00    +0.000 C 
BRANCH   8  11
ATOM     11  C   UNL     1      -6.936  -2.734 123.771  0.00  0.00    +0.000 C 
ATOM     12  C   UNL     1      -6.569  -1.705 122.727  0.00  0.00    +0.000 C 
ENDBRANCH   8  11
ENDBRANCH   5   8
ENDBRANCH   1   2
BRANCH   1  13
ATOM     13  C   UNL     1      -5.814  -3.691 130.508  0.00  0.00    +0.000 C 
ATOM     14  C   UNL     1      -5.621  -5.175 130.868  0.00  0.00    +0.000 C 
BRANCH  13  15
ATOM     15  C   UNL     1      -5.303  -2.670 131.536  0.00  0.00    +0.000 C 
BRANCH  15  16
ATOM     16  N   UNL     1      -3.931  -2.254 131.248  0.00  0.00    +0.000 NA
ATOM     17  C   UNL     1      -3.997  -1.388 130.066  0.00  0.00    +0.000 C 
ATOM     18  C   UNL     1      -4.747  -0.071 130.382  0.00  0.00    +0.000 C 
ATOM     19  C   UNL     1      -4.896   0.714 129.099  0.00  0.00    +0.000 C 
ATOM     20  O   UNL     1      -4.053   0.670 131.399  0.00  0.00    +0.000 OA
ATOM     21  C   UNL     1      -3.986  -0.107 132.617  0.00  0.00    +0.000 C 
ATOM     22  C   UNL     1      -3.218   0.695 133.663  0.00  0.00    +0.000 C 
ATOM     23  C   UNL     1      -3.312  -1.478 132.354  0.00  0.00    +0.000 C 
ENDBRANCH  15  16
ENDBRANCH  13  15
ENDBRANCH   1  13
TORSDOF 6
ENDMDL
