MODEL 1
REMARK VINA RESULT:      -7.2      0.000      0.000
REMARK  Name = Amoxicillin
REMARK  9 active torsions:
REMARK  status: ('A' for Active; 'I' for Inactive)
REMARK    1  A    between atoms: C_4  and  C_5
REMARK    2  A    between atoms: C_4  and  C_6
REMARK    3  A    between atoms: CA_7  and  C_24
REMARK    4  A    between atoms: CA_11  and  N_12
REMARK    5  A    between atoms: C_13  and  CA_15
REMARK    6  A    between atoms: CA_15  and  N_16
REMARK    7  A    between atoms: CA_15  and  C_17
REMARK    8  A    between atoms: C_20  and  O_21
REMARK    9  A    between atoms: C_24  and  O_25
REMARK                            x       y       z     vdW  Elec       q    Type
REMARK                         _______ _______ _______ _____ _____    ______ ____
ROOT
ATOM      1  N   UNL     1      -8.143   4.971 130.785  0.00  0.00    +0.000 N 
ATOM      2  C   UNL     1      -9.157   5.629 131.449  0.00  0.00    +0.000 C 
ATOM      3  O   UNL     1      -8.904   6.347 132.419  0.00  0.00    +0.000 OA
ATOM      4  H   UNL     1      -8.345   4.439 129.946  0.00  0.00    +0.000 HD
ENDROOT
BRANCH   1  14
ATOM      5  C   UNL     1      -5.651   4.315 130.568  0.00  0.00    +0.000 C 
ATOM      6  S   UNL     1      -6.014   3.615 128.918  0.00  0.00    +0.000 S 
ATOM      7  C   UNL     1      -4.443   4.364 128.230  0.00  0.00    +0.000 C 
ATOM      8  C   UNL     1      -4.644   4.486 126.718  0.00  0.00    +0.000 C 
ATOM      9  C   UNL     1      -3.329   3.367 128.600  0.00  0.00    +0.000 C 
ATOM     10  CA  UNL     1      -4.357   5.744 128.924  0.00  0.00    +0.000 C 
ATOM     11  N   UNL     1      -4.917   5.560 130.280  0.00  0.00    +0.000 N 
ATOM     12  C   UNL     1      -5.937   6.360 130.735  0.00  0.00    +0.000 C 
ATOM     13  O   UNL     1      -6.139   7.547 130.574  0.00  0.00    +0.000 OA
ATOM     14  CA  UNL     1      -6.739   5.139 131.265  0.00  0.00    +0.000 C 
BRANCH  10  15
ATOM     15  C   UNL     1      -2.998   6.483 128.983  0.00  0.00    +0.000 C 
ATOM     16  OXT UNL     1      -2.447   6.934 127.985  0.00  0.00    +0.000 OA
BRANCH  15  17
ATOM     17  O   UNL     1      -2.371   6.617 130.168  0.00  0.00    +0.000 OA
ATOM     18  H   UNL     1      -2.864   6.834 130.974  0.00  0.00    +0.000 HD
ENDBRANCH  15  17
ENDBRANCH  10  15
ENDBRANCH   1  14
BRANCH   2  19
ATOM     19  CA  UNL     1     -10.605   5.380 130.935  0.00  0.00    +0.000 C 
BRANCH  19  20
ATOM     20  C   UNL     1     -11.207   6.640 130.328  0.00  0.00    +0.000 A 
ATOM     21  C   UNL     1     -10.631   7.249 129.201  0.00  0.00    +0.000 A 
ATOM     22  C   UNL     1     -11.206   8.399 128.641  0.00  0.00    +0.000 A 
ATOM     23  C   UNL     1     -12.355   8.942 129.209  0.00  0.00    +0.000 A 
ATOM     24  C   UNL     1     -12.921   8.374 130.336  0.00  0.00    +0.000 A 
ATOM     25  C   UNL     1     -12.342   7.241 130.899  0.00  0.00    +0.000 A 
BRANCH  23  26
ATOM     26  O   UNL     1     -12.975  10.044 128.700  0.00  0.00    +0.000 OA
ATOM     27  H   UNL     1     -13.935   9.947 128.798  0.00  0.00    +0.000 HD
ENDBRANCH  23  26
ENDBRANCH  19  20
BRANCH  19  28
ATOM     28  N   UNL     1     -10.576   4.291 129.943  0.00  0.00    +0.000 NA
ATOM     29  H1  UNL     1     -11.349   3.657 130.168  0.00  0.00    +0.000 HD
ATOM     30  H2  UNL     1      -9.729   3.743 130.070  0.00  0.00    +0.000 HD
ENDBRANCH  19  28
ENDBRANCH   2  19
TORSDOF 7
ENDMDL
MODEL 2
REMARK VINA RESULT:      -7.2      5.178      7.261
REMARK  Name = Amoxicillin
REMARK  9 active torsions:
REMARK  status: ('A' for Active; 'I' for Inactive)
REMARK    1  A    between atoms: C_4  and  C_5
REMARK    2  A    between atoms: C_4  and  C_6
REMARK    3  A    between atoms: CA_7  and  C_24
REMARK    4  A    between atoms: CA_11  and  N_12
REMARK    5  A    between atoms: C_13  and  CA_15
REMARK    6  A    between atoms: CA_15  and  N_16
REMARK    7  A    between atoms: CA_15  and  C_17
REMARK    8  A    between atoms: C_20  and  O_21
REMARK    9  A    between atoms: C_24  and  O_25
REMARK                            x       y       z     vdW  Elec       q    Type
REMARK                         _______ _______ _______ _____ _____    ______ ____
ROOT
ATOM      1  N   UNL     1      -7.063   2.797 125.201  0.00  0.00    +0.000 N 
ATOM      2  C   UNL     1      -8.169   3.037 124.414  0.00  0.00    +0.000 C 
ATOM      3  O   UNL     1      -8.999   3.887 124.747  0.00  0.00    +0.000 OA
ATOM      4  H   UNL     1      -6.347   2.149 124.891  0.00  0.00    +0.000 HD
ENDROOT
BRANCH   1  14
ATOM      5  C   UNL     1      -5.756   3.161 127.403  0.00  0.00    +0.000 C 
ATOM      6  S   UNL     1      -4.397   2.142 126.725  0.00  0.00    +0.000 S 
ATOM      7  C   UNL     1      -3.130   3.345 127.398  0.00  0.00    +0.000 C 
ATOM      8  C   UNL     1      -1.862   3.155 126.562  0.00  0.00    +0.000 C 
ATOM      9  C   UNL     1      -2.934   2.938 128.870  0.00  0.00    +0.000 C 
ATOM     10  CA  UNL     1      -3.780   4.730 127.172  0.00  0.00    +0.000 C 
ATOM     11  N   UNL     1      -5.235   4.538 127.354  0.00  0.00    +0.000 N 
ATOM     12  C   UNL     1      -6.123   4.925 126.380  0.00  0.00    +0.000 C 
ATOM     13  O   UNL     1      -6.120   5.897 125.651  0.00  0.00    +0.000 OA
ATOM     14  CA  UNL     1      -6.893   3.577 126.463  0.00  0.00    +0.000 C 
BRANCH  10  15
ATOM     15  C   UNL     1      -3.277   5.948 127.984  0.00  0.00    +0.000 C 
ATOM     16  OXT UNL     1      -4.038   6.743 128.524  0.00  0.00    +0.000 OA
BRANCH  15  17
ATOM     17  O   UNL     1      -1.952   6.171 128.085  0.00  0.00    +0.000 OA
ATOM     18  H   UNL     1      -1.401   5.651 128.689  0.00  0.00    +0.000 HD
ENDBRANCH  15  17
ENDBRANCH  10  15
ENDBRANCH   1  14
BRANCH   2  19
ATOM     19  CA  UNL     1      -8.319   2.162 123.135  0.00  0.00    +0.000 C 
BRANCH  19  20
ATOM     20  C   UNL     1      -7.889   2.919 121.885  0.00  0.00    +0.000 A 
ATOM     21  C   UNL     1      -6.531   3.138 121.601  0.00  0.00    +0.000 A 
ATOM     22  C   UNL     1      -6.148   3.821 120.438  0.00  0.00    +0.000 A 
ATOM     23  C   UNL     1      -7.122   4.288 119.560  0.00  0.00    +0.000 A 
ATOM     24  C   UNL     1      -8.466   4.108 119.837  0.00  0.00    +0.000 A 
ATOM     25  C   UNL     1      -8.845   3.443 120.998  0.00  0.00    +0.000 A 
BRANCH  23  26
ATOM     26  O   UNL     1      -6.816   4.939 118.402  0.00  0.00    +0.000 OA
ATOM     27  H   UNL     1      -5.907   4.726 118.144  0.00  0.00    +0.000 HD
ENDBRANCH  23  26
ENDBRANCH  19  20
BRANCH  19  28
ATOM     28  N   UNL     1      -7.516   0.938 123.300  0.00  0.00    +0.000 NA
ATOM     29  H1  UNL     1      -8.157   0.143 123.224  0.00  0.00    +0.000 HD
ATOM     30  H2  UNL     1      -7.147   0.903 124.247  0.00  0.00    +0.000 HD
ENDBRANCH  19  28
ENDBRANCH   2  19
TORSDOF 7
ENDMDL
MODEL 3
REMARK VINA RESULT:      -7.2      7.489      9.989
REMARK  Name = Amoxicillin
REMARK  9 active torsions:
REMARK  status: ('A' for Active; 'I' for Inactive)
REMARK    1  A    between atoms: C_4  and  C_5
REMARK    2  A    between atoms: C_4  and  C_6
REMARK    3  A    between atoms: CA_7  and  C_24
REMARK    4  A    between atoms: CA_11  and  N_12
REMARK    5  A    between atoms: C_13  and  CA_15
REMARK    6  A    between atoms: CA_15  and  N_16
REMARK    7  A    between atoms: CA_15  and  C_17
REMARK    8  A    between atoms: C_20  and  O_21
REMARK    9  A    between atoms: C_24  and  O_25
REMARK                            x       y       z     vdW  Elec       q    Type
REMARK                         _______ _______ _______ _____ _____    ______ ____
ROOT
ATOM      1  N   UNL     1      -7.177   1.734 124.465  0.00  0.00    +0.000 N 
ATOM      2  C   UNL     1      -7.169   3.093 124.228  0.00  0.00    +0.000 C 
ATOM      3  O   UNL     1      -8.215   3.743 124.288  0.00  0.00    +0.000 OA
ATOM      4  H   UNL     1      -6.306   1.215 124.484  0.00  0.00    +0.000 HD
ENDROOT
BRANCH   1  14
ATOM      5  C   UNL     1      -8.799  -0.236 124.046  0.00  0.00    +0.000 C 
ATOM      6  S   UNL     1      -7.429  -1.151 123.254  0.00  0.00    +0.000 S 
ATOM      7  C   UNL     1      -7.946  -2.725 124.126  0.00  0.00    +0.000 C 
ATOM      8  C   UNL     1      -6.709  -3.625 124.172  0.00  0.00    +0.000 C 
ATOM      9  C   UNL     1      -9.073  -3.313 123.257  0.00  0.00    +0.000 C 
ATOM     10  CA  UNL     1      -8.374  -2.243 125.533  0.00  0.00    +0.000 C 
ATOM     11  N   UNL     1      -8.980  -0.908 125.345  0.00  0.00    +0.000 N 
ATOM     12  C   UNL     1      -8.529   0.176 126.059  0.00  0.00    +0.000 C 
ATOM     13  O   UNL     1      -8.163   0.262 127.214  0.00  0.00    +0.000 OA
ATOM     14  CA  UNL     1      -8.473   1.067 124.786  0.00  0.00    +0.000 C 
BRANCH  10  15
ATOM     15  C   UNL     1      -9.283  -3.146 126.402  0.00  0.00    +0.000 C 
ATOM     16  OXT UNL     1     -10.497  -3.206 126.247  0.00  0.00    +0.000 OA
BRANCH  15  17
ATOM     17  O   UNL     1      -8.733  -3.879 127.390  0.00  0.00    +0.000 OA
ATOM     18  H   UNL     1      -7.771  -3.935 127.497  0.00  0.00    +0.000 HD
ENDBRANCH  15  17
ENDBRANCH  10  15
ENDBRANCH   1  14
BRANCH   2  19
ATOM     19  CA  UNL     1      -5.798   3.728 123.852  0.00  0.00    +0.000 C 
BRANCH  19  20
ATOM     20  C   UNL     1      -5.756   4.140 122.386  0.00  0.00    +0.000 A 
ATOM     21  C   UNL     1      -6.738   3.703 121.482  0.00  0.00    +0.000 A 
ATOM     22  C   UNL     1      -6.699   4.104 120.139  0.00  0.00    +0.000 A 
ATOM     23  C   UNL     1      -5.677   4.942 119.699  0.00  0.00    +0.000 A 
ATOM     24  C   UNL     1      -4.685   5.359 120.568  0.00  0.00    +0.000 A 
ATOM     25  C   UNL     1      -4.717   4.950 121.897  0.00  0.00    +0.000 A 
BRANCH  23  26
ATOM     26  O   UNL     1      -5.594   5.386 118.413  0.00  0.00    +0.000 OA
ATOM     27  H   UNL     1      -5.781   6.337 118.388  0.00  0.00    +0.000 HD
ENDBRANCH  23  26
ENDBRANCH  19  20
BRANCH  19  28
ATOM     28  N   UNL     1      -5.557   4.891 124.723  0.00  0.00    +0.000 NA
ATOM     29  H1  UNL     1      -5.191   5.642 124.131  0.00  0.00    +0.000 HD
ATOM     30  H2  UNL     1      -4.811   4.671 125.379  0.00  0.00    +0.000 HD
ENDBRANCH  19  28
ENDBRANCH   2  19
TORSDOF 7
ENDMDL
MODEL 4
REMARK VINA RESULT:      -7.1      5.684      7.973
REMARK  Name = Amoxicillin
REMARK  9 active torsions:
REMARK  status: ('A' for Active; 'I' for Inactive)
REMARK    1  A    between atoms: C_4  and  C_5
REMARK    2  A    between atoms: C_4  and  C_6
REMARK    3  A    between atoms: CA_7  and  C_24
REMARK    4  A    between atoms: CA_11  and  N_12
REMARK    5  A    between atoms: C_13  and  CA_15
REMARK    6  A    between atoms: CA_15  and  N_16
REMARK    7  A    between atoms: CA_15  and  C_17
REMARK    8  A    between atoms: C_20  and  O_21
REMARK    9  A    between atoms: C_24  and  O_25
REMARK                            x       y       z     vdW  Elec       q    Type
REMARK                         _______ _______ _______ _____ _____    ______ ____
ROOT
ATOM      1  N   UNL     1      -7.212   2.847 124.704  0.00  0.00    +0.000 N 
ATOM      2  C   UNL     1      -8.381   2.162 124.445  0.00  0.00    +0.000 C 
ATOM      3  O   UNL     1      -9.332   2.234 125.227  0.00  0.00    +0.000 OA
ATOM      4  H   UNL     1      -6.459   2.843 124.026  0.00  0.00    +0.000 HD
ENDROOT
BRANCH   1  14
ATOM      5  C   UNL     1      -6.105   3.229 127.010  0.00  0.00    +0.000 C 
ATOM      6  S   UNL     1      -4.753   2.105 126.509  0.00  0.00    +0.000 S 
ATOM      7  C   UNL     1      -3.486   3.261 127.260  0.00  0.00    +0.000 C 
ATOM      8  C   UNL     1      -2.156   2.963 126.562  0.00  0.00    +0.000 C 
ATOM      9  C   UNL     1      -3.459   2.906 128.758  0.00  0.00    +0.000 C 
ATOM     10  CA  UNL     1      -4.025   4.671 126.919  0.00  0.00    +0.000 C 
ATOM     11  N   UNL     1      -5.499   4.570 126.963  0.00  0.00    +0.000 N 
ATOM     12  C   UNL     1      -6.263   4.966 125.892  0.00  0.00    +0.000 C 
ATOM     13  O   UNL     1      -6.130   5.904 125.132  0.00  0.00    +0.000 OA
ATOM     14  CA  UNL     1      -7.119   3.669 125.947  0.00  0.00    +0.000 C 
BRANCH  10  15
ATOM     15  C   UNL     1      -3.529   5.891 127.733  0.00  0.00    +0.000 C 
ATOM     16  OXT UNL     1      -4.293   6.721 128.212  0.00  0.00    +0.000 OA
BRANCH  15  17
ATOM     17  O   UNL     1      -2.205   6.075 127.904  0.00  0.00    +0.000 OA
ATOM     18  H   UNL     1      -1.862   6.579 128.658  0.00  0.00    +0.000 HD
ENDBRANCH  15  17
ENDBRANCH  10  15
ENDBRANCH   1  14
BRANCH   2  19
ATOM     19  CA  UNL     1      -8.405   1.284 123.160  0.00  0.00    +0.000 C 
BRANCH  19  20
ATOM     20  C   UNL     1      -8.077  -0.171 123.470  0.00  0.00    +0.000 A 
ATOM     21  C   UNL     1      -6.820  -0.538 123.980  0.00  0.00    +0.000 A 
ATOM     22  C   UNL     1      -6.536  -1.878 124.278  0.00  0.00    +0.000 A 
ATOM     23  C   UNL     1      -7.507  -2.853 124.063  0.00  0.00    +0.000 A 
ATOM     24  C   UNL     1      -8.740  -2.515 123.534  0.00  0.00    +0.000 A 
ATOM     25  C   UNL     1      -9.016  -1.187 123.226  0.00  0.00    +0.000 A 
BRANCH  23  26
ATOM     26  O   UNL     1      -7.303  -4.169 124.353  0.00  0.00    +0.000 OA
ATOM     27  H   UNL     1      -6.954  -4.250 125.253  0.00  0.00    +0.000 HD
ENDBRANCH  23  26
ENDBRANCH  19  20
BRANCH  19  28
ATOM     28  N   UNL     1      -9.736   1.392 122.536  0.00  0.00    +0.000 NA
ATOM     29  H1  UNL     1      -9.628   1.961 121.692  0.00  0.00    +0.000 HD
ATOM     30  H2  UNL     1     -10.351   1.924 123.147  0.00  0.00    +0.000 HD
ENDBRANCH  19  28
ENDBRANCH   2  19
TORSDOF 7
ENDMDL
MODEL 5
REMARK VINA RESULT:      -6.9      4.084      5.395
REMARK  Name = Amoxicillin
REMARK  9 active torsions:
REMARK  status: ('A' for Active; 'I' for Inactive)
REMARK    1  A    between atoms: C_4  and  C_5
REMARK    2  A    between atoms: C_4  and  C_6
REMARK    3  A    between atoms: CA_7  and  C_24
REMARK    4  A    between atoms: CA_11  and  N_12
REMARK    5  A    between atoms: C_13  and  CA_15
REMARK    6  A    between atoms: CA_15  and  N_16
REMARK    7  A    between atoms: CA_15  and  C_17
REMARK    8  A    between atoms: C_20  and  O_21
REMARK    9  A    between atoms: C_24  and  O_25
REMARK                            x       y       z     vdW  Elec       q    Type
REMARK                         _______ _______ _______ _____ _____    ______ ____
ROOT
ATOM      1  N   UNL     1      -8.666   3.890 131.224  0.00  0.00    +0.000 N 
ATOM      2  C   UNL     1      -9.768   4.644 130.878  0.00  0.00    +0.000 C 
ATOM      3  O   UNL     1     -10.612   4.192 130.101  0.00  0.00    +0.000 OA
ATOM      4  H   UNL     1      -8.010   4.235 131.917  0.00  0.00    +0.000 HD
ENDROOT
BRANCH   1  14
ATOM      5  C   UNL     1      -7.180   1.803 130.871  0.00  0.00    +0.000 C 
ATOM      6  S   UNL     1      -6.109   2.377 132.237  0.00  0.00    +0.000 S 
ATOM      7  C   UNL     1      -5.994   0.632 132.907  0.00  0.00    +0.000 C 
ATOM      8  C   UNL     1      -5.634   0.758 134.390  0.00  0.00    +0.000 C 
ATOM      9  C   UNL     1      -4.880  -0.040 132.084  0.00  0.00    +0.000 C 
ATOM     10  CA  UNL     1      -7.416   0.061 132.695  0.00  0.00    +0.000 C 
ATOM     11  N   UNL     1      -7.920   0.665 131.443  0.00  0.00    +0.000 N 
ATOM     12  C   UNL     1      -9.122   1.331 131.418  0.00  0.00    +0.000 C 
ATOM     13  O   UNL     1     -10.170   1.087 131.982  0.00  0.00    +0.000 OA
ATOM     14  CA  UNL     1      -8.511   2.527 130.636  0.00  0.00    +0.000 C 
BRANCH  10  15
ATOM     15  C   UNL     1      -7.626  -1.473 132.692  0.00  0.00    +0.000 C 
ATOM     16  OXT UNL     1      -7.612  -2.141 131.664  0.00  0.00    +0.000 OA
BRANCH  15  17
ATOM     17  O   UNL     1      -7.863  -2.108 133.857  0.00  0.00    +0.000 OA
ATOM     18  H   UNL     1      -7.139  -2.484 134.380  0.00  0.00    +0.000 HD
ENDBRANCH  15  17
ENDBRANCH  10  15
ENDBRANCH   1  14
BRANCH   2  19
ATOM     19  CA  UNL     1      -9.854   6.075 131.484  0.00  0.00    +0.000 C 
BRANCH  19  20
ATOM     20  C   UNL     1     -10.688   7.003 130.611  0.00  0.00    +0.000 A 
ATOM     21  C   UNL     1     -10.144   7.601 129.461  0.00  0.00    +0.000 A 
ATOM     22  C   UNL     1     -10.927   8.439 128.655  0.00  0.00    +0.000 A 
ATOM     23  C   UNL     1     -12.254   8.683 128.999  0.00  0.00    +0.000 A 
ATOM     24  C   UNL     1     -12.799   8.127 130.143  0.00  0.00    +0.000 A 
ATOM     25  C   UNL     1     -12.017   7.307 130.949  0.00  0.00    +0.000 A 
BRANCH  23  26
ATOM     26  O   UNL     1     -13.075   9.468 128.248  0.00  0.00    +0.000 OA
ATOM     27  H   UNL     1     -12.890  10.401 128.436  0.00  0.00    +0.000 HD
ENDBRANCH  23  26
ENDBRANCH  19  20
BRANCH  19  28
ATOM     28  N   UNL     1     -10.428   5.985 132.838  0.00  0.00    +0.000 NA
ATOM     29  H1  UNL     1      -9.874   5.296 133.355  0.00  0.00    +0.000 HD
ATOM     30  H2  UNL     1     -11.365   5.595 132.780  0.00  0.00    +0.000 HD
ENDBRANCH  19  28
ENDBRANCH   2  19
TORSDOF 7
ENDMDL
MODEL 6
REMARK VINA RESULT:      -6.9      3.524      4.056
REMARK  Name = Amoxicillin
REMARK  9 active torsions:
REMARK  status: ('A' for Active; 'I' for Inactive)
REMARK    1  A    between atoms: C_4  and  C_5
REMARK    2  A    between atoms: C_4  and  C_6
REMARK    3  A    between atoms: CA_7  and  C_24
REMARK    4  A    between atoms: CA_11  and  N_12
REMARK    5  A    between atoms: C_13  and  CA_15
REMARK    6  A    between atoms: CA_15  and  N_16
REMARK    7  A    between atoms: CA_15  and  C_17
REMARK    8  A    between atoms: C_20  and  O_21
REMARK    9  A    between atoms: C_24  and  O_25
REMARK                            x       y       z     vdW  Elec       q    Type
REMARK                         _______ _______ _______ _____ _____    ______ ____
ROOT
ATOM      1  N   UNL     1      -8.873   3.711 130.344  0.00  0.00    +0.000 N 
ATOM      2  C   UNL     1     -10.085   4.342 130.534  0.00  0.00    +0.000 C 
ATOM      3  O   UNL     1     -11.119   3.856 130.069  0.00  0.00    +0.000 OA
ATOM      4  H   UNL     1      -8.035   4.074 130.786  0.00  0.00    +0.000 HD
ENDROOT
BRANCH   1  14
ATOM      5  C   UNL     1      -7.837   2.351 128.404  0.00  0.00    +0.000 C 
ATOM      6  S   UNL     1      -6.438   3.527 128.372  0.00  0.00    +0.000 S 
ATOM      7  C   UNL     1      -5.226   2.114 128.167  0.00  0.00    +0.000 C 
ATOM      8  C   UNL     1      -3.871   2.627 128.661  0.00  0.00    +0.000 C 
ATOM      9  C   UNL     1      -5.226   1.803 126.659  0.00  0.00    +0.000 C 
ATOM     10  CA  UNL     1      -5.800   1.002 129.076  0.00  0.00    +0.000 C 
ATOM     11  N   UNL     1      -7.271   1.132 129.008  0.00  0.00    +0.000 N 
ATOM     12  C   UNL     1      -8.020   1.255 130.153  0.00  0.00    +0.000 C 
ATOM     13  O   UNL     1      -7.897   0.720 131.237  0.00  0.00    +0.000 OA
ATOM     14  CA  UNL     1      -8.836   2.440 129.563  0.00  0.00    +0.000 C 
BRANCH  10  15
ATOM     15  C   UNL     1      -5.363  -0.466 128.849  0.00  0.00    +0.000 C 
ATOM     16  OXT UNL     1      -6.072  -1.286 128.277  0.00  0.00    +0.000 OA
BRANCH  15  17
ATOM     17  O   UNL     1      -4.170  -0.879 129.319  0.00  0.00    +0.000 OA
ATOM     18  H   UNL     1      -3.491  -1.231 128.724  0.00  0.00    +0.000 HD
ENDBRANCH  15  17
ENDBRANCH  10  15
ENDBRANCH   1  14
BRANCH   2  19
ATOM     19  CA  UNL     1     -10.057   5.689 131.314  0.00  0.00    +0.000 C 
BRANCH  19  20
ATOM     20  C   UNL     1     -10.809   6.783 130.568  0.00  0.00    +0.000 A 
ATOM     21  C   UNL     1     -10.234   7.436 129.465  0.00  0.00    +0.000 A 
ATOM     22  C   UNL     1     -10.943   8.429 128.775  0.00  0.00    +0.000 A 
ATOM     23  C   UNL     1     -12.227   8.773 129.190  0.00  0.00    +0.000 A 
ATOM     24  C   UNL     1     -12.800   8.162 130.292  0.00  0.00    +0.000 A 
ATOM     25  C   UNL     1     -12.090   7.186 130.983  0.00  0.00    +0.000 A 
BRANCH  23  26
ATOM     26  O   UNL     1     -12.978   9.713 128.550  0.00  0.00    +0.000 OA
ATOM     27  H   UNL     1     -12.412  10.455 128.289  0.00  0.00    +0.000 HD
ENDBRANCH  23  26
ENDBRANCH  19  20
BRANCH  19  28
ATOM     28  N   UNL     1     -10.643   5.476 132.649  0.00  0.00    +0.000 NA
ATOM     29  H1  UNL     1     -11.458   4.867 132.528  0.00  0.00    +0.000 HD
ATOM     30  H2  UNL     1     -11.011   6.357 132.999  0.00  0.00    +0.000 HD
ENDBRANCH  19  28
ENDBRANCH   2  19
TORSDOF 7
ENDMDL
MODEL 7
REMARK VINA RESULT:      -6.8      4.309      5.202
REMARK  Name = Amoxicillin
REMARK  9 active torsions:
REMARK  status: ('A' for Active; 'I' for Inactive)
REMARK    1  A    between atoms: C_4  and  C_5
REMARK    2  A    between atoms: C_4  and  C_6
REMARK    3  A    between atoms: CA_7  and  C_24
REMARK    4  A    between atoms: CA_11  and  N_12
REMARK    5  A    between atoms: C_13  and  CA_15
REMARK    6  A    between atoms: CA_15  and  N_16
REMARK    7  A    between atoms: CA_15  and  C_17
REMARK    8  A    between atoms: C_20  and  O_21
REMARK    9  A    between atoms: C_24  and  O_25
REMARK                            x       y       z     vdW  Elec       q    Type
REMARK                         _______ _______ _______ _____ _____    ______ ____
ROOT
ATOM      1  N   UNL     1      -8.317   3.868 128.219  0.00  0.00    +0.000 N 
ATOM      2  C   UNL     1      -8.066   4.649 129.328  0.00  0.00    +0.000 C 
ATOM      3  O   UNL     1      -7.009   5.277 129.421  0.00  0.00    +0.000 OA
ATOM      4  H   UNL     1      -9.215   3.409 128.112  0.00  0.00    +0.000 HD
ENDROOT
BRANCH   1  14
ATOM      5  C   UNL     1      -7.273   2.535 126.264  0.00  0.00    +0.000 C 
ATOM      6  S   UNL     1      -8.774   1.492 126.219  0.00  0.00    +0.000 S 
ATOM      7  C   UNL     1      -8.782   1.548 124.347  0.00  0.00    +0.000 C 
ATOM      8  C   UNL     1     -10.219   1.255 123.909  0.00  0.00    +0.000 C 
ATOM      9  C   UNL     1      -7.795   0.451 123.909  0.00  0.00    +0.000 C 
ATOM     10  CA  UNL     1      -8.353   2.998 124.020  0.00  0.00    +0.000 C 
ATOM     11  N   UNL     1      -7.389   3.390 125.070  0.00  0.00    +0.000 N 
ATOM     12  C   UNL     1      -7.580   4.533 125.809  0.00  0.00    +0.000 C 
ATOM     13  O   UNL     1      -8.000   5.624 125.478  0.00  0.00    +0.000 OA
ATOM     14  CA  UNL     1      -7.286   3.792 127.143  0.00  0.00    +0.000 C 
BRANCH  10  15
ATOM     15  C   UNL     1      -7.802   3.328 122.611  0.00  0.00    +0.000 C 
ATOM     16  OXT UNL     1      -6.625   3.169 122.308  0.00  0.00    +0.000 OA
BRANCH  15  17
ATOM     17  O   UNL     1      -8.632   3.838 121.681  0.00  0.00    +0.000 OA
ATOM     18  H   UNL     1      -8.458   4.699 121.271  0.00  0.00    +0.000 HD
ENDBRANCH  15  17
ENDBRANCH  10  15
ENDBRANCH   1  14
BRANCH   2  19
ATOM     19  CA  UNL     1      -9.156   4.654 130.440  0.00  0.00    +0.000 C 
BRANCH  19  20
ATOM     20  C   UNL     1     -10.150   5.791 130.245  0.00  0.00    +0.000 A 
ATOM     21  C   UNL     1     -11.426   5.748 130.831  0.00  0.00    +0.000 A 
ATOM     22  C   UNL     1     -12.325   6.809 130.658  0.00  0.00    +0.000 A 
ATOM     23  C   UNL     1     -11.951   7.914 129.897  0.00  0.00    +0.000 A 
ATOM     24  C   UNL     1     -10.710   7.961 129.288  0.00  0.00    +0.000 A 
ATOM     25  C   UNL     1      -9.823   6.902 129.448  0.00  0.00    +0.000 A 
BRANCH  23  26
ATOM     26  O   UNL     1     -12.769   8.987 129.709  0.00  0.00    +0.000 OA
ATOM     27  H   UNL     1     -12.274   9.696 129.270  0.00  0.00    +0.000 HD
ENDBRANCH  23  26
ENDBRANCH  19  20
BRANCH  19  28
ATOM     28  N   UNL     1      -9.849   3.354 130.431  0.00  0.00    +0.000 NA
ATOM     29  H1  UNL     1      -9.189   2.662 130.062  0.00  0.00    +0.000 HD
ATOM     30  H2  UNL     1     -10.614   3.385 129.763  0.00  0.00    +0.000 HD
ENDBRANCH  19  28
ENDBRANCH   2  19
TORSDOF 7
ENDMDL
MODEL 8
REMARK VINA RESULT:      -6.7      6.933      9.645
REMARK  Name = Amoxicillin
REMARK  9 active torsions:
REMARK  status: ('A' for Active; 'I' for Inactive)
REMARK    1  A    between atoms: C_4  and  C_5
REMARK    2  A    between atoms: C_4  and  C_6
REMARK    3  A    between atoms: CA_7  and  C_24
REMARK    4  A    between atoms: CA_11  and  N_12
REMARK    5  A    between atoms: C_13  and  CA_15
REMARK    6  A    between atoms: CA_15  and  N_16
REMARK    7  A    between atoms: CA_15  and  C_17
REMARK    8  A    between atoms: C_20  and  O_21
REMARK    9  A    between atoms: C_24  and  O_25
REMARK                            x       y       z     vdW  Elec       q    Type
REMARK                         _______ _______ _______ _____ _____    ______ ____
ROOT
ATOM      1  N   UNL     1      -8.838  -0.077 124.915  0.00  0.00    +0.000 N 
ATOM      2  C   UNL     1      -9.411  -0.673 123.811  0.00  0.00    +0.000 C 
ATOM      3  O   UNL     1     -10.069  -0.002 123.013  0.00  0.00    +0.000 OA
ATOM      4  H   UNL     1      -8.239  -0.616 125.532  0.00  0.00    +0.000 HD
ENDROOT
BRANCH   1  14
ATOM      5  C   UNL     1      -8.325   2.028 126.326  0.00  0.00    +0.000 C 
ATOM      6  S   UNL     1      -6.916   1.139 127.080  0.00  0.00    +0.000 S 
ATOM      7  C   UNL     1      -5.847   2.669 126.940  0.00  0.00    +0.000 C 
ATOM      8  C   UNL     1      -4.394   2.188 126.951  0.00  0.00    +0.000 C 
ATOM      9  C   UNL     1      -6.198   3.517 128.177  0.00  0.00    +0.000 C 
ATOM     10  CA  UNL     1      -6.253   3.280 125.578  0.00  0.00    +0.000 C 
ATOM     11  N   UNL     1      -7.695   2.997 125.413  0.00  0.00    +0.000 N 
ATOM     12  C   UNL     1      -8.162   2.361 124.288  0.00  0.00    +0.000 C 
ATOM     13  O   UNL     1      -7.824   2.466 123.125  0.00  0.00    +0.000 OA
ATOM     14  CA  UNL     1      -9.034   1.387 125.128  0.00  0.00    +0.000 C 
BRANCH  10  15
ATOM     15  C   UNL     1      -5.945   4.770 125.291  0.00  0.00    +0.000 C 
ATOM     16  OXT UNL     1      -5.621   5.560 126.170  0.00  0.00    +0.000 OA
BRANCH  15  17
ATOM     17  O   UNL     1      -6.062   5.237 124.032  0.00  0.00    +0.000 OA
ATOM     18  H   UNL     1      -6.903   5.593 123.706  0.00  0.00    +0.000 HD
ENDBRANCH  15  17
ENDBRANCH  10  15
ENDBRANCH   1  14
BRANCH   2  19
ATOM     19  CA  UNL     1      -9.213  -2.210 123.665  0.00  0.00    +0.000 C 
BRANCH  19  20
ATOM     20  C   UNL     1      -7.739  -2.576 123.550  0.00  0.00    +0.000 A 
ATOM     21  C   UNL     1      -6.895  -1.910 122.646  0.00  0.00    +0.000 A 
ATOM     22  C   UNL     1      -5.536  -2.244 122.563  0.00  0.00    +0.000 A 
ATOM     23  C   UNL     1      -5.020  -3.246 123.381  0.00  0.00    +0.000 A 
ATOM     24  C   UNL     1      -5.842  -3.933 124.257  0.00  0.00    +0.000 A 
ATOM     25  C   UNL     1      -7.193  -3.610 124.329  0.00  0.00    +0.000 A 
BRANCH  23  26
ATOM     26  O   UNL     1      -3.705  -3.603 123.365  0.00  0.00    +0.000 OA
ATOM     27  H   UNL     1      -3.277  -3.219 122.585  0.00  0.00    +0.000 HD
ENDBRANCH  23  26
ENDBRANCH  19  20
BRANCH  19  28
ATOM     28  N   UNL     1      -9.824  -2.880 124.826  0.00  0.00    +0.000 NA
ATOM     29  H1  UNL     1      -9.451  -2.427 125.666  0.00  0.00    +0.000 HD
ATOM     30  H2  UNL     1      -9.498  -3.843 124.869  0.00  0.00    +0.000 HD
ENDBRANCH  19  28
ENDBRANCH   2  19
TORSDOF 7
ENDMDL
MODEL 9
REMARK VINA RESULT:      -6.6      6.318      8.851
REMARK  Name = Amoxicillin
REMARK  9 active torsions:
REMARK  status: ('A' for Active; 'I' for Inactive)
REMARK    1  A    between atoms: C_4  and  C_5
REMARK    2  A    between atoms: C_4  and  C_6
REMARK    3  A    between atoms: CA_7  and  C_24
REMARK    4  A    between atoms: CA_11  and  N_12
REMARK    5  A    between atoms: C_13  and  CA_15
REMARK    6  A    between atoms: CA_15  and  N_16
REMARK    7  A    between atoms: CA_15  and  C_17
REMARK    8  A    between atoms: C_20  and  O_21
REMARK    9  A    between atoms: C_24  and  O_25
REMARK                            x       y       z     vdW  Elec       q    Type
REMARK                         _______ _______ _______ _____ _____    ______ ____
ROOT
ATOM      1  N   UNL     1      -7.913   0.887 125.244  0.00  0.00    +0.000 N 
ATOM      2  C   UNL     1      -8.989   0.221 124.695  0.00  0.00    +0.000 C 
ATOM      3  O   UNL     1     -10.068   0.181 125.291  0.00  0.00    +0.000 OA
ATOM      4  H   UNL     1      -7.050   0.978 124.721  0.00  0.00    +0.000 HD
ENDROOT
BRANCH   1  14
ATOM      5  C   UNL     1      -6.899   1.477 127.548  0.00  0.00    +0.000 C 
ATOM      6  S   UNL     1      -5.244   1.076 126.885  0.00  0.00    +0.000 S 
ATOM      7  C   UNL     1      -4.516   2.579 127.731  0.00  0.00    +0.000 C 
ATOM      8  C   UNL     1      -3.237   2.932 126.968  0.00  0.00    +0.000 C 
ATOM      9  C   UNL     1      -4.237   2.128 129.176  0.00  0.00    +0.000 C 
ATOM     10  CA  UNL     1      -5.612   3.659 127.571  0.00  0.00    +0.000 C 
ATOM     11  N   UNL     1      -6.906   2.947 127.641  0.00  0.00    +0.000 N 
ATOM     12  C   UNL     1      -7.841   3.086 126.643  0.00  0.00    +0.000 C 
ATOM     13  O   UNL     1      -8.162   4.061 125.994  0.00  0.00    +0.000 OA
ATOM     14  CA  UNL     1      -8.078   1.551 126.571  0.00  0.00    +0.000 C 
BRANCH  10  15
ATOM     15  C   UNL     1      -5.607   4.892 128.507  0.00  0.00    +0.000 C 
ATOM     16  OXT UNL     1      -4.681   5.694 128.539  0.00  0.00    +0.000 OA
BRANCH  15  17
ATOM     17  O   UNL     1      -6.644   5.087 129.345  0.00  0.00    +0.000 OA
ATOM     18  H   UNL     1      -6.684   4.641 130.205  0.00  0.00    +0.000 HD
ENDBRANCH  15  17
ENDBRANCH  10  15
ENDBRANCH   1  14
BRANCH   2  19
ATOM     19  CA  UNL     1      -8.747  -0.493 123.332  0.00  0.00    +0.000 C 
BRANCH  19  20
ATOM     20  C   UNL     1      -7.698  -1.590 123.454  0.00  0.00    +0.000 A 
ATOM     21  C   UNL     1      -6.447  -1.471 122.826  0.00  0.00    +0.000 A 
ATOM     22  C   UNL     1      -5.483  -2.481 122.961  0.00  0.00    +0.000 A 
ATOM     23  C   UNL     1      -5.770  -3.611 123.722  0.00  0.00    +0.000 A 
ATOM     24  C   UNL     1      -7.006  -3.760 124.324  0.00  0.00    +0.000 A 
ATOM     25  C   UNL     1      -7.967  -2.764 124.179  0.00  0.00    +0.000 A 
BRANCH  23  26
ATOM     26  O   UNL     1      -4.870  -4.616 123.911  0.00  0.00    +0.000 OA
ATOM     27  H   UNL     1      -5.334  -5.411 124.216  0.00  0.00    +0.000 HD
ENDBRANCH  23  26
ENDBRANCH  19  20
BRANCH  19  28
ATOM     28  N   UNL     1     -10.024  -1.050 122.854  0.00  0.00    +0.000 NA
ATOM     29  H1  UNL     1     -10.764  -0.655 123.442  0.00  0.00    +0.000 HD
ATOM     30  H2  UNL     1     -10.041  -2.051 123.030  0.00  0.00    +0.000 HD
ENDBRANCH  19  28
ENDBRANCH   2  19
TORSDOF 7
ENDMDL
