MODEL 1
REMARK VINA RESULT:      -8.4      0.000      0.000
REMARK  Name = Amoxapine
REMARK  0 active torsions:
REMARK  status: ('A' for Active; 'I' for Inactive)
REMARK                            x       y       z     vdW  Elec       q    Type
REMARK                         _______ _______ _______ _____ _____    ______ ____
ROOT
ATOM      1 CL   UNL     1      -8.686  -2.682 123.910  0.00  0.00    +0.000 Cl
ATOM      2  C   UNL     1      -8.782  -1.008 123.516  0.00  0.00    +0.000 A 
ATOM      3  C   UNL     1      -7.747  -0.157 123.900  0.00  0.00    +0.000 A 
ATOM      4  C   UNL     1      -7.786   1.210 123.609  0.00  0.00    +0.000 A 
ATOM      5  C   UNL     1      -8.895   1.691 122.900  0.00  0.00    +0.000 A 
ATOM      6  O   UNL     1      -9.045   3.013 122.560  0.00  0.00    +0.000 OA
ATOM      7  C   UNL     1      -8.064   3.445 121.700  0.00  0.00    +0.000 A 
ATOM      8  C   UNL     1      -8.478   3.873 120.430  0.00  0.00    +0.000 A 
ATOM      9  C   UNL     1      -7.534   4.329 119.515  0.00  0.00    +0.000 A 
ATOM     10  C   UNL     1      -6.189   4.360 119.874  0.00  0.00    +0.000 A 
ATOM     11  C   UNL     1      -5.790   3.940 121.152  0.00  0.00    +0.000 A 
ATOM     12  C   UNL     1      -6.720   3.475 122.087  0.00  0.00    +0.000 A 
ATOM     13  N   UNL     1      -6.271   3.167 123.392  0.00  0.00    +0.000 NA
ATOM     14  C   UNL     1      -6.714   2.163 124.094  0.00  0.00    +0.000 C 
ATOM     15  N   UNL     1      -6.245   2.022 125.402  0.00  0.00    +0.000 N 
ATOM     16  C   UNL     1      -6.218   3.164 126.331  0.00  0.00    +0.000 C 
ATOM     17  C   UNL     1      -6.850   2.713 127.677  0.00  0.00    +0.000 C 
ATOM     18  N   UNL     1      -6.212   1.508 128.260  0.00  0.00    +0.000 NA
ATOM     19  C   UNL     1      -6.172   0.430 127.247  0.00  0.00    +0.000 C 
ATOM     20  C   UNL     1      -5.482   0.896 125.943  0.00  0.00    +0.000 C 
ATOM     21  C   UNL     1      -9.941   0.837 122.519  0.00  0.00    +0.000 A 
ATOM     22  C   UNL     1      -9.883  -0.518 122.827  0.00  0.00    +0.000 A 
ATOM     23  H   UNL     1      -6.753   1.197 129.065  0.00  0.00    +0.000 HD
ENDROOT
TORSDOF 0
ENDMDL
MODEL 2
REMARK VINA RESULT:      -7.6      2.551      3.799
REMARK  Name = Amoxapine
REMARK  0 active torsions:
REMARK  status: ('A' for Active; 'I' for Inactive)
REMARK                            x       y       z     vdW  Elec       q    Type
REMARK                         _______ _______ _______ _____ _____    ______ ____
ROOT
ATOM      1 CL   UNL     1      -4.394  -4.215 123.781  0.00  0.00    +0.000 Cl
ATOM      2  C   UNL     1      -5.315  -2.763 123.874  0.00  0.00    +0.000 A 
ATOM      3  C   UNL     1      -5.256  -1.991 125.033  0.00  0.00    +0.000 A 
ATOM      4  C   UNL     1      -5.993  -0.809 125.155  0.00  0.00    +0.000 A 
ATOM      5  C   UNL     1      -6.780  -0.419 124.064  0.00  0.00    +0.000 A 
ATOM      6  O   UNL     1      -7.548   0.719 124.069  0.00  0.00    +0.000 OA
ATOM      7  C   UNL     1      -6.790   1.860 124.178  0.00  0.00    +0.000 A 
ATOM      8  C   UNL     1      -6.842   2.762 123.104  0.00  0.00    +0.000 A 
ATOM      9  C   UNL     1      -6.103   3.939 123.155  0.00  0.00    +0.000 A 
ATOM     10  C   UNL     1      -5.324   4.211 124.277  0.00  0.00    +0.000 A 
ATOM     11  C   UNL     1      -5.290   3.307 125.349  0.00  0.00    +0.000 A 
ATOM     12  C   UNL     1      -6.022   2.116 125.319  0.00  0.00    +0.000 A 
ATOM     13  N   UNL     1      -6.031   1.298 126.471  0.00  0.00    +0.000 NA
ATOM     14  C   UNL     1      -6.008  -0.004 126.438  0.00  0.00    +0.000 C 
ATOM     15  N   UNL     1      -6.106  -0.692 127.650  0.00  0.00    +0.000 N 
ATOM     16  C   UNL     1      -7.136  -0.347 128.644  0.00  0.00    +0.000 C 
ATOM     17  C   UNL     1      -7.829  -1.659 129.104  0.00  0.00    +0.000 C 
ATOM     18  N   UNL     1      -6.886  -2.682 129.616  0.00  0.00    +0.000 NA
ATOM     19  C   UNL     1      -5.814  -2.909 128.621  0.00  0.00    +0.000 C 
ATOM     20  C   UNL     1      -5.106  -1.590 128.231  0.00  0.00    +0.000 C 
ATOM     21  C   UNL     1      -6.847  -1.198 122.899  0.00  0.00    +0.000 A 
ATOM     22  C   UNL     1      -6.110  -2.375 122.804  0.00  0.00    +0.000 A 
ATOM     23  H   UNL     1      -7.389  -3.553 129.778  0.00  0.00    +0.000 HD
ENDROOT
TORSDOF 0
ENDMDL
MODEL 3
REMARK VINA RESULT:      -7.5      3.702      6.027
REMARK  Name = Amoxapine
REMARK  0 active torsions:
REMARK  status: ('A' for Active; 'I' for Inactive)
REMARK                            x       y       z     vdW  Elec       q    Type
REMARK                         _______ _______ _______ _____ _____    ______ ____
ROOT
ATOM      1 CL   UNL     1      -7.750  -0.390 130.100  0.00  0.00    +0.000 Cl
ATOM      2  C   UNL     1      -7.763  -1.224 128.594  0.00  0.00    +0.000 A 
ATOM      3  C   UNL     1      -7.319  -0.566 127.447  0.00  0.00    +0.000 A 
ATOM      4  C   UNL     1      -7.320  -1.201 126.202  0.00  0.00    +0.000 A 
ATOM      5  C   UNL     1      -7.766  -2.529 126.149  0.00  0.00    +0.000 A 
ATOM      6  O   UNL     1      -7.813  -3.253 124.984  0.00  0.00    +0.000 OA
ATOM      7  C   UNL     1      -6.568  -3.447 124.437  0.00  0.00    +0.000 A 
ATOM      8  C   UNL     1      -6.120  -4.772 124.332  0.00  0.00    +0.000 A 
ATOM      9  C   UNL     1      -4.870  -5.036 123.782  0.00  0.00    +0.000 A 
ATOM     10  C   UNL     1      -4.080  -3.979 123.335  0.00  0.00    +0.000 A 
ATOM     11  C   UNL     1      -4.545  -2.659 123.435  0.00  0.00    +0.000 A 
ATOM     12  C   UNL     1      -5.797  -2.369 123.988  0.00  0.00    +0.000 A 
ATOM     13  N   UNL     1      -6.253  -1.032 123.964  0.00  0.00    +0.000 NA
ATOM     14  C   UNL     1      -6.923  -0.476 124.932  0.00  0.00    +0.000 C 
ATOM     15  N   UNL     1      -7.387   0.828 124.743  0.00  0.00    +0.000 N 
ATOM     16  C   UNL     1      -8.091   1.218 123.511  0.00  0.00    +0.000 C 
ATOM     17  C   UNL     1      -9.380   1.989 123.908  0.00  0.00    +0.000 C 
ATOM     18  N   UNL     1      -9.129   3.151 124.793  0.00  0.00    +0.000 NA
ATOM     19  C   UNL     1      -8.328   2.720 125.960  0.00  0.00    +0.000 C 
ATOM     20  C   UNL     1      -7.023   2.010 125.527  0.00  0.00    +0.000 C 
ATOM     21  C   UNL     1      -8.219  -3.190 127.301  0.00  0.00    +0.000 A 
ATOM     22  C   UNL     1      -8.216  -2.534 128.528  0.00  0.00    +0.000 A 
ATOM     23  H   UNL     1     -10.020   3.528 125.114  0.00  0.00    +0.000 HD
ENDROOT
TORSDOF 0
ENDMDL
MODEL 4
REMARK VINA RESULT:      -7.5      2.210      2.831
REMARK  Name = Amoxapine
REMARK  0 active torsions:
REMARK  status: ('A' for Active; 'I' for Inactive)
REMARK                            x       y       z     vdW  Elec       q    Type
REMARK                         _______ _______ _______ _____ _____    ______ ____
ROOT
ATOM      1 CL   UNL     1      -5.468  -1.657 126.957  0.00  0.00    +0.000 Cl
ATOM      2  C   UNL     1      -6.158  -0.276 126.195  0.00  0.00    +0.000 A 
ATOM      3  C   UNL     1      -5.393   0.883 126.063  0.00  0.00    +0.000 A 
ATOM      4  C   UNL     1      -5.914   2.030 125.458  0.00  0.00    +0.000 A 
ATOM      5  C   UNL     1      -7.227   1.969 124.973  0.00  0.00    +0.000 A 
ATOM      6  O   UNL     1      -7.845   3.032 124.363  0.00  0.00    +0.000 OA
ATOM      7  C   UNL     1      -7.224   3.398 123.193  0.00  0.00    +0.000 A 
ATOM      8  C   UNL     1      -7.974   3.283 122.013  0.00  0.00    +0.000 A 
ATOM      9  C   UNL     1      -7.404   3.642 120.796  0.00  0.00    +0.000 A 
ATOM     10  C   UNL     1      -6.096   4.120 120.765  0.00  0.00    +0.000 A 
ATOM     11  C   UNL     1      -5.361   4.242 121.954  0.00  0.00    +0.000 A 
ATOM     12  C   UNL     1      -5.912   3.883 123.189  0.00  0.00    +0.000 A 
ATOM     13  N   UNL     1      -5.160   4.128 124.361  0.00  0.00    +0.000 NA
ATOM     14  C   UNL     1      -5.129   3.324 125.385  0.00  0.00    +0.000 C 
ATOM     15  N   UNL     1      -4.412   3.728 126.513  0.00  0.00    +0.000 N 
ATOM     16  C   UNL     1      -4.580   5.074 127.083  0.00  0.00    +0.000 C 
ATOM     17  C   UNL     1      -4.783   4.933 128.617  0.00  0.00    +0.000 C 
ATOM     18  N   UNL     1      -3.703   4.176 129.293  0.00  0.00    +0.000 NA
ATOM     19  C   UNL     1      -3.507   2.877 128.612  0.00  0.00    +0.000 C 
ATOM     20  C   UNL     1      -3.248   3.059 127.097  0.00  0.00    +0.000 C 
ATOM     21  C   UNL     1      -8.000   0.807 125.110  0.00  0.00    +0.000 A 
ATOM     22  C   UNL     1      -7.462  -0.321 125.723  0.00  0.00    +0.000 A 
ATOM     23  H   UNL     1      -3.963   4.013 130.265  0.00  0.00    +0.000 HD
ENDROOT
TORSDOF 0
ENDMDL
MODEL 5
REMARK VINA RESULT:      -7.5      3.529      6.899
REMARK  Name = Amoxapine
REMARK  0 active torsions:
REMARK  status: ('A' for Active; 'I' for Inactive)
REMARK                            x       y       z     vdW  Elec       q    Type
REMARK                         _______ _______ _______ _____ _____    ______ ____
ROOT
ATOM      1 CL   UNL     1      -7.986  -2.512 122.073  0.00  0.00    +0.000 Cl
ATOM      2  C   UNL     1      -7.189  -2.224 123.571  0.00  0.00    +0.000 A 
ATOM      3  C   UNL     1      -7.833  -1.473 124.553  0.00  0.00    +0.000 A 
ATOM      4  C   UNL     1      -7.220  -1.208 125.781  0.00  0.00    +0.000 A 
ATOM      5  C   UNL     1      -5.942  -1.739 125.998  0.00  0.00    +0.000 A 
ATOM      6  O   UNL     1      -5.241  -1.544 127.163  0.00  0.00    +0.000 OA
ATOM      7  C   UNL     1      -5.869  -2.103 128.250  0.00  0.00    +0.000 A 
ATOM      8  C   UNL     1      -5.184  -3.127 128.921  0.00  0.00    +0.000 A 
ATOM      9  C   UNL     1      -5.763  -3.729 130.033  0.00  0.00    +0.000 A 
ATOM     10  C   UNL     1      -7.014  -3.303 130.472  0.00  0.00    +0.000 A 
ATOM     11  C   UNL     1      -7.683  -2.269 129.799  0.00  0.00    +0.000 A 
ATOM     12  C   UNL     1      -7.122  -1.651 128.676  0.00  0.00    +0.000 A 
ATOM     13  N   UNL     1      -7.795  -0.546 128.106  0.00  0.00    +0.000 NA
ATOM     14  C   UNL     1      -7.868  -0.322 126.825  0.00  0.00    +0.000 C 
ATOM     15  N   UNL     1      -8.493   0.853 126.401  0.00  0.00    +0.000 N 
ATOM     16  C   UNL     1      -8.162   2.155 127.003  0.00  0.00    +0.000 C 
ATOM     17  C   UNL     1      -7.911   3.174 125.858  0.00  0.00    +0.000 C 
ATOM     18  N   UNL     1      -9.036   3.278 124.897  0.00  0.00    +0.000 NA
ATOM     19  C   UNL     1      -9.394   1.929 124.406  0.00  0.00    +0.000 C 
ATOM     20  C   UNL     1      -9.695   0.957 125.572  0.00  0.00    +0.000 C 
ATOM     21  C   UNL     1      -5.289  -2.490 125.009  0.00  0.00    +0.000 A 
ATOM     22  C   UNL     1      -5.917  -2.734 123.791  0.00  0.00    +0.000 A 
ATOM     23  H   UNL     1      -8.754   3.861 124.111  0.00  0.00    +0.000 HD
ENDROOT
TORSDOF 0
ENDMDL
MODEL 6
REMARK VINA RESULT:      -7.3      7.464      8.764
REMARK  Name = Amoxapine
REMARK  0 active torsions:
REMARK  status: ('A' for Active; 'I' for Inactive)
REMARK                            x       y       z     vdW  Elec       q    Type
REMARK                         _______ _______ _______ _____ _____    ______ ____
ROOT
ATOM      1 CL   UNL     1      -7.860   0.187 130.649  0.00  0.00    +0.000 Cl
ATOM      2  C   UNL     1      -8.350   1.738 131.215  0.00  0.00    +0.000 A 
ATOM      3  C   UNL     1      -7.802   2.880 130.632  0.00  0.00    +0.000 A 
ATOM      4  C   UNL     1      -8.165   4.159 131.066  0.00  0.00    +0.000 A 
ATOM      5  C   UNL     1      -9.111   4.253 132.095  0.00  0.00    +0.000 A 
ATOM      6  O   UNL     1      -9.542   5.453 132.604  0.00  0.00    +0.000 OA
ATOM      7  C   UNL     1     -10.201   6.212 131.667  0.00  0.00    +0.000 A 
ATOM      8  C   UNL     1     -11.549   6.504 131.921  0.00  0.00    +0.000 A 
ATOM      9  C   UNL     1     -12.270   7.273 131.014  0.00  0.00    +0.000 A 
ATOM     10  C   UNL     1     -11.642   7.750 129.866  0.00  0.00    +0.000 A 
ATOM     11  C   UNL     1     -10.290   7.461 129.630  0.00  0.00    +0.000 A 
ATOM     12  C   UNL     1      -9.545   6.686 130.526  0.00  0.00    +0.000 A 
ATOM     13  N   UNL     1      -8.162   6.518 130.287  0.00  0.00    +0.000 NA
ATOM     14  C   UNL     1      -7.517   5.408 130.505  0.00  0.00    +0.000 C 
ATOM     15  N   UNL     1      -6.135   5.404 130.305  0.00  0.00    +0.000 N 
ATOM     16  C   UNL     1      -5.279   6.465 130.860  0.00  0.00    +0.000 C 
ATOM     17  C   UNL     1      -4.072   5.796 131.574  0.00  0.00    +0.000 C 
ATOM     18  N   UNL     1      -3.310   4.866 130.708  0.00  0.00    +0.000 NA
ATOM     19  C   UNL     1      -4.236   3.889 130.094  0.00  0.00    +0.000 C 
ATOM     20  C   UNL     1      -5.391   4.591 129.341  0.00  0.00    +0.000 C 
ATOM     21  C   UNL     1      -9.657   3.104 132.687  0.00  0.00    +0.000 A 
ATOM     22  C   UNL     1      -9.276   1.842 132.244  0.00  0.00    +0.000 A 
ATOM     23  H   UNL     1      -2.619   4.371 131.271  0.00  0.00    +0.000 HD
ENDROOT
TORSDOF 0
ENDMDL
MODEL 7
REMARK VINA RESULT:      -7.2      6.145      8.402
REMARK  Name = Amoxapine
REMARK  0 active torsions:
REMARK  status: ('A' for Active; 'I' for Inactive)
REMARK                            x       y       z     vdW  Elec       q    Type
REMARK                         _______ _______ _______ _____ _____    ______ ____
ROOT
ATOM      1 CL   UNL     1      -9.538   2.083 132.727  0.00  0.00    +0.000 Cl
ATOM      2  C   UNL     1      -8.763   1.241 131.441  0.00  0.00    +0.000 A 
ATOM      3  C   UNL     1      -8.555  -0.134 131.554  0.00  0.00    +0.000 A 
ATOM      4  C   UNL     1      -7.923  -0.856 130.538  0.00  0.00    +0.000 A 
ATOM      5  C   UNL     1      -7.521  -0.154 129.394  0.00  0.00    +0.000 A 
ATOM      6  O   UNL     1      -6.890  -0.756 128.334  0.00  0.00    +0.000 OA
ATOM      7  C   UNL     1      -7.683  -1.693 127.716  0.00  0.00    +0.000 A 
ATOM      8  C   UNL     1      -8.023  -1.453 126.377  0.00  0.00    +0.000 A 
ATOM      9  C   UNL     1      -8.819  -2.367 125.693  0.00  0.00    +0.000 A 
ATOM     10  C   UNL     1      -9.263  -3.514 126.346  0.00  0.00    +0.000 A 
ATOM     11  C   UNL     1      -8.905  -3.748 127.683  0.00  0.00    +0.000 A 
ATOM     12  C   UNL     1      -8.109  -2.842 128.392  0.00  0.00    +0.000 A 
ATOM     13  N   UNL     1      -7.696  -3.184 129.699  0.00  0.00    +0.000 NA
ATOM     14  C   UNL     1      -7.610  -2.332 130.680  0.00  0.00    +0.000 C 
ATOM     15  N   UNL     1      -7.107  -2.787 131.901  0.00  0.00    +0.000 N 
ATOM     16  C   UNL     1      -5.870  -3.582 131.969  0.00  0.00    +0.000 C 
ATOM     17  C   UNL     1      -4.959  -2.974 133.071  0.00  0.00    +0.000 C 
ATOM     18  N   UNL     1      -5.619  -2.863 134.394  0.00  0.00    +0.000 NA
ATOM     19  C   UNL     1      -6.907  -2.150 134.246  0.00  0.00    +0.000 C 
ATOM     20  C   UNL     1      -7.812  -2.817 133.183  0.00  0.00    +0.000 C 
ATOM     21  C   UNL     1      -7.724   1.229 129.282  0.00  0.00    +0.000 A 
ATOM     22  C   UNL     1      -8.349   1.929 130.310  0.00  0.00    +0.000 A 
ATOM     23  H   UNL     1      -5.015  -2.344 135.030  0.00  0.00    +0.000 HD
ENDROOT
TORSDOF 0
ENDMDL
MODEL 8
REMARK VINA RESULT:      -7.0      4.056      5.566
REMARK  Name = Amoxapine
REMARK  0 active torsions:
REMARK  status: ('A' for Active; 'I' for Inactive)
REMARK                            x       y       z     vdW  Elec       q    Type
REMARK                         _______ _______ _______ _____ _____    ______ ____
ROOT
ATOM      1 CL   UNL     1      -3.795  -2.441 129.684  0.00  0.00    +0.000 Cl
ATOM      2  C   UNL     1      -5.263  -2.211 128.815  0.00  0.00    +0.000 A 
ATOM      3  C   UNL     1      -5.332  -1.213 127.844  0.00  0.00    +0.000 A 
ATOM      4  C   UNL     1      -6.506  -0.986 127.120  0.00  0.00    +0.000 A 
ATOM      5  C   UNL     1      -7.607  -1.808 127.392  0.00  0.00    +0.000 A 
ATOM      6  O   UNL     1      -8.811  -1.678 126.747  0.00  0.00    +0.000 OA
ATOM      7  C   UNL     1      -8.713  -1.928 125.399  0.00  0.00    +0.000 A 
ATOM      8  C   UNL     1      -9.444  -3.017 124.901  0.00  0.00    +0.000 A 
ATOM      9  C   UNL     1      -9.391  -3.319 123.544  0.00  0.00    +0.000 A 
ATOM     10  C   UNL     1      -8.617  -2.532 122.695  0.00  0.00    +0.000 A 
ATOM     11  C   UNL     1      -7.900  -1.439 123.205  0.00  0.00    +0.000 A 
ATOM     12  C   UNL     1      -7.935  -1.118 124.565  0.00  0.00    +0.000 A 
ATOM     13  N   UNL     1      -7.278   0.056 125.000  0.00  0.00    +0.000 NA
ATOM     14  C   UNL     1      -6.625   0.149 126.123  0.00  0.00    +0.000 C 
ATOM     15  N   UNL     1      -6.093   1.393 126.470  0.00  0.00    +0.000 N 
ATOM     16  C   UNL     1      -6.904   2.619 126.390  0.00  0.00    +0.000 C 
ATOM     17  C   UNL     1      -6.735   3.404 127.720  0.00  0.00    +0.000 C 
ATOM     18  N   UNL     1      -5.323   3.695 128.065  0.00  0.00    +0.000 NA
ATOM     19  C   UNL     1      -4.536   2.442 128.025  0.00  0.00    +0.000 C 
ATOM     20  C   UNL     1      -4.680   1.719 126.665  0.00  0.00    +0.000 C 
ATOM     21  C   UNL     1      -7.542  -2.808 128.374  0.00  0.00    +0.000 A 
ATOM     22  C   UNL     1      -6.365  -3.011 129.087  0.00  0.00    +0.000 A 
ATOM     23  H   UNL     1      -5.279   4.093 129.001  0.00  0.00    +0.000 HD
ENDROOT
TORSDOF 0
ENDMDL
MODEL 9
REMARK VINA RESULT:      -7.0      5.073      6.711
REMARK  Name = Amoxapine
REMARK  0 active torsions:
REMARK  status: ('A' for Active; 'I' for Inactive)
REMARK                            x       y       z     vdW  Elec       q    Type
REMARK                         _______ _______ _______ _____ _____    ______ ____
ROOT
ATOM      1 CL   UNL     1      -6.062   2.947 128.688  0.00  0.00    +0.000 Cl
ATOM      2  C   UNL     1      -6.010   1.477 127.793  0.00  0.00    +0.000 A 
ATOM      3  C   UNL     1      -6.732   0.375 128.250  0.00  0.00    +0.000 A 
ATOM      4  C   UNL     1      -6.712  -0.841 127.561  0.00  0.00    +0.000 A 
ATOM      5  C   UNL     1      -5.954  -0.909 126.384  0.00  0.00    +0.000 A 
ATOM      6  O   UNL     1      -5.857  -2.048 125.625  0.00  0.00    +0.000 OA
ATOM      7  C   UNL     1      -7.067  -2.430 125.097  0.00  0.00    +0.000 A 
ATOM      8  C   UNL     1      -7.175  -2.438 123.699  0.00  0.00    +0.000 A 
ATOM      9  C   UNL     1      -8.372  -2.820 123.102  0.00  0.00    +0.000 A 
ATOM     10  C   UNL     1      -9.448  -3.197 123.902  0.00  0.00    +0.000 A 
ATOM     11  C   UNL     1      -9.323  -3.195 125.299  0.00  0.00    +0.000 A 
ATOM     12  C   UNL     1      -8.131  -2.812 125.922  0.00  0.00    +0.000 A 
ATOM     13  N   UNL     1      -8.032  -2.932 127.327  0.00  0.00    +0.000 NA
ATOM     14  C   UNL     1      -7.419  -2.073 128.088  0.00  0.00    +0.000 C 
ATOM     15  N   UNL     1      -7.324  -2.357 129.453  0.00  0.00    +0.000 N 
ATOM     16  C   UNL     1      -6.885  -3.679 129.929  0.00  0.00    +0.000 C 
ATOM     17  C   UNL     1      -5.795  -3.469 131.017  0.00  0.00    +0.000 C 
ATOM     18  N   UNL     1      -6.229  -2.594 132.132  0.00  0.00    +0.000 NA
ATOM     19  C   UNL     1      -6.759  -1.324 131.588  0.00  0.00    +0.000 C 
ATOM     20  C   UNL     1      -7.883  -1.570 130.553  0.00  0.00    +0.000 C 
ATOM     21  C   UNL     1      -5.221   0.197 125.927  0.00  0.00    +0.000 A 
ATOM     22  C   UNL     1      -5.251   1.395 126.634  0.00  0.00    +0.000 A 
ATOM     23  H   UNL     1      -5.433  -2.398 132.736  0.00  0.00    +0.000 HD
ENDROOT
TORSDOF 0
ENDMDL
