MODEL 1
REMARK VINA RESULT:      -5.6      0.000      0.000
REMARK  Name = Amphetamine
REMARK  4 active torsions:
REMARK  status: ('A' for Active; 'I' for Inactive)
REMARK    1  A    between atoms: C_1  and  C_2
REMARK    2  A    between atoms: C_2  and  N_3
REMARK    3  A    between atoms: C_2  and  C_4
REMARK    4  A    between atoms: C_4  and  C_5
REMARK                            x       y       z     vdW  Elec       q    Type
REMARK                         _______ _______ _______ _____ _____    ______ ____
ROOT
ATOM      1  C   UNL     1     -10.905   8.512 127.850  0.00  0.00    +0.000 C 
ENDROOT
BRANCH   1   2
ATOM      2  C   UNL     1     -11.210   7.946 129.225  0.00  0.00    +0.000 A 
ATOM      3  C   UNL     1     -10.268   7.162 129.911  0.00  0.00    +0.000 A 
ATOM      4  C   UNL     1     -10.605   6.483 131.076  0.00  0.00    +0.000 A 
ATOM      5  C   UNL     1     -11.847   6.680 131.648  0.00  0.00    +0.000 A 
ATOM      6  C   UNL     1     -12.764   7.542 131.043  0.00  0.00    +0.000 A 
ATOM      7  C   UNL     1     -12.450   8.164 129.829  0.00  0.00    +0.000 A 
ENDBRANCH   1   2
BRANCH   1   9
ATOM      8  C   UNL     1     -12.516   7.007 126.596  0.00  0.00    +0.000 C 
ATOM      9  C   UNL     1     -11.071   7.484 126.696  0.00  0.00    +0.000 C 
BRANCH   9  10
ATOM     10  N   UNL     1     -10.707   8.031 125.385  0.00  0.00    +0.000 NA
ATOM     11  H   UNL     1     -10.408   7.286 124.760  0.00  0.00    +0.000 HD
ATOM     12  H   UNL     1      -9.959   8.713 125.460  0.00  0.00    +0.000 HD
ENDBRANCH   9  10
ENDBRANCH   1   9
TORSDOF 3
ENDMDL
MODEL 2
REMARK VINA RESULT:      -5.5      2.893      4.408
REMARK  Name = Amphetamine
REMARK  4 active torsions:
REMARK  status: ('A' for Active; 'I' for Inactive)
REMARK    1  A    between atoms: C_1  and  C_2
REMARK    2  A    between atoms: C_2  and  N_3
REMARK    3  A    between atoms: C_2  and  C_4
REMARK    4  A    between atoms: C_4  and  C_5
REMARK                            x       y       z     vdW  Elec       q    Type
REMARK                         _______ _______ _______ _____ _____    ______ ____
ROOT
ATOM      1  C   UNL     1     -12.124   7.040 131.588  0.00  0.00    +0.000 C 
ENDROOT
BRANCH   1   2
ATOM      2  C   UNL     1     -12.577   7.469 130.204  0.00  0.00    +0.000 A 
ATOM      3  C   UNL     1     -12.670   8.829 129.863  0.00  0.00    +0.000 A 
ATOM      4  C   UNL     1     -13.263   9.235 128.672  0.00  0.00    +0.000 A 
ATOM      5  C   UNL     1     -13.653   8.289 127.744  0.00  0.00    +0.000 A 
ATOM      6  C   UNL     1     -13.469   6.931 128.014  0.00  0.00    +0.000 A 
ATOM      7  C   UNL     1     -12.943   6.523 129.246  0.00  0.00    +0.000 A 
ENDBRANCH   1   2
BRANCH   1   9
ATOM      8  C   UNL     1      -9.759   6.950 130.674  0.00  0.00    +0.000 C 
ATOM      9  C   UNL     1     -10.770   6.277 131.597  0.00  0.00    +0.000 C 
BRANCH   9  10
ATOM     10  N   UNL     1     -10.158   6.212 132.928  0.00  0.00    +0.000 NA
ATOM     11  H   UNL     1      -9.623   5.352 133.031  0.00  0.00    +0.000 HD
ATOM     12  H   UNL     1     -10.858   6.248 133.662  0.00  0.00    +0.000 HD
ENDBRANCH   9  10
ENDBRANCH   1   9
TORSDOF 3
ENDMDL
MODEL 3
REMARK VINA RESULT:      -5.3      8.390     10.471
REMARK  Name = Amphetamine
REMARK  4 active torsions:
REMARK  status: ('A' for Active; 'I' for Inactive)
REMARK    1  A    between atoms: C_1  and  C_2
REMARK    2  A    between atoms: C_2  and  N_3
REMARK    3  A    between atoms: C_2  and  C_4
REMARK    4  A    between atoms: C_4  and  C_5
REMARK                            x       y       z     vdW  Elec       q    Type
REMARK                         _______ _______ _______ _____ _____    ______ ____
ROOT
ATOM      1  C   UNL     1      -6.854   2.915 122.275  0.00  0.00    +0.000 C 
ENDROOT
BRANCH   1   2
ATOM      2  C   UNL     1      -6.501   3.751 121.058  0.00  0.00    +0.000 A 
ATOM      3  C   UNL     1      -5.276   4.435 120.979  0.00  0.00    +0.000 A 
ATOM      4  C   UNL     1      -5.024   5.351 119.964  0.00  0.00    +0.000 A 
ATOM      5  C   UNL     1      -5.936   5.502 118.938  0.00  0.00    +0.000 A 
ATOM      6  C   UNL     1      -7.113   4.751 118.935  0.00  0.00    +0.000 A 
ATOM      7  C   UNL     1      -7.399   3.887 119.998  0.00  0.00    +0.000 A 
ENDBRANCH   1   2
BRANCH   1   9
ATOM      8  C   UNL     1      -9.047   1.843 122.963  0.00  0.00    +0.000 C 
ATOM      9  C   UNL     1      -8.293   3.159 122.808  0.00  0.00    +0.000 C 
BRANCH   9  10
ATOM     10  N   UNL     1      -8.314   3.822 124.116  0.00  0.00    +0.000 NA
ATOM     11  H   UNL     1      -7.396   4.200 124.337  0.00  0.00    +0.000 HD
ATOM     12  H   UNL     1      -8.589   3.182 124.854  0.00  0.00    +0.000 HD
ENDBRANCH   9  10
ENDBRANCH   1   9
TORSDOF 3
ENDMDL
MODEL 4
REMARK VINA RESULT:      -5.2      1.979      2.796
REMARK  Name = Amphetamine
REMARK  4 active torsions:
REMARK  status: ('A' for Active; 'I' for Inactive)
REMARK    1  A    between atoms: C_1  and  C_2
REMARK    2  A    between atoms: C_2  and  N_3
REMARK    3  A    between atoms: C_2  and  C_4
REMARK    4  A    between atoms: C_4  and  C_5
REMARK                            x       y       z     vdW  Elec       q    Type
REMARK                         _______ _______ _______ _____ _____    ______ ____
ROOT
ATOM      1  C   UNL     1     -12.805   7.620 130.104  0.00  0.00    +0.000 C 
ENDROOT
BRANCH   1   2
ATOM      2  C   UNL     1     -11.470   7.109 130.613  0.00  0.00    +0.000 A 
ATOM      3  C   UNL     1     -11.381   6.384 131.813  0.00  0.00    +0.000 A 
ATOM      4  C   UNL     1     -10.151   6.079 132.383  0.00  0.00    +0.000 A 
ATOM      5  C   UNL     1      -8.987   6.377 131.699  0.00  0.00    +0.000 A 
ATOM      6  C   UNL     1      -9.053   6.999 130.451  0.00  0.00    +0.000 A 
ATOM      7  C   UNL     1     -10.290   7.374 129.915  0.00  0.00    +0.000 A 
ENDBRANCH   1   2
BRANCH   1   9
ATOM      8  C   UNL     1     -13.732   7.703 127.745  0.00  0.00    +0.000 C 
ATOM      9  C   UNL     1     -12.726   8.312 128.715  0.00  0.00    +0.000 C 
BRANCH   9  10
ATOM     10  N   UNL     1     -13.004   9.750 128.775  0.00  0.00    +0.000 NA
ATOM     11  H   UNL     1     -13.972   9.914 129.041  0.00  0.00    +0.000 HD
ATOM     12  H   UNL     1     -12.832  10.201 127.881  0.00  0.00    +0.000 HD
ENDBRANCH   9  10
ENDBRANCH   1   9
TORSDOF 3
ENDMDL
MODEL 5
REMARK VINA RESULT:      -5.1      1.287      2.125
REMARK  Name = Amphetamine
REMARK  4 active torsions:
REMARK  status: ('A' for Active; 'I' for Inactive)
REMARK    1  A    between atoms: C_1  and  C_2
REMARK    2  A    between atoms: C_2  and  N_3
REMARK    3  A    between atoms: C_2  and  C_4
REMARK    4  A    between atoms: C_4  and  C_5
REMARK                            x       y       z     vdW  Elec       q    Type
REMARK                         _______ _______ _______ _____ _____    ______ ____
ROOT
ATOM      1  C   UNL     1     -11.339   7.912 128.487  0.00  0.00    +0.000 C 
ENDROOT
BRANCH   1   2
ATOM      2  C   UNL     1     -10.831   7.253 129.756  0.00  0.00    +0.000 A 
ATOM      3  C   UNL     1     -11.723   6.760 130.723  0.00  0.00    +0.000 A 
ATOM      4  C   UNL     1     -11.274   6.332 131.967  0.00  0.00    +0.000 A 
ATOM      5  C   UNL     1      -9.918   6.264 132.219  0.00  0.00    +0.000 A 
ATOM      6  C   UNL     1      -9.006   6.645 131.232  0.00  0.00    +0.000 A 
ATOM      7  C   UNL     1      -9.462   7.149 130.009  0.00  0.00    +0.000 A 
ENDBRANCH   1   2
BRANCH   1   9
ATOM      8  C   UNL     1     -13.737   7.714 127.685  0.00  0.00    +0.000 C 
ATOM      9  C   UNL     1     -12.365   7.050 127.698  0.00  0.00    +0.000 C 
BRANCH   9  10
ATOM     10  N   UNL     1     -11.978   6.836 126.300  0.00  0.00    +0.000 NA
ATOM     11  H   UNL     1     -12.186   7.662 125.744  0.00  0.00    +0.000 HD
ATOM     12  H   UNL     1     -12.463   6.041 125.896  0.00  0.00    +0.000 HD
ENDBRANCH   9  10
ENDBRANCH   1   9
TORSDOF 3
ENDMDL
MODEL 6
REMARK VINA RESULT:      -5.1      1.932      2.663
REMARK  Name = Amphetamine
REMARK  4 active torsions:
REMARK  status: ('A' for Active; 'I' for Inactive)
REMARK    1  A    between atoms: C_1  and  C_2
REMARK    2  A    between atoms: C_2  and  N_3
REMARK    3  A    between atoms: C_2  and  C_4
REMARK    4  A    between atoms: C_4  and  C_5
REMARK                            x       y       z     vdW  Elec       q    Type
REMARK                         _______ _______ _______ _____ _____    ______ ____
ROOT
ATOM      1  C   UNL     1     -12.822   7.481 130.053  0.00  0.00    +0.000 C 
ENDROOT
BRANCH   1   2
ATOM      2  C   UNL     1     -11.478   7.137 130.667  0.00  0.00    +0.000 A 
ATOM      3  C   UNL     1     -10.278   7.432 129.998  0.00  0.00    +0.000 A 
ATOM      4  C   UNL     1      -9.057   6.952 130.458  0.00  0.00    +0.000 A 
ATOM      5  C   UNL     1      -8.997   6.281 131.665  0.00  0.00    +0.000 A 
ATOM      6  C   UNL     1     -10.163   6.071 132.404  0.00  0.00    +0.000 A 
ATOM      7  C   UNL     1     -11.400   6.488 131.901  0.00  0.00    +0.000 A 
ENDBRANCH   1   2
BRANCH   1   9
ATOM      8  C   UNL     1     -13.734   7.522 127.686  0.00  0.00    +0.000 C 
ATOM      9  C   UNL     1     -12.720   8.135 128.646  0.00  0.00    +0.000 C 
BRANCH   9  10
ATOM     10  N   UNL     1     -12.969   9.580 128.667  0.00  0.00    +0.000 NA
ATOM     11  H   UNL     1     -13.378   9.883 127.786  0.00  0.00    +0.000 HD
ATOM     12  H   UNL     1     -12.114  10.104 128.827  0.00  0.00    +0.000 HD
ENDBRANCH   9  10
ENDBRANCH   1   9
TORSDOF 3
ENDMDL
MODEL 7
REMARK VINA RESULT:      -4.9      2.120      3.658
REMARK  Name = Amphetamine
REMARK  4 active torsions:
REMARK  status: ('A' for Active; 'I' for Inactive)
REMARK    1  A    between atoms: C_1  and  C_2
REMARK    2  A    between atoms: C_2  and  N_3
REMARK    3  A    between atoms: C_2  and  C_4
REMARK    4  A    between atoms: C_4  and  C_5
REMARK                            x       y       z     vdW  Elec       q    Type
REMARK                         _______ _______ _______ _____ _____    ______ ____
ROOT
ATOM      1  C   UNL     1     -11.576   5.603 130.076  0.00  0.00    +0.000 C 
ENDROOT
BRANCH   1   2
ATOM      2  C   UNL     1     -12.321   6.806 129.528  0.00  0.00    +0.000 A 
ATOM      3  C   UNL     1     -13.186   6.682 128.428  0.00  0.00    +0.000 A 
ATOM      4  C   UNL     1     -13.720   7.802 127.800  0.00  0.00    +0.000 A 
ATOM      5  C   UNL     1     -13.507   9.056 128.340  0.00  0.00    +0.000 A 
ATOM      6  C   UNL     1     -12.740   9.194 129.499  0.00  0.00    +0.000 A 
ATOM      7  C   UNL     1     -12.140   8.074 130.084  0.00  0.00    +0.000 A 
ENDBRANCH   1   2
BRANCH   1   9
ATOM      8  C   UNL     1      -9.382   4.341 130.232  0.00  0.00    +0.000 C 
ATOM      9  C   UNL     1     -10.037   5.670 129.871  0.00  0.00    +0.000 C 
BRANCH   9  10
ATOM     10  N   UNL     1      -9.657   5.974 128.488  0.00  0.00    +0.000 NA
ATOM     11  H   UNL     1      -9.190   5.175 128.065  0.00  0.00    +0.000 HD
ATOM     12  H   UNL     1      -9.037   6.777 128.439  0.00  0.00    +0.000 HD
ENDBRANCH   9  10
ENDBRANCH   1   9
TORSDOF 3
ENDMDL
MODEL 8
REMARK VINA RESULT:      -4.8     10.457     11.143
REMARK  Name = Amphetamine
REMARK  4 active torsions:
REMARK  status: ('A' for Active; 'I' for Inactive)
REMARK    1  A    between atoms: C_1  and  C_2
REMARK    2  A    between atoms: C_2  and  N_3
REMARK    3  A    between atoms: C_2  and  C_4
REMARK    4  A    between atoms: C_4  and  C_5
REMARK                            x       y       z     vdW  Elec       q    Type
REMARK                         _______ _______ _______ _____ _____    ______ ____
ROOT
ATOM      1  C   UNL     1      -9.652  -3.223 125.971  0.00  0.00    +0.000 C 
ENDROOT
BRANCH   1   2
ATOM      2  C   UNL     1      -8.736  -2.870 127.128  0.00  0.00    +0.000 A 
ATOM      3  C   UNL     1      -8.605  -3.726 128.235  0.00  0.00    +0.000 A 
ATOM      4  C   UNL     1      -7.924  -3.327 129.380  0.00  0.00    +0.000 A 
ATOM      5  C   UNL     1      -7.250  -2.121 129.389  0.00  0.00    +0.000 A 
ATOM      6  C   UNL     1      -7.273  -1.301 128.259  0.00  0.00    +0.000 A 
ATOM      7  C   UNL     1      -8.024  -1.670 127.137  0.00  0.00    +0.000 A 
ENDBRANCH   1   2
BRANCH   1   9
ATOM      8  C   UNL     1      -7.744  -3.826 124.413  0.00  0.00    +0.000 C 
ATOM      9  C   UNL     1      -9.013  -2.996 124.572  0.00  0.00    +0.000 C 
BRANCH   9  10
ATOM     10  N   UNL     1      -9.907  -3.362 123.469  0.00  0.00    +0.000 NA
ATOM     11  H   UNL     1     -10.415  -2.545 123.138  0.00  0.00    +0.000 HD
ATOM     12  H   UNL     1     -10.577  -4.071 123.751  0.00  0.00    +0.000 HD
ENDBRANCH   9  10
ENDBRANCH   1   9
TORSDOF 3
ENDMDL
MODEL 9
REMARK VINA RESULT:      -4.8     11.293     12.499
REMARK  Name = Amphetamine
REMARK  4 active torsions:
REMARK  status: ('A' for Active; 'I' for Inactive)
REMARK    1  A    between atoms: C_1  and  C_2
REMARK    2  A    between atoms: C_2  and  N_3
REMARK    3  A    between atoms: C_2  and  C_4
REMARK    4  A    between atoms: C_4  and  C_5
REMARK                            x       y       z     vdW  Elec       q    Type
REMARK                         _______ _______ _______ _____ _____    ______ ____
ROOT
ATOM      1  C   UNL     1      -9.262  -3.289 124.493  0.00  0.00    +0.000 C 
ENDROOT
BRANCH   1   2
ATOM      2  C   UNL     1      -7.869  -3.095 123.925  0.00  0.00    +0.000 A 
ATOM      3  C   UNL     1      -6.785  -3.861 124.387  0.00  0.00    +0.000 A 
ATOM      4  C   UNL     1      -5.479  -3.562 124.016  0.00  0.00    +0.000 A 
ATOM      5  C   UNL     1      -5.244  -2.578 123.075  0.00  0.00    +0.000 A 
ATOM      6  C   UNL     1      -6.315  -1.877 122.517  0.00  0.00    +0.000 A 
ATOM      7  C   UNL     1      -7.622  -2.127 122.950  0.00  0.00    +0.000 A 
ENDBRANCH   1   2
BRANCH   1   9
ATOM      8  C   UNL     1      -8.952  -3.598 126.991  0.00  0.00    +0.000 C 
ATOM      9  C   UNL     1      -9.460  -2.661 125.901  0.00  0.00    +0.000 C 
BRANCH   9  10
ATOM     10  N   UNL     1      -8.751  -1.388 126.064  0.00  0.00    +0.000 NA
ATOM     11  H   UNL     1      -7.762  -1.503 125.851  0.00  0.00    +0.000 HD
ATOM     12  H   UNL     1      -8.841  -1.029 127.010  0.00  0.00    +0.000 HD
ENDBRANCH   9  10
ENDBRANCH   1   9
TORSDOF 3
ENDMDL
