MODEL 1
REMARK VINA RESULT:      -6.5      0.000      0.000
REMARK  Name = Amrinone
REMARK  2 active torsions:
REMARK  status: ('A' for Active; 'I' for Inactive)
REMARK    1  A    between atoms: N_1  and  C_2
REMARK    2  A    between atoms: C_4  and  C_9
REMARK                            x       y       z     vdW  Elec       q    Type
REMARK                         _______ _______ _______ _____ _____    ______ ____
ROOT
ATOM      1  C   UNL     1      -8.754   6.673 131.284  0.00  0.00    +0.000 A 
ATOM      2  C   UNL     1      -9.706   6.977 130.387  0.00  0.00    +0.000 A 
ATOM      3  C   UNL     1     -11.131   6.848 130.667  0.00  0.00    +0.000 A 
ATOM      4  C   UNL     1     -11.504   6.260 131.817  0.00  0.00    +0.000 A 
ATOM      5  N   UNL     1     -10.564   5.828 132.720  0.00  0.00    +0.000 N 
ATOM      6  C   UNL     1      -9.216   6.063 132.597  0.00  0.00    +0.000 A 
ATOM      7  O   UNL     1      -8.417   5.782 133.493  0.00  0.00    +0.000 OA
ATOM      8  H   UNL     1     -10.851   5.347 133.564  0.00  0.00    +0.000 HD
ENDROOT
BRANCH   3   9
ATOM      9  C   UNL     1     -12.154   7.380 129.744  0.00  0.00    +0.000 A 
ATOM     10  C   UNL     1     -12.897   6.508 128.947  0.00  0.00    +0.000 A 
ATOM     11  C   UNL     1     -13.693   7.045 127.949  0.00  0.00    +0.000 A 
ATOM     12  N   UNL     1     -13.887   8.369 127.778  0.00  0.00    +0.000 NA
ATOM     13  C   UNL     1     -13.232   9.193 128.623  0.00  0.00    +0.000 A 
ATOM     14  C   UNL     1     -12.328   8.757 129.577  0.00  0.00    +0.000 A 
ENDBRANCH   3   9
BRANCH   1  15
ATOM     15  N   UNL     1      -7.396   6.824 131.075  0.00  0.00    +0.000 N 
ATOM     16  H   UNL     1      -6.873   7.306 131.797  0.00  0.00    +0.000 HD
ATOM     17  H   UNL     1      -6.951   5.998 130.673  0.00  0.00    +0.000 HD
ENDBRANCH   1  15
TORSDOF 2
ENDMDL
MODEL 2
REMARK VINA RESULT:      -5.9      1.282      2.239
REMARK  Name = Amrinone
REMARK  2 active torsions:
REMARK  status: ('A' for Active; 'I' for Inactive)
REMARK    1  A    between atoms: N_1  and  C_2
REMARK    2  A    between atoms: C_4  and  C_9
REMARK                            x       y       z     vdW  Elec       q    Type
REMARK                         _______ _______ _______ _____ _____    ______ ____
ROOT
ATOM      1  C   UNL     1      -9.450   5.204 132.801  0.00  0.00    +0.000 A 
ATOM      2  C   UNL     1     -10.330   5.865 132.030  0.00  0.00    +0.000 A 
ATOM      3  C   UNL     1      -9.926   6.735 130.932  0.00  0.00    +0.000 A 
ATOM      4  C   UNL     1      -8.617   7.004 130.779  0.00  0.00    +0.000 A 
ATOM      5  N   UNL     1      -7.685   6.442 131.615  0.00  0.00    +0.000 N 
ATOM      6  C   UNL     1      -7.977   5.489 132.562  0.00  0.00    +0.000 A 
ATOM      7  O   UNL     1      -7.097   4.906 133.199  0.00  0.00    +0.000 OA
ATOM      8  H   UNL     1      -6.706   6.682 131.522  0.00  0.00    +0.000 HD
ENDROOT
BRANCH   3   9
ATOM      9  C   UNL     1     -10.909   7.284 129.976  0.00  0.00    +0.000 A 
ATOM     10  C   UNL     1     -12.268   7.014 130.139  0.00  0.00    +0.000 A 
ATOM     11  C   UNL     1     -13.136   7.365 129.119  0.00  0.00    +0.000 A 
ATOM     12  N   UNL     1     -12.763   8.061 128.024  0.00  0.00    +0.000 NA
ATOM     13  C   UNL     1     -11.458   8.394 127.933  0.00  0.00    +0.000 A 
ATOM     14  C   UNL     1     -10.496   7.992 128.844  0.00  0.00    +0.000 A 
ENDBRANCH   3   9
BRANCH   1  15
ATOM     15  N   UNL     1      -9.792   4.336 133.820  0.00  0.00    +0.000 N 
ATOM     16  H   UNL     1      -9.303   4.449 134.700  0.00  0.00    +0.000 HD
ATOM     17  H   UNL     1     -10.795   4.155 133.882  0.00  0.00    +0.000 HD
ENDBRANCH   1  15
TORSDOF 2
ENDMDL
MODEL 3
REMARK VINA RESULT:      -5.8      2.675      5.418
REMARK  Name = Amrinone
REMARK  2 active torsions:
REMARK  status: ('A' for Active; 'I' for Inactive)
REMARK    1  A    between atoms: N_1  and  C_2
REMARK    2  A    between atoms: C_4  and  C_9
REMARK                            x       y       z     vdW  Elec       q    Type
REMARK                         _______ _______ _______ _____ _____    ______ ____
ROOT
ATOM      1  C   UNL     1     -11.384   7.453 127.919  0.00  0.00    +0.000 A 
ATOM      2  C   UNL     1     -10.419   7.339 128.846  0.00  0.00    +0.000 A 
ATOM      3  C   UNL     1     -10.688   6.975 130.232  0.00  0.00    +0.000 A 
ATOM      4  C   UNL     1     -11.969   6.896 130.634  0.00  0.00    +0.000 A 
ATOM      5  N   UNL     1     -12.995   7.116 129.749  0.00  0.00    +0.000 N 
ATOM      6  C   UNL     1     -12.818   7.300 128.398  0.00  0.00    +0.000 A 
ATOM      7  O   UNL     1     -13.768   7.356 127.614  0.00  0.00    +0.000 OA
ATOM      8  H   UNL     1     -13.956   7.097 130.067  0.00  0.00    +0.000 HD
ENDROOT
BRANCH   3   9
ATOM      9  C   UNL     1      -9.597   6.658 131.177  0.00  0.00    +0.000 A 
ATOM     10  C   UNL     1      -8.273   6.935 130.833  0.00  0.00    +0.000 A 
ATOM     11  C   UNL     1      -7.266   6.439 131.644  0.00  0.00    +0.000 A 
ATOM     12  N   UNL     1      -7.490   5.805 132.813  0.00  0.00    +0.000 NA
ATOM     13  C   UNL     1      -8.779   5.632 133.173  0.00  0.00    +0.000 A 
ATOM     14  C   UNL     1      -9.855   5.991 132.378  0.00  0.00    +0.000 A 
ENDBRANCH   3   9
BRANCH   1  15
ATOM     15  N   UNL     1     -11.167   7.750 126.587  0.00  0.00    +0.000 N 
ATOM     16  H   UNL     1     -11.004   8.723 126.356  0.00  0.00    +0.000 HD
ATOM     17  H   UNL     1     -10.575   7.068 126.110  0.00  0.00    +0.000 HD
ENDBRANCH   1  15
TORSDOF 2
ENDMDL
MODEL 4
REMARK VINA RESULT:      -5.8      2.495      5.482
REMARK  Name = Amrinone
REMARK  2 active torsions:
REMARK  status: ('A' for Active; 'I' for Inactive)
REMARK    1  A    between atoms: N_1  and  C_2
REMARK    2  A    between atoms: C_4  and  C_9
REMARK                            x       y       z     vdW  Elec       q    Type
REMARK                         _______ _______ _______ _____ _____    ______ ____
ROOT
ATOM      1  C   UNL     1     -11.123   7.880 128.904  0.00  0.00    +0.000 A 
ATOM      2  C   UNL     1     -10.033   7.638 129.651  0.00  0.00    +0.000 A 
ATOM      3  C   UNL     1     -10.070   6.851 130.878  0.00  0.00    +0.000 A 
ATOM      4  C   UNL     1     -11.268   6.478 131.361  0.00  0.00    +0.000 A 
ATOM      5  N   UNL     1     -12.423   6.799 130.692  0.00  0.00    +0.000 N 
ATOM      6  C   UNL     1     -12.454   7.393 129.453  0.00  0.00    +0.000 A 
ATOM      7  O   UNL     1     -13.503   7.540 128.822  0.00  0.00    +0.000 OA
ATOM      8  H   UNL     1     -13.324   6.553 131.083  0.00  0.00    +0.000 HD
ENDROOT
BRANCH   3   9
ATOM      9  C   UNL     1      -8.833   6.430 131.566  0.00  0.00    +0.000 A 
ATOM     10  C   UNL     1      -8.906   5.769 132.793  0.00  0.00    +0.000 A 
ATOM     11  C   UNL     1      -7.735   5.575 133.507  0.00  0.00    +0.000 A 
ATOM     12  N   UNL     1      -6.510   5.881 133.032  0.00  0.00    +0.000 NA
ATOM     13  C   UNL     1      -6.455   6.433 131.802  0.00  0.00    +0.000 A 
ATOM     14  C   UNL     1      -7.575   6.769 131.059  0.00  0.00    +0.000 A 
ENDBRANCH   3   9
BRANCH   1  15
ATOM     15  N   UNL     1     -11.123   8.580 127.713  0.00  0.00    +0.000 N 
ATOM     16  H   UNL     1     -11.614   8.156 126.933  0.00  0.00    +0.000 HD
ATOM     17  H   UNL     1     -11.251   9.586 127.832  0.00  0.00    +0.000 HD
ENDBRANCH   1  15
TORSDOF 2
ENDMDL
MODEL 5
REMARK VINA RESULT:      -5.8      9.618     10.852
REMARK  Name = Amrinone
REMARK  2 active torsions:
REMARK  status: ('A' for Active; 'I' for Inactive)
REMARK    1  A    between atoms: N_1  and  C_2
REMARK    2  A    between atoms: C_4  and  C_9
REMARK                            x       y       z     vdW  Elec       q    Type
REMARK                         _______ _______ _______ _____ _____    ______ ____
ROOT
ATOM      1  C   UNL     1      -8.696   4.046 119.737  0.00  0.00    +0.000 A 
ATOM      2  C   UNL     1      -8.926   3.453 120.920  0.00  0.00    +0.000 A 
ATOM      3  C   UNL     1      -7.885   3.247 121.921  0.00  0.00    +0.000 A 
ATOM      4  C   UNL     1      -6.613   3.528 121.585  0.00  0.00    +0.000 A 
ATOM      5  N   UNL     1      -6.312   4.032 120.344  0.00  0.00    +0.000 N 
ATOM      6  C   UNL     1      -7.254   4.402 119.416  0.00  0.00    +0.000 A 
ATOM      7  O   UNL     1      -6.952   4.979 118.368  0.00  0.00    +0.000 OA
ATOM      8  H   UNL     1      -5.348   4.200 120.083  0.00  0.00    +0.000 HD
ENDROOT
BRANCH   3   9
ATOM      9  C   UNL     1      -8.203   2.782 123.286  0.00  0.00    +0.000 A 
ATOM     10  C   UNL     1      -9.201   1.828 123.484  0.00  0.00    +0.000 A 
ATOM     11  C   UNL     1      -9.616   1.568 124.779  0.00  0.00    +0.000 A 
ATOM     12  N   UNL     1      -9.029   2.097 125.874  0.00  0.00    +0.000 NA
ATOM     13  C   UNL     1      -8.002   2.946 125.661  0.00  0.00    +0.000 A 
ATOM     14  C   UNL     1      -7.588   3.353 124.404  0.00  0.00    +0.000 A 
ENDBRANCH   3   9
BRANCH   1  15
ATOM     15  N   UNL     1      -9.662   4.301 118.783  0.00  0.00    +0.000 N 
ATOM     16  H   UNL     1      -9.429   4.979 118.066  0.00  0.00    +0.000 HD
ATOM     17  H   UNL     1     -10.154   3.464 118.467  0.00  0.00    +0.000 HD
ENDBRANCH   1  15
TORSDOF 2
ENDMDL
MODEL 6
REMARK VINA RESULT:      -5.7      9.483     10.196
REMARK  Name = Amrinone
REMARK  2 active torsions:
REMARK  status: ('A' for Active; 'I' for Inactive)
REMARK    1  A    between atoms: N_1  and  C_2
REMARK    2  A    between atoms: C_4  and  C_9
REMARK                            x       y       z     vdW  Elec       q    Type
REMARK                         _______ _______ _______ _____ _____    ______ ____
ROOT
ATOM      1  C   UNL     1      -7.476   1.928 124.772  0.00  0.00    +0.000 A 
ATOM      2  C   UNL     1      -6.809   2.415 123.713  0.00  0.00    +0.000 A 
ATOM      3  C   UNL     1      -7.475   2.943 122.528  0.00  0.00    +0.000 A 
ATOM      4  C   UNL     1      -8.808   2.799 122.429  0.00  0.00    +0.000 A 
ATOM      5  N   UNL     1      -9.525   2.205 123.438  0.00  0.00    +0.000 N 
ATOM      6  C   UNL     1      -8.988   1.834 124.647  0.00  0.00    +0.000 A 
ATOM      7  O   UNL     1      -9.686   1.431 125.580  0.00  0.00    +0.000 OA
ATOM      8  H   UNL     1     -10.522   2.061 123.338  0.00  0.00    +0.000 HD
ENDROOT
BRANCH   3   9
ATOM      9  C   UNL     1      -6.729   3.656 121.472  0.00  0.00    +0.000 A 
ATOM     10  C   UNL     1      -5.448   4.146 121.730  0.00  0.00    +0.000 A 
ATOM     11  C   UNL     1      -4.863   4.984 120.796  0.00  0.00    +0.000 A 
ATOM     12  N   UNL     1      -5.408   5.262 119.594  0.00  0.00    +0.000 NA
ATOM     13  C   UNL     1      -6.606   4.700 119.327  0.00  0.00    +0.000 A 
ATOM     14  C   UNL     1      -7.321   3.941 120.238  0.00  0.00    +0.000 A 
ENDBRANCH   3   9
BRANCH   1  15
ATOM     15  N   UNL     1      -6.885   1.462 125.931  0.00  0.00    +0.000 N 
ATOM     16  H   UNL     1      -6.435   0.556 125.882  0.00  0.00    +0.000 HD
ATOM     17  H   UNL     1      -6.386   2.185 126.452  0.00  0.00    +0.000 HD
ENDBRANCH   1  15
TORSDOF 2
ENDMDL
MODEL 7
REMARK VINA RESULT:      -5.5      2.040      2.398
REMARK  Name = Amrinone
REMARK  2 active torsions:
REMARK  status: ('A' for Active; 'I' for Inactive)
REMARK    1  A    between atoms: N_1  and  C_2
REMARK    2  A    between atoms: C_4  and  C_9
REMARK                            x       y       z     vdW  Elec       q    Type
REMARK                         _______ _______ _______ _____ _____    ______ ____
ROOT
ATOM      1  C   UNL     1      -9.468   3.642 131.328  0.00  0.00    +0.000 A 
ATOM      2  C   UNL     1     -10.114   4.530 130.555  0.00  0.00    +0.000 A 
ATOM      3  C   UNL     1     -10.582   5.820 131.048  0.00  0.00    +0.000 A 
ATOM      4  C   UNL     1     -10.497   6.067 132.367  0.00  0.00    +0.000 A 
ATOM      5  N   UNL     1      -9.947   5.142 133.219  0.00  0.00    +0.000 N 
ATOM      6  C   UNL     1      -9.339   3.981 132.804  0.00  0.00    +0.000 A 
ATOM      7  O   UNL     1      -8.734   3.242 133.583  0.00  0.00    +0.000 OA
ATOM      8  H   UNL     1      -9.924   5.317 134.216  0.00  0.00    +0.000 HD
ENDROOT
BRANCH   3   9
ATOM      9  C   UNL     1     -11.103   6.857 130.135  0.00  0.00    +0.000 A 
ATOM     10  C   UNL     1     -10.338   7.278 129.046  0.00  0.00    +0.000 A 
ATOM     11  C   UNL     1     -10.760   8.389 128.336  0.00  0.00    +0.000 A 
ATOM     12  N   UNL     1     -11.932   9.020 128.559  0.00  0.00    +0.000 NA
ATOM     13  C   UNL     1     -12.701   8.536 129.556  0.00  0.00    +0.000 A 
ATOM     14  C   UNL     1     -12.316   7.503 130.394  0.00  0.00    +0.000 A 
ENDBRANCH   3   9
BRANCH   1  15
ATOM     15  N   UNL     1      -8.968   2.431 130.889  0.00  0.00    +0.000 N 
ATOM     16  H   UNL     1      -9.279   2.111 129.979  0.00  0.00    +0.000 HD
ATOM     17  H   UNL     1      -7.976   2.300 131.097  0.00  0.00    +0.000 HD
ENDBRANCH   1  15
TORSDOF 2
ENDMDL
MODEL 8
REMARK VINA RESULT:      -5.5      9.765     11.109
REMARK  Name = Amrinone
REMARK  2 active torsions:
REMARK  status: ('A' for Active; 'I' for Inactive)
REMARK    1  A    between atoms: N_1  and  C_2
REMARK    2  A    between atoms: C_4  and  C_9
REMARK                            x       y       z     vdW  Elec       q    Type
REMARK                         _______ _______ _______ _____ _____    ______ ____
ROOT
ATOM      1  C   UNL     1      -6.288   4.306 120.481  0.00  0.00    +0.000 A 
ATOM      2  C   UNL     1      -5.995   3.894 121.725  0.00  0.00    +0.000 A 
ATOM      3  C   UNL     1      -6.964   3.233 122.592  0.00  0.00    +0.000 A 
ATOM      4  C   UNL     1      -8.244   3.169 122.185  0.00  0.00    +0.000 A 
ATOM      5  N   UNL     1      -8.618   3.679 120.967  0.00  0.00    +0.000 N 
ATOM      6  C   UNL     1      -7.734   4.165 120.033  0.00  0.00    +0.000 A 
ATOM      7  O   UNL     1      -8.090   4.487 118.897  0.00  0.00    +0.000 OA
ATOM      8  H   UNL     1      -9.590   3.666 120.685  0.00  0.00    +0.000 HD
ENDROOT
BRANCH   3   9
ATOM      9  C   UNL     1      -6.562   2.609 123.869  0.00  0.00    +0.000 A 
ATOM     10  C   UNL     1      -5.736   3.300 124.755  0.00  0.00    +0.000 A 
ATOM     11  C   UNL     1      -5.212   2.614 125.838  0.00  0.00    +0.000 A 
ATOM     12  N   UNL     1      -5.548   1.346 126.154  0.00  0.00    +0.000 NA
ATOM     13  C   UNL     1      -6.423   0.727 125.334  0.00  0.00    +0.000 A 
ATOM     14  C   UNL     1      -6.915   1.289 124.168  0.00  0.00    +0.000 A 
ENDBRANCH   3   9
BRANCH   1  15
ATOM     15  N   UNL     1      -5.389   4.893 119.612  0.00  0.00    +0.000 N 
ATOM     16  H   UNL     1      -5.776   5.454 118.862  0.00  0.00    +0.000 HD
ATOM     17  H   UNL     1      -4.562   5.273 120.077  0.00  0.00    +0.000 HD
ENDBRANCH   1  15
TORSDOF 2
ENDMDL
MODEL 9
REMARK VINA RESULT:      -5.3      9.930     10.827
REMARK  Name = Amrinone
REMARK  2 active torsions:
REMARK  status: ('A' for Active; 'I' for Inactive)
REMARK    1  A    between atoms: N_1  and  C_2
REMARK    2  A    between atoms: C_4  and  C_9
REMARK                            x       y       z     vdW  Elec       q    Type
REMARK                         _______ _______ _______ _____ _____    ______ ____
ROOT
ATOM      1  C   UNL     1      -5.265   4.482 121.505  0.00  0.00    +0.000 A 
ATOM      2  C   UNL     1      -5.983   3.817 122.424  0.00  0.00    +0.000 A 
ATOM      3  C   UNL     1      -7.279   3.214 122.136  0.00  0.00    +0.000 A 
ATOM      4  C   UNL     1      -7.846   3.462 120.943  0.00  0.00    +0.000 A 
ATOM      5  N   UNL     1      -7.201   4.232 120.007  0.00  0.00    +0.000 N 
ATOM      6  C   UNL     1      -5.914   4.694 120.147  0.00  0.00    +0.000 A 
ATOM      7  O   UNL     1      -5.318   5.264 119.231  0.00  0.00    +0.000 OA
ATOM      8  H   UNL     1      -7.652   4.451 119.128  0.00  0.00    +0.000 HD
ENDROOT
BRANCH   3   9
ATOM      9  C   UNL     1      -7.949   2.319 123.101  0.00  0.00    +0.000 A 
ATOM     10  C   UNL     1      -7.191   1.558 123.991  0.00  0.00    +0.000 A 
ATOM     11  C   UNL     1      -7.833   0.581 124.734  0.00  0.00    +0.000 A 
ATOM     12  N   UNL     1      -9.170   0.400 124.737  0.00  0.00    +0.000 NA
ATOM     13  C   UNL     1      -9.894   1.212 123.938  0.00  0.00    +0.000 A 
ATOM     14  C   UNL     1      -9.335   2.140 123.076  0.00  0.00    +0.000 A 
ENDBRANCH   3   9
BRANCH   1  15
ATOM     15  N   UNL     1      -4.014   5.026 121.724  0.00  0.00    +0.000 N 
ATOM     16  H   UNL     1      -3.327   4.905 120.989  0.00  0.00    +0.000 HD
ATOM     17  H   UNL     1      -4.042   5.947 122.166  0.00  0.00    +0.000 HD
ENDBRANCH   1  15
TORSDOF 2
ENDMDL
