MODEL 1
REMARK VINA RESULT:      -8.2      0.000      0.000
REMARK  Name = Amsacrine
REMARK  7 active torsions:
REMARK  status: ('A' for Active; 'I' for Inactive)
REMARK    1  A    between atoms: C_1  and  O_2
REMARK    2  A    between atoms: O_2  and  C_3
REMARK    3  A    between atoms: C_4  and  N_5
REMARK    4  A    between atoms: N_5  and  C_6
REMARK    5  A    between atoms: C_22  and  N_23
REMARK    6  A    between atoms: N_23  and  S_24
REMARK    7  A    between atoms: S_24  and  C_25
REMARK                            x       y       z     vdW  Elec       q    Type
REMARK                         _______ _______ _______ _____ _____    ______ ____
ROOT
ATOM      1  N   UNL     1      -6.443  -0.092 126.121  0.00  0.00    +0.000 N 
ATOM      2  H   UNL     1      -5.706   0.088 126.805  0.00  0.00    +0.000 HD
ENDROOT
BRANCH   1   3
ATOM      3  C   UNL     1      -7.135  -1.328 126.404  0.00  0.00    +0.000 A 
ATOM      4  C   UNL     1      -7.537  -1.719 127.679  0.00  0.00    +0.000 A 
ATOM      5  C   UNL     1      -7.347  -0.987 128.860  0.00  0.00    +0.000 A 
ATOM      6  C   UNL     1      -7.642  -1.580 130.081  0.00  0.00    +0.000 A 
ATOM      7  C   UNL     1      -8.183  -2.865 130.141  0.00  0.00    +0.000 A 
ATOM      8  C   UNL     1      -8.442  -3.567 128.980  0.00  0.00    +0.000 A 
ATOM      9  C   UNL     1      -8.208  -2.984 127.784  0.00  0.00    +0.000 A 
ATOM     10  N   UNL     1      -8.773  -3.629 126.771  0.00  0.00    +0.000 NA
ATOM     11  C   UNL     1      -8.594  -3.132 125.585  0.00  0.00    +0.000 A 
ATOM     12  C   UNL     1      -9.442  -3.305 124.466  0.00  0.00    +0.000 A 
ATOM     13  C   UNL     1      -9.101  -2.977 123.191  0.00  0.00    +0.000 A 
ATOM     14  C   UNL     1      -7.804  -2.643 123.111  0.00  0.00    +0.000 A 
ATOM     15  C   UNL     1      -6.966  -2.558 124.292  0.00  0.00    +0.000 A 
ATOM     16  C   UNL     1      -7.543  -2.265 125.428  0.00  0.00    +0.000 A 
ENDBRANCH   1   3
BRANCH   1  18
ATOM     17  C   UNL     1      -7.532   1.160 124.183  0.00  0.00    +0.000 A 
ATOM     18  C   UNL     1      -6.635   1.038 125.252  0.00  0.00    +0.000 A 
ATOM     19  C   UNL     1      -5.772   2.184 125.387  0.00  0.00    +0.000 A 
ATOM     20  C   UNL     1      -5.787   3.261 124.428  0.00  0.00    +0.000 A 
ATOM     21  C   UNL     1      -6.772   3.308 123.454  0.00  0.00    +0.000 A 
ATOM     22  C   UNL     1      -7.643   2.300 123.475  0.00  0.00    +0.000 A 
BRANCH  17  24
ATOM     23  C   UNL     1     -10.023   0.997 123.639  0.00  0.00    +0.000 C 
ATOM     24  O   UNL     1      -8.607   0.511 123.686  0.00  0.00    +0.000 OA
ENDBRANCH  17  24
BRANCH  21  25
ATOM     25  N   UNL     1      -6.914   4.145 122.312  0.00  0.00    +0.000 N 
ATOM     26  H   UNL     1      -7.826   4.528 122.101  0.00  0.00    +0.000 HD
BRANCH  25  27
ATOM     27  S   UNL     1      -5.865   3.997 120.937  0.00  0.00    +0.000 S 
ATOM     28  C   UNL     1      -4.491   5.119 121.319  0.00  0.00    +0.000 C 
ATOM     29  O   UNL     1      -5.343   2.647 120.831  0.00  0.00    +0.000 OA
ATOM     30  O   UNL     1      -6.584   4.572 119.825  0.00  0.00    +0.000 OA
ENDBRANCH  25  27
ENDBRANCH  21  25
ENDBRANCH   1  18
TORSDOF 5
ENDMDL
MODEL 2
REMARK VINA RESULT:      -8.0      1.343      2.106
REMARK  Name = Amsacrine
REMARK  7 active torsions:
REMARK  status: ('A' for Active; 'I' for Inactive)
REMARK    1  A    between atoms: C_1  and  O_2
REMARK    2  A    between atoms: O_2  and  C_3
REMARK    3  A    between atoms: C_4  and  N_5
REMARK    4  A    between atoms: N_5  and  C_6
REMARK    5  A    between atoms: C_22  and  N_23
REMARK    6  A    between atoms: N_23  and  S_24
REMARK    7  A    between atoms: S_24  and  C_25
REMARK                            x       y       z     vdW  Elec       q    Type
REMARK                         _______ _______ _______ _____ _____    ______ ____
ROOT
ATOM      1  N   UNL     1      -7.665   0.561 126.331  0.00  0.00    +0.000 N 
ATOM      2  H   UNL     1      -8.101   1.081 127.094  0.00  0.00    +0.000 HD
ENDROOT
BRANCH   1   3
ATOM      3  C   UNL     1      -7.814  -0.865 126.509  0.00  0.00    +0.000 A 
ATOM      4  C   UNL     1      -7.911  -1.486 127.752  0.00  0.00    +0.000 A 
ATOM      5  C   UNL     1      -7.888  -0.840 128.996  0.00  0.00    +0.000 A 
ATOM      6  C   UNL     1      -7.815  -1.601 130.156  0.00  0.00    +0.000 A 
ATOM      7  C   UNL     1      -7.830  -2.996 130.098  0.00  0.00    +0.000 A 
ATOM      8  C   UNL     1      -7.925  -3.642 128.882  0.00  0.00    +0.000 A 
ATOM      9  C   UNL     1      -8.047  -2.915 127.749  0.00  0.00    +0.000 A 
ATOM     10  N   UNL     1      -8.431  -3.638 126.705  0.00  0.00    +0.000 NA
ATOM     11  C   UNL     1      -8.572  -3.011 125.577  0.00  0.00    +0.000 A 
ATOM     12  C   UNL     1      -9.403  -3.399 124.499  0.00  0.00    +0.000 A 
ATOM     13  C   UNL     1      -9.340  -2.859 123.253  0.00  0.00    +0.000 A 
ATOM     14  C   UNL     1      -8.276  -2.050 123.132  0.00  0.00    +0.000 A 
ATOM     15  C   UNL     1      -7.415  -1.753 124.261  0.00  0.00    +0.000 A 
ATOM     16  C   UNL     1      -7.941  -1.800 125.458  0.00  0.00    +0.000 A 
ENDBRANCH   1   3
BRANCH   1  18
ATOM     17  C   UNL     1      -6.126   2.301 125.274  0.00  0.00    +0.000 A 
ATOM     18  C   UNL     1      -7.234   1.444 125.279  0.00  0.00    +0.000 A 
ATOM     19  C   UNL     1      -8.043   1.574 124.094  0.00  0.00    +0.000 A 
ATOM     20  C   UNL     1      -7.769   2.578 123.095  0.00  0.00    +0.000 A 
ATOM     21  C   UNL     1      -6.600   3.319 123.161  0.00  0.00    +0.000 A 
ATOM     22  C   UNL     1      -5.808   3.044 124.197  0.00  0.00    +0.000 A 
BRANCH  17  24
ATOM     23  C   UNL     1      -4.304   3.815 126.232  0.00  0.00    +0.000 C 
ATOM     24  O   UNL     1      -5.008   2.512 126.000  0.00  0.00    +0.000 OA
ENDBRANCH  17  24
BRANCH  21  25
ATOM     25  N   UNL     1      -6.175   4.457 122.421  0.00  0.00    +0.000 N 
ATOM     26  H   UNL     1      -6.540   5.366 122.674  0.00  0.00    +0.000 HD
BRANCH  25  27
ATOM     27  S   UNL     1      -5.661   4.329 120.768  0.00  0.00    +0.000 S 
ATOM     28  C   UNL     1      -7.211   4.112 119.849  0.00  0.00    +0.000 C 
ATOM     29  O   UNL     1      -5.032   5.561 120.327  0.00  0.00    +0.000 OA
ATOM     30  O   UNL     1      -4.935   3.085 120.673  0.00  0.00    +0.000 OA
ENDBRANCH  25  27
ENDBRANCH  21  25
ENDBRANCH   1  18
TORSDOF 5
ENDMDL
MODEL 3
REMARK VINA RESULT:      -7.9      4.589      7.749
REMARK  Name = Amsacrine
REMARK  7 active torsions:
REMARK  status: ('A' for Active; 'I' for Inactive)
REMARK    1  A    between atoms: C_1  and  O_2
REMARK    2  A    between atoms: O_2  and  C_3
REMARK    3  A    between atoms: C_4  and  N_5
REMARK    4  A    between atoms: N_5  and  C_6
REMARK    5  A    between atoms: C_22  and  N_23
REMARK    6  A    between atoms: N_23  and  S_24
REMARK    7  A    between atoms: S_24  and  C_25
REMARK                            x       y       z     vdW  Elec       q    Type
REMARK                         _______ _______ _______ _____ _____    ______ ____
ROOT
ATOM      1  N   UNL     1      -8.325  -2.081 126.849  0.00  0.00    +0.000 N 
ATOM      2  H   UNL     1      -9.242  -1.870 127.245  0.00  0.00    +0.000 HD
ENDROOT
BRANCH   1   3
ATOM      3  C   UNL     1      -8.263  -1.742 125.446  0.00  0.00    +0.000 A 
ATOM      4  C   UNL     1      -8.908  -0.644 124.884  0.00  0.00    +0.000 A 
ATOM      5  C   UNL     1      -9.693   0.290 125.575  0.00  0.00    +0.000 A 
ATOM      6  C   UNL     1     -10.419   1.232 124.857  0.00  0.00    +0.000 A 
ATOM      7  C   UNL     1     -10.325   1.299 123.466  0.00  0.00    +0.000 A 
ATOM      8  C   UNL     1      -9.499   0.431 122.781  0.00  0.00    +0.000 A 
ATOM      9  C   UNL     1      -8.748  -0.458 123.469  0.00  0.00    +0.000 A 
ATOM     10  N   UNL     1      -7.791  -1.010 122.735  0.00  0.00    +0.000 NA
ATOM     11  C   UNL     1      -7.025  -1.877 123.324  0.00  0.00    +0.000 A 
ATOM     12  C   UNL     1      -5.702  -2.216 122.956  0.00  0.00    +0.000 A 
ATOM     13  C   UNL     1      -5.025  -3.291 123.440  0.00  0.00    +0.000 A 
ATOM     14  C   UNL     1      -5.832  -4.081 124.164  0.00  0.00    +0.000 A 
ATOM     15  C   UNL     1      -7.208  -3.712 124.443  0.00  0.00    +0.000 A 
ATOM     16  C   UNL     1      -7.500  -2.439 124.481  0.00  0.00    +0.000 A 
ENDBRANCH   1   3
BRANCH   1  18
ATOM     17  C   UNL     1      -6.003  -2.256 127.895  0.00  0.00    +0.000 A 
ATOM     18  C   UNL     1      -7.390  -2.459 127.876  0.00  0.00    +0.000 A 
ATOM     19  C   UNL     1      -7.856  -3.217 129.008  0.00  0.00    +0.000 A 
ATOM     20  C   UNL     1      -6.943  -3.788 129.968  0.00  0.00    +0.000 A 
ATOM     21  C   UNL     1      -5.598  -3.455 129.925  0.00  0.00    +0.000 A 
ATOM     22  C   UNL     1      -5.247  -2.620 128.948  0.00  0.00    +0.000 A 
BRANCH  17  24
ATOM     23  C   UNL     1      -5.255  -0.209 126.562  0.00  0.00    +0.000 C 
ATOM     24  O   UNL     1      -5.077  -1.544 127.220  0.00  0.00    +0.000 OA
ENDBRANCH  17  24
BRANCH  21  25
ATOM     25  N   UNL     1      -4.483  -3.991 130.629  0.00  0.00    +0.000 N 
ATOM     26  H   UNL     1      -4.019  -4.808 130.253  0.00  0.00    +0.000 HD
BRANCH  25  27
ATOM     27  S   UNL     1      -4.308  -3.795 132.344  0.00  0.00    +0.000 S 
ATOM     28  C   UNL     1      -5.303  -5.145 133.037  0.00  0.00    +0.000 C 
ATOM     29  O   UNL     1      -2.927  -3.987 132.747  0.00  0.00    +0.000 OA
ATOM     30  O   UNL     1      -4.980  -2.561 132.673  0.00  0.00    +0.000 OA
ENDBRANCH  25  27
ENDBRANCH  21  25
ENDBRANCH   1  18
TORSDOF 5
ENDMDL
MODEL 4
REMARK VINA RESULT:      -7.9      6.535      9.124
REMARK  Name = Amsacrine
REMARK  7 active torsions:
REMARK  status: ('A' for Active; 'I' for Inactive)
REMARK    1  A    between atoms: C_1  and  O_2
REMARK    2  A    between atoms: O_2  and  C_3
REMARK    3  A    between atoms: C_4  and  N_5
REMARK    4  A    between atoms: N_5  and  C_6
REMARK    5  A    between atoms: C_22  and  N_23
REMARK    6  A    between atoms: N_23  and  S_24
REMARK    7  A    between atoms: S_24  and  C_25
REMARK                            x       y       z     vdW  Elec       q    Type
REMARK                         _______ _______ _______ _____ _____    ______ ____
ROOT
ATOM      1  N   UNL     1      -6.136   4.306 130.205  0.00  0.00    +0.000 N 
ATOM      2  H   UNL     1      -6.095   3.492 130.820  0.00  0.00    +0.000 HD
ENDROOT
BRANCH   1   3
ATOM      3  C   UNL     1      -4.981   4.374 129.340  0.00  0.00    +0.000 A 
ATOM      4  C   UNL     1      -5.030   4.174 127.963  0.00  0.00    +0.000 A 
ATOM      5  C   UNL     1      -6.182   3.892 127.214  0.00  0.00    +0.000 A 
ATOM      6  C   UNL     1      -6.054   3.543 125.876  0.00  0.00    +0.000 A 
ATOM      7  C   UNL     1      -4.804   3.533 125.255  0.00  0.00    +0.000 A 
ATOM      8  C   UNL     1      -3.671   3.880 125.964  0.00  0.00    +0.000 A 
ATOM      9  C   UNL     1      -3.785   4.270 127.253  0.00  0.00    +0.000 A 
ATOM     10  N   UNL     1      -2.691   4.857 127.718  0.00  0.00    +0.000 NA
ATOM     11  C   UNL     1      -2.720   5.262 128.952  0.00  0.00    +0.000 A 
ATOM     12  C   UNL     1      -1.942   6.301 129.513  0.00  0.00    +0.000 A 
ATOM     13  C   UNL     1      -1.823   6.532 130.848  0.00  0.00    +0.000 A 
ATOM     14  C   UNL     1      -2.387   5.544 131.559  0.00  0.00    +0.000 A 
ATOM     15  C   UNL     1      -3.108   4.460 130.916  0.00  0.00    +0.000 A 
ATOM     16  C   UNL     1      -3.675   4.706 129.764  0.00  0.00    +0.000 A 
ENDBRANCH   1   3
BRANCH   1  18
ATOM     17  C   UNL     1      -8.633   4.569 129.749  0.00  0.00    +0.000 A 
ATOM     18  C   UNL     1      -7.410   4.968 130.302  0.00  0.00    +0.000 A 
ATOM     19  C   UNL     1      -7.490   6.246 130.963  0.00  0.00    +0.000 A 
ATOM     20  C   UNL     1      -8.690   7.045 130.926  0.00  0.00    +0.000 A 
ATOM     21  C   UNL     1      -9.861   6.511 130.413  0.00  0.00    +0.000 A 
ATOM     22  C   UNL     1      -9.768   5.262 129.958  0.00  0.00    +0.000 A 
BRANCH  17  24
ATOM     23  C   UNL     1      -8.710   2.054 129.304  0.00  0.00    +0.000 C 
ATOM     24  O   UNL     1      -9.171   3.474 129.171  0.00  0.00    +0.000 OA
ENDBRANCH  17  24
BRANCH  21  25
ATOM     25  N   UNL     1     -11.111   7.123 130.112  0.00  0.00    +0.000 N 
ATOM     26  H   UNL     1     -11.934   6.823 130.618  0.00  0.00    +0.000 HD
BRANCH  25  27
ATOM     27  S   UNL     1     -11.441   7.798 128.547  0.00  0.00    +0.000 S 
ATOM     28  C   UNL     1     -12.719   9.043 128.875  0.00  0.00    +0.000 C 
ATOM     29  O   UNL     1     -10.268   8.469 128.017  0.00  0.00    +0.000 OA
ATOM     30  O   UNL     1     -12.064   6.743 127.784  0.00  0.00    +0.000 OA
ENDBRANCH  25  27
ENDBRANCH  21  25
ENDBRANCH   1  18
TORSDOF 5
ENDMDL
MODEL 5
REMARK VINA RESULT:      -7.9      6.972      9.067
REMARK  Name = Amsacrine
REMARK  7 active torsions:
REMARK  status: ('A' for Active; 'I' for Inactive)
REMARK    1  A    between atoms: C_1  and  O_2
REMARK    2  A    between atoms: O_2  and  C_3
REMARK    3  A    between atoms: C_4  and  N_5
REMARK    4  A    between atoms: N_5  and  C_6
REMARK    5  A    between atoms: C_22  and  N_23
REMARK    6  A    between atoms: N_23  and  S_24
REMARK    7  A    between atoms: S_24  and  C_25
REMARK                            x       y       z     vdW  Elec       q    Type
REMARK                         _______ _______ _______ _____ _____    ______ ____
ROOT
ATOM      1  N   UNL     1      -6.053   4.544 130.130  0.00  0.00    +0.000 N 
ATOM      2  H   UNL     1      -6.073   3.527 130.224  0.00  0.00    +0.000 HD
ENDROOT
BRANCH   1   3
ATOM      3  C   UNL     1      -4.730   5.019 129.797  0.00  0.00    +0.000 A 
ATOM      4  C   UNL     1      -3.859   5.597 130.716  0.00  0.00    +0.000 A 
ATOM      5  C   UNL     1      -4.118   5.798 132.080  0.00  0.00    +0.000 A 
ATOM      6  C   UNL     1      -3.227   6.546 132.838  0.00  0.00    +0.000 A 
ATOM      7  C   UNL     1      -2.051   7.044 132.276  0.00  0.00    +0.000 A 
ATOM      8  C   UNL     1      -1.750   6.791 130.952  0.00  0.00    +0.000 A 
ATOM      9  C   UNL     1      -2.582   6.022 130.215  0.00  0.00    +0.000 A 
ATOM     10  N   UNL     1      -2.039   5.610 129.077  0.00  0.00    +0.000 NA
ATOM     11  C   UNL     1      -2.776   4.865 128.311  0.00  0.00    +0.000 A 
ATOM     12  C   UNL     1      -2.315   3.929 127.355  0.00  0.00    +0.000 A 
ATOM     13  C   UNL     1      -3.102   3.351 126.409  0.00  0.00    +0.000 A 
ATOM     14  C   UNL     1      -4.319   3.916 126.385  0.00  0.00    +0.000 A 
ATOM     15  C   UNL     1      -4.705   4.930 127.349  0.00  0.00    +0.000 A 
ATOM     16  C   UNL     1      -4.130   4.905 128.523  0.00  0.00    +0.000 A 
ENDBRANCH   1   3
BRANCH   1  18
ATOM     17  C   UNL     1      -8.521   4.663 129.491  0.00  0.00    +0.000 A 
ATOM     18  C   UNL     1      -7.380   5.097 130.180  0.00  0.00    +0.000 A 
ATOM     19  C   UNL     1      -7.615   6.296 130.944  0.00  0.00    +0.000 A 
ATOM     20  C   UNL     1      -8.871   7.003 130.879  0.00  0.00    +0.000 A 
ATOM     21  C   UNL     1      -9.951   6.436 130.223  0.00  0.00    +0.000 A 
ATOM     22  C   UNL     1      -9.721   5.247 129.667  0.00  0.00    +0.000 A 
BRANCH  17  24
ATOM     23  C   UNL     1      -8.643   2.148 129.060  0.00  0.00    +0.000 C 
ATOM     24  O   UNL     1      -8.922   3.593 128.773  0.00  0.00    +0.000 OA
ENDBRANCH  17  24
BRANCH  21  25
ATOM     25  N   UNL     1     -11.220   6.979 129.874  0.00  0.00    +0.000 N 
ATOM     26  H   UNL     1     -12.049   6.592 130.305  0.00  0.00    +0.000 HD
BRANCH  25  27
ATOM     27  S   UNL     1     -11.498   7.728 128.333  0.00  0.00    +0.000 S 
ATOM     28  C   UNL     1     -12.774   8.970 128.681  0.00  0.00    +0.000 C 
ATOM     29  O   UNL     1     -10.304   8.410 127.869  0.00  0.00    +0.000 OA
ATOM     30  O   UNL     1     -12.108   6.716 127.505  0.00  0.00    +0.000 OA
ENDBRANCH  25  27
ENDBRANCH  21  25
ENDBRANCH   1  18
TORSDOF 5
ENDMDL
MODEL 6
REMARK VINA RESULT:      -7.8      3.418      3.999
REMARK  Name = Amsacrine
REMARK  7 active torsions:
REMARK  status: ('A' for Active; 'I' for Inactive)
REMARK    1  A    between atoms: C_1  and  O_2
REMARK    2  A    between atoms: O_2  and  C_3
REMARK    3  A    between atoms: C_4  and  N_5
REMARK    4  A    between atoms: N_5  and  C_6
REMARK    5  A    between atoms: C_22  and  N_23
REMARK    6  A    between atoms: N_23  and  S_24
REMARK    7  A    between atoms: S_24  and  C_25
REMARK                            x       y       z     vdW  Elec       q    Type
REMARK                         _______ _______ _______ _____ _____    ______ ____
ROOT
ATOM      1  N   UNL     1      -5.327  -0.728 126.675  0.00  0.00    +0.000 N 
ATOM      2  H   UNL     1      -4.398  -1.141 126.775  0.00  0.00    +0.000 HD
ENDROOT
BRANCH   1   3
ATOM      3  C   UNL     1      -6.322  -1.729 126.369  0.00  0.00    +0.000 A 
ATOM      4  C   UNL     1      -7.206  -2.256 127.307  0.00  0.00    +0.000 A 
ATOM      5  C   UNL     1      -7.274  -1.900 128.662  0.00  0.00    +0.000 A 
ATOM      6  C   UNL     1      -8.085  -2.635 129.518  0.00  0.00    +0.000 A 
ATOM      7  C   UNL     1      -8.877  -3.677 129.034  0.00  0.00    +0.000 A 
ATOM      8  C   UNL     1      -8.872  -3.990 127.688  0.00  0.00    +0.000 A 
ATOM      9  C   UNL     1      -8.127  -3.252 126.836  0.00  0.00    +0.000 A 
ATOM     10  N   UNL     1      -8.441  -3.452 125.563  0.00  0.00    +0.000 NA
ATOM     11  C   UNL     1      -7.769  -2.779 124.679  0.00  0.00    +0.000 A 
ATOM     12  C   UNL     1      -8.203  -2.434 123.378  0.00  0.00    +0.000 A 
ATOM     13  C   UNL     1      -7.389  -1.946 122.404  0.00  0.00    +0.000 A 
ATOM     14  C   UNL     1      -6.103  -2.007 122.778  0.00  0.00    +0.000 A 
ATOM     15  C   UNL     1      -5.716  -2.445 124.106  0.00  0.00    +0.000 A 
ATOM     16  C   UNL     1      -6.567  -2.256 125.081  0.00  0.00    +0.000 A 
ENDBRANCH   1   3
BRANCH   1  18
ATOM     17  C   UNL     1      -5.510   1.780 126.238  0.00  0.00    +0.000 A 
ATOM     18  C   UNL     1      -5.322   0.660 127.057  0.00  0.00    +0.000 A 
ATOM     19  C   UNL     1      -5.007   1.013 128.418  0.00  0.00    +0.000 A 
ATOM     20  C   UNL     1      -4.799   2.384 128.817  0.00  0.00    +0.000 A 
ATOM     21  C   UNL     1      -5.088   3.412 127.935  0.00  0.00    +0.000 A 
ATOM     22  C   UNL     1      -5.529   3.030 126.737  0.00  0.00    +0.000 A 
BRANCH  17  24
ATOM     23  C   UNL     1      -7.014   1.357 124.216  0.00  0.00    +0.000 C 
ATOM     24  O   UNL     1      -5.937   2.058 124.987  0.00  0.00    +0.000 OA
ENDBRANCH  17  24
BRANCH  21  25
ATOM     25  N   UNL     1      -4.821   4.808 128.012  0.00  0.00    +0.000 N 
ATOM     26  H   UNL     1      -5.467   5.452 127.574  0.00  0.00    +0.000 HD
BRANCH  25  27
ATOM     27  S   UNL     1      -3.205   5.419 128.175  0.00  0.00    +0.000 S 
ATOM     28  C   UNL     1      -2.870   5.286 129.954  0.00  0.00    +0.000 C 
ATOM     29  O   UNL     1      -2.261   4.577 127.464  0.00  0.00    +0.000 OA
ATOM     30  O   UNL     1      -3.279   6.827 127.863  0.00  0.00    +0.000 OA
ENDBRANCH  25  27
ENDBRANCH  21  25
ENDBRANCH   1  18
TORSDOF 5
ENDMDL
MODEL 7
REMARK VINA RESULT:      -7.8      3.820      4.531
REMARK  Name = Amsacrine
REMARK  7 active torsions:
REMARK  status: ('A' for Active; 'I' for Inactive)
REMARK    1  A    between atoms: C_1  and  O_2
REMARK    2  A    between atoms: O_2  and  C_3
REMARK    3  A    between atoms: C_4  and  N_5
REMARK    4  A    between atoms: N_5  and  C_6
REMARK    5  A    between atoms: C_22  and  N_23
REMARK    6  A    between atoms: N_23  and  S_24
REMARK    7  A    between atoms: S_24  and  C_25
REMARK                            x       y       z     vdW  Elec       q    Type
REMARK                         _______ _______ _______ _____ _____    ______ ____
ROOT
ATOM      1  N   UNL     1      -6.727   1.052 126.348  0.00  0.00    +0.000 N 
ATOM      2  H   UNL     1      -7.482   1.580 125.908  0.00  0.00    +0.000 HD
ENDROOT
BRANCH   1   3
ATOM      3  C   UNL     1      -7.040  -0.356 126.425  0.00  0.00    +0.000 A 
ATOM      4  C   UNL     1      -7.448  -0.998 127.592  0.00  0.00    +0.000 A 
ATOM      5  C   UNL     1      -7.624  -0.391 128.843  0.00  0.00    +0.000 A 
ATOM      6  C   UNL     1      -7.864  -1.187 129.957  0.00  0.00    +0.000 A 
ATOM      7  C   UNL     1      -7.995  -2.571 129.832  0.00  0.00    +0.000 A 
ATOM      8  C   UNL     1      -7.895  -3.172 128.592  0.00  0.00    +0.000 A 
ATOM      9  C   UNL     1      -7.712  -2.406 127.494  0.00  0.00    +0.000 A 
ATOM     10  N   UNL     1      -7.937  -3.059 126.361  0.00  0.00    +0.000 NA
ATOM     11  C   UNL     1      -7.782  -2.391 125.258  0.00  0.00    +0.000 A 
ATOM     12  C   UNL     1      -8.404  -2.664 124.017  0.00  0.00    +0.000 A 
ATOM     13  C   UNL     1      -8.035  -2.100 122.836  0.00  0.00    +0.000 A 
ATOM     14  C   UNL     1      -6.900  -1.398 122.973  0.00  0.00    +0.000 A 
ATOM     15  C   UNL     1      -6.267  -1.219 124.266  0.00  0.00    +0.000 A 
ATOM     16  C   UNL     1      -7.032  -1.246 125.327  0.00  0.00    +0.000 A 
ENDBRANCH   1   3
BRANCH   1  18
ATOM     17  C   UNL     1      -4.744   1.943 127.685  0.00  0.00    +0.000 A 
ATOM     18  C   UNL     1      -5.566   1.877 126.552  0.00  0.00    +0.000 A 
ATOM     19  C   UNL     1      -5.199   2.838 125.543  0.00  0.00    +0.000 A 
ATOM     20  C   UNL     1      -4.168   3.821 125.771  0.00  0.00    +0.000 A 
ATOM     21  C   UNL     1      -3.371   3.738 126.902  0.00  0.00    +0.000 A 
ATOM     22  C   UNL     1      -3.653   2.730 127.726  0.00  0.00    +0.000 A 
BRANCH  17  24
ATOM     23  C   UNL     1      -4.398   1.783 130.211  0.00  0.00    +0.000 C 
ATOM     24  O   UNL     1      -4.529   1.243 128.819  0.00  0.00    +0.000 OA
ENDBRANCH  17  24
BRANCH  21  25
ATOM     25  N   UNL     1      -2.420   4.650 127.440  0.00  0.00    +0.000 N 
ATOM     26  H   UNL     1      -1.509   4.300 127.708  0.00  0.00    +0.000 HD
BRANCH  25  27
ATOM     27  S   UNL     1      -2.909   6.088 128.280  0.00  0.00    +0.000 S 
ATOM     28  C   UNL     1      -2.707   5.655 130.030  0.00  0.00    +0.000 C 
ATOM     29  O   UNL     1      -2.020   7.193 127.973  0.00  0.00    +0.000 OA
ATOM     30  O   UNL     1      -4.326   6.225 128.039  0.00  0.00    +0.000 OA
ENDBRANCH  25  27
ENDBRANCH  21  25
ENDBRANCH   1  18
TORSDOF 5
ENDMDL
MODEL 8
REMARK VINA RESULT:      -7.8      4.852      7.123
REMARK  Name = Amsacrine
REMARK  7 active torsions:
REMARK  status: ('A' for Active; 'I' for Inactive)
REMARK    1  A    between atoms: C_1  and  O_2
REMARK    2  A    between atoms: O_2  and  C_3
REMARK    3  A    between atoms: C_4  and  N_5
REMARK    4  A    between atoms: N_5  and  C_6
REMARK    5  A    between atoms: C_22  and  N_23
REMARK    6  A    between atoms: N_23  and  S_24
REMARK    7  A    between atoms: S_24  and  C_25
REMARK                            x       y       z     vdW  Elec       q    Type
REMARK                         _______ _______ _______ _____ _____    ______ ____
ROOT
ATOM      1  N   UNL     1      -7.304   0.107 129.969  0.00  0.00    +0.000 N 
ATOM      2  H   UNL     1      -6.323   0.265 130.202  0.00  0.00    +0.000 HD
ENDROOT
BRANCH   1   3
ATOM      3  C   UNL     1      -7.530  -1.249 129.523  0.00  0.00    +0.000 A 
ATOM      4  C   UNL     1      -7.926  -1.586 128.231  0.00  0.00    +0.000 A 
ATOM      5  C   UNL     1      -8.152  -0.685 127.181  0.00  0.00    +0.000 A 
ATOM      6  C   UNL     1      -8.713  -1.148 125.997  0.00  0.00    +0.000 A 
ATOM      7  C   UNL     1      -8.992  -2.504 125.821  0.00  0.00    +0.000 A 
ATOM      8  C   UNL     1      -8.706  -3.411 126.822  0.00  0.00    +0.000 A 
ATOM      9  C   UNL     1      -8.114  -2.983 127.959  0.00  0.00    +0.000 A 
ATOM     10  N   UNL     1      -7.623  -3.972 128.695  0.00  0.00    +0.000 NA
ATOM     11  C   UNL     1      -7.038  -3.642 129.806  0.00  0.00    +0.000 A 
ATOM     12  C   UNL     1      -6.046  -4.388 130.485  0.00  0.00    +0.000 A 
ATOM     13  C   UNL     1      -5.636  -4.135 131.757  0.00  0.00    +0.000 A 
ATOM     14  C   UNL     1      -6.417  -3.212 132.339  0.00  0.00    +0.000 A 
ATOM     15  C   UNL     1      -7.472  -2.537 131.606  0.00  0.00    +0.000 A 
ATOM     16  C   UNL     1      -7.325  -2.402 130.314  0.00  0.00    +0.000 A 
ENDBRANCH   1   3
BRANCH   1  18
ATOM     17  C   UNL     1      -7.967   2.572 129.964  0.00  0.00    +0.000 A 
ATOM     18  C   UNL     1      -8.117   1.232 130.347  0.00  0.00    +0.000 A 
ATOM     19  C   UNL     1      -9.179   1.044 131.303  0.00  0.00    +0.000 A 
ATOM     20  C   UNL     1      -9.900   2.159 131.865  0.00  0.00    +0.000 A 
ATOM     21  C   UNL     1      -9.715   3.433 131.351  0.00  0.00    +0.000 A 
ATOM     22  C   UNL     1      -8.833   3.524 130.356  0.00  0.00    +0.000 A 
BRANCH  17  24
ATOM     23  C   UNL     1      -7.034   2.943 127.614  0.00  0.00    +0.000 C 
ATOM     24  O   UNL     1      -7.278   3.290 129.052  0.00  0.00    +0.000 OA
ENDBRANCH  17  24
BRANCH  21  25
ATOM     25  N   UNL     1     -10.162   4.701 131.819  0.00  0.00    +0.000 N 
ATOM     26  H   UNL     1     -10.230   4.854 132.817  0.00  0.00    +0.000 HD
BRANCH  25  27
ATOM     27  S   UNL     1     -11.210   5.705 130.868  0.00  0.00    +0.000 S 
ATOM     28  C   UNL     1     -10.116   7.023 130.267  0.00  0.00    +0.000 C 
ATOM     29  O   UNL     1     -11.725   4.976 129.724  0.00  0.00    +0.000 OA
ATOM     30  O   UNL     1     -12.130   6.312 131.800  0.00  0.00    +0.000 OA
ENDBRANCH  25  27
ENDBRANCH  21  25
ENDBRANCH   1  18
TORSDOF 5
ENDMDL
MODEL 9
REMARK VINA RESULT:      -7.6      4.605      6.059
REMARK  Name = Amsacrine
REMARK  7 active torsions:
REMARK  status: ('A' for Active; 'I' for Inactive)
REMARK    1  A    between atoms: C_1  and  O_2
REMARK    2  A    between atoms: O_2  and  C_3
REMARK    3  A    between atoms: C_4  and  N_5
REMARK    4  A    between atoms: N_5  and  C_6
REMARK    5  A    between atoms: C_22  and  N_23
REMARK    6  A    between atoms: N_23  and  S_24
REMARK    7  A    between atoms: S_24  and  C_25
REMARK                            x       y       z     vdW  Elec       q    Type
REMARK                         _______ _______ _______ _____ _____    ______ ____
ROOT
ATOM      1  N   UNL     1      -7.044   1.290 126.832  0.00  0.00    +0.000 N 
ATOM      2  H   UNL     1      -6.039   1.124 126.898  0.00  0.00    +0.000 HD
ENDROOT
BRANCH   1   3
ATOM      3  C   UNL     1      -7.673   0.368 125.914  0.00  0.00    +0.000 A 
ATOM      4  C   UNL     1      -8.100  -0.909 126.269  0.00  0.00    +0.000 A 
ATOM      5  C   UNL     1      -7.997  -1.485 127.543  0.00  0.00    +0.000 A 
ATOM      6  C   UNL     1      -8.303  -2.830 127.707  0.00  0.00    +0.000 A 
ATOM      7  C   UNL     1      -8.771  -3.594 126.636  0.00  0.00    +0.000 A 
ATOM      8  C   UNL     1      -8.944  -3.018 125.393  0.00  0.00    +0.000 A 
ATOM      9  C   UNL     1      -8.699  -1.699 125.230  0.00  0.00    +0.000 A 
ATOM     10  N   UNL     1      -9.187  -1.215 124.095  0.00  0.00    +0.000 NA
ATOM     11  C   UNL     1      -8.992   0.047 123.863  0.00  0.00    +0.000 A 
ATOM     12  C   UNL     1      -9.785   0.881 123.041  0.00  0.00    +0.000 A 
ATOM     13  C   UNL     1      -9.416   2.124 122.630  0.00  0.00    +0.000 A 
ATOM     14  C   UNL     1      -8.139   2.378 122.953  0.00  0.00    +0.000 A 
ATOM     15  C   UNL     1      -7.352   1.443 123.736  0.00  0.00    +0.000 A 
ATOM     16  C   UNL     1      -7.988   0.660 124.568  0.00  0.00    +0.000 A 
ENDBRANCH   1   3
BRANCH   1  18
ATOM     17  C   UNL     1      -7.051   3.576 127.967  0.00  0.00    +0.000 A 
ATOM     18  C   UNL     1      -7.479   2.251 127.811  0.00  0.00    +0.000 A 
ATOM     19  C   UNL     1      -8.401   1.840 128.839  0.00  0.00    +0.000 A 
ATOM     20  C   UNL     1      -8.724   2.696 129.955  0.00  0.00    +0.000 A 
ATOM     21  C   UNL     1      -8.298   4.014 129.961  0.00  0.00    +0.000 A 
ATOM     22  C   UNL     1      -7.578   4.387 128.903  0.00  0.00    +0.000 A 
BRANCH  17  24
ATOM     23  C   UNL     1      -4.966   4.349 126.709  0.00  0.00    +0.000 C 
ATOM     24  O   UNL     1      -6.344   4.497 127.279  0.00  0.00    +0.000 OA
ENDBRANCH  17  24
BRANCH  21  25
ATOM     25  N   UNL     1      -8.333   5.000 130.988  0.00  0.00    +0.000 N 
ATOM     26  H   UNL     1      -7.992   4.755 131.908  0.00  0.00    +0.000 HD
BRANCH  25  27
ATOM     27  S   UNL     1      -9.497   6.287 130.975  0.00  0.00    +0.000 S 
ATOM     28  C   UNL     1     -10.894   5.597 130.045  0.00  0.00    +0.000 C 
ATOM     29  O   UNL     1      -9.945   6.590 132.322  0.00  0.00    +0.000 OA
ATOM     30  O   UNL     1      -8.923   7.333 130.163  0.00  0.00    +0.000 OA
ENDBRANCH  25  27
ENDBRANCH  21  25
ENDBRANCH   1  18
TORSDOF 5
ENDMDL
