MODEL 1
REMARK VINA RESULT:      -4.5      0.000      0.000
REMARK  Name = Amyl Nitrite
REMARK  6 active torsions:
REMARK  status: ('A' for Active; 'I' for Inactive)
REMARK    1  A    between atoms: C_1  and  C_2
REMARK    2  A    between atoms: C_2  and  C_3
REMARK    3  A    between atoms: C_3  and  C_4
REMARK    4  A    between atoms: C_4  and  C_5
REMARK    5  A    between atoms: C_5  and  O_6
REMARK    6  A    between atoms: O_6  and  N_7
REMARK                            x       y       z     vdW  Elec       q    Type
REMARK                         _______ _______ _______ _____ _____    ______ ____
ROOT
ATOM      1  C   UNL     1     -12.575   7.598 127.586  0.00  0.00    +0.000 C 
ENDROOT
BRANCH   1   2
ATOM      2  C   UNL     1     -13.111   8.761 128.412  0.00  0.00    +0.000 C 
BRANCH   2   4
ATOM      3  C   UNL     1     -12.869   7.301 130.438  0.00  0.00    +0.000 C 
ATOM      4  C   UNL     1     -12.620   8.681 129.856  0.00  0.00    +0.000 C 
ENDBRANCH   2   4
ENDBRANCH   1   2
BRANCH   1   5
ATOM      5  C   UNL     1     -11.177   7.884 127.049  0.00  0.00    +0.000 C 
BRANCH   5   6
ATOM      6  O   UNL     1     -10.797   6.780 126.231  0.00  0.00    +0.000 OA
BRANCH   6   7
ATOM      7  N   UNL     1      -9.645   6.203 126.755  0.00  0.00    +0.000 NA
ATOM      8  O   UNL     1      -8.977   5.674 125.861  0.00  0.00    +0.000 OA
ENDBRANCH   6   7
ENDBRANCH   5   6
ENDBRANCH   1   5
TORSDOF 5
ENDMDL
MODEL 2
REMARK VINA RESULT:      -4.5      1.156      1.505
REMARK  Name = Amyl Nitrite
REMARK  6 active torsions:
REMARK  status: ('A' for Active; 'I' for Inactive)
REMARK    1  A    between atoms: C_1  and  C_2
REMARK    2  A    between atoms: C_2  and  C_3
REMARK    3  A    between atoms: C_3  and  C_4
REMARK    4  A    between atoms: C_4  and  C_5
REMARK    5  A    between atoms: C_5  and  O_6
REMARK    6  A    between atoms: O_6  and  N_7
REMARK                            x       y       z     vdW  Elec       q    Type
REMARK                         _______ _______ _______ _____ _____    ______ ____
ROOT
ATOM      1  C   UNL     1     -11.633   7.888 127.451  0.00  0.00    +0.000 C 
ENDROOT
BRANCH   1   2
ATOM      2  C   UNL     1     -12.946   8.234 128.142  0.00  0.00    +0.000 C 
BRANCH   2   4
ATOM      3  C   UNL     1     -13.278  10.298 129.529  0.00  0.00    +0.000 C 
ATOM      4  C   UNL     1     -12.697   8.896 129.496  0.00  0.00    +0.000 C 
ENDBRANCH   2   4
ENDBRANCH   1   2
BRANCH   1   5
ATOM      5  C   UNL     1     -10.555   7.494 128.454  0.00  0.00    +0.000 C 
BRANCH   5   6
ATOM      6  O   UNL     1      -9.844   6.386 127.907  0.00  0.00    +0.000 OA
BRANCH   6   7
ATOM      7  N   UNL     1      -9.906   6.446 126.519  0.00  0.00    +0.000 NA
ATOM      8  O   UNL     1      -9.024   5.747 126.011  0.00  0.00    +0.000 OA
ENDBRANCH   6   7
ENDBRANCH   5   6
ENDBRANCH   1   5
TORSDOF 5
ENDMDL
MODEL 3
REMARK VINA RESULT:      -4.3      1.165      1.424
REMARK  Name = Amyl Nitrite
REMARK  6 active torsions:
REMARK  status: ('A' for Active; 'I' for Inactive)
REMARK    1  A    between atoms: C_1  and  C_2
REMARK    2  A    between atoms: C_2  and  C_3
REMARK    3  A    between atoms: C_3  and  C_4
REMARK    4  A    between atoms: C_4  and  C_5
REMARK    5  A    between atoms: C_5  and  O_6
REMARK    6  A    between atoms: O_6  and  N_7
REMARK                            x       y       z     vdW  Elec       q    Type
REMARK                         _______ _______ _______ _____ _____    ______ ____
ROOT
ATOM      1  C   UNL     1     -13.448   7.438 128.485  0.00  0.00    +0.000 C 
ENDROOT
BRANCH   1   2
ATOM      2  C   UNL     1     -12.456   8.008 129.493  0.00  0.00    +0.000 C 
BRANCH   2   4
ATOM      3  C   UNL     1     -11.926   6.614 131.510  0.00  0.00    +0.000 C 
ATOM      4  C   UNL     1     -12.862   7.655 130.922  0.00  0.00    +0.000 C 
ENDBRANCH   2   4
ENDBRANCH   1   2
BRANCH   1   5
ATOM      5  C   UNL     1     -12.772   7.093 127.163  0.00  0.00    +0.000 C 
BRANCH   5   6
ATOM      6  O   UNL     1     -11.428   6.716 127.453  0.00  0.00    +0.000 OA
BRANCH   6   7
ATOM      7  N   UNL     1     -10.655   6.872 126.308  0.00  0.00    +0.000 NA
ATOM      8  O   UNL     1      -9.630   6.188 126.377  0.00  0.00    +0.000 OA
ENDBRANCH   6   7
ENDBRANCH   5   6
ENDBRANCH   1   5
TORSDOF 5
ENDMDL
MODEL 4
REMARK VINA RESULT:      -4.1      1.597      2.213
REMARK  Name = Amyl Nitrite
REMARK  6 active torsions:
REMARK  status: ('A' for Active; 'I' for Inactive)
REMARK    1  A    between atoms: C_1  and  C_2
REMARK    2  A    between atoms: C_2  and  C_3
REMARK    3  A    between atoms: C_3  and  C_4
REMARK    4  A    between atoms: C_4  and  C_5
REMARK    5  A    between atoms: C_5  and  O_6
REMARK    6  A    between atoms: O_6  and  N_7
REMARK                            x       y       z     vdW  Elec       q    Type
REMARK                         _______ _______ _______ _____ _____    ______ ____
ROOT
ATOM      1  C   UNL     1     -13.077   7.313 129.051  0.00  0.00    +0.000 C 
ENDROOT
BRANCH   1   2
ATOM      2  C   UNL     1     -12.640   8.565 129.803  0.00  0.00    +0.000 C 
BRANCH   2   4
ATOM      3  C   UNL     1     -13.473  10.910 130.125  0.00  0.00    +0.000 C 
ATOM      4  C   UNL     1     -13.150   9.827 129.111  0.00  0.00    +0.000 C 
ENDBRANCH   2   4
ENDBRANCH   1   2
BRANCH   1   5
ATOM      5  C   UNL     1     -13.274   7.588 127.565  0.00  0.00    +0.000 C 
BRANCH   5   6
ATOM      6  O   UNL     1     -12.544   6.599 126.844  0.00  0.00    +0.000 OA
BRANCH   6   7
ATOM      7  N   UNL     1     -11.203   6.965 126.800  0.00  0.00    +0.000 NA
ATOM      8  O   UNL     1     -10.958   7.600 125.770  0.00  0.00    +0.000 OA
ENDBRANCH   6   7
ENDBRANCH   5   6
ENDBRANCH   1   5
TORSDOF 5
ENDMDL
MODEL 5
REMARK VINA RESULT:      -4.0      1.537      1.962
REMARK  Name = Amyl Nitrite
REMARK  6 active torsions:
REMARK  status: ('A' for Active; 'I' for Inactive)
REMARK    1  A    between atoms: C_1  and  C_2
REMARK    2  A    between atoms: C_2  and  C_3
REMARK    3  A    between atoms: C_3  and  C_4
REMARK    4  A    between atoms: C_4  and  C_5
REMARK    5  A    between atoms: C_5  and  O_6
REMARK    6  A    between atoms: O_6  and  N_7
REMARK                            x       y       z     vdW  Elec       q    Type
REMARK                         _______ _______ _______ _____ _____    ______ ____
ROOT
ATOM      1  C   UNL     1     -11.589   7.930 129.149  0.00  0.00    +0.000 C 
ENDROOT
BRANCH   1   2
ATOM      2  C   UNL     1     -12.136   6.538 129.448  0.00  0.00    +0.000 C 
BRANCH   2   4
ATOM      3  C   UNL     1     -10.260   6.555 131.113  0.00  0.00    +0.000 C 
ATOM      4  C   UNL     1     -11.655   6.041 130.810  0.00  0.00    +0.000 C 
ENDBRANCH   2   4
ENDBRANCH   1   2
BRANCH   1   5
ATOM      5  C   UNL     1     -11.082   8.040 127.715  0.00  0.00    +0.000 C 
BRANCH   5   6
ATOM      6  O   UNL     1      -9.983   7.142 127.579  0.00  0.00    +0.000 OA
BRANCH   6   7
ATOM      7  N   UNL     1     -10.034   6.549 126.321  0.00  0.00    +0.000 NA
ATOM      8  O   UNL     1      -9.095   5.762 126.171  0.00  0.00    +0.000 OA
ENDBRANCH   6   7
ENDBRANCH   5   6
ENDBRANCH   1   5
TORSDOF 5
ENDMDL
MODEL 6
REMARK VINA RESULT:      -3.9     11.241     12.299
REMARK  Name = Amyl Nitrite
REMARK  6 active torsions:
REMARK  status: ('A' for Active; 'I' for Inactive)
REMARK    1  A    between atoms: C_1  and  C_2
REMARK    2  A    between atoms: C_2  and  C_3
REMARK    3  A    between atoms: C_3  and  C_4
REMARK    4  A    between atoms: C_4  and  C_5
REMARK    5  A    between atoms: C_5  and  O_6
REMARK    6  A    between atoms: O_6  and  N_7
REMARK                            x       y       z     vdW  Elec       q    Type
REMARK                         _______ _______ _______ _____ _____    ______ ____
ROOT
ATOM      1  C   UNL     1      -7.202  -2.360 123.923  0.00  0.00    +0.000 C 
ENDROOT
BRANCH   1   2
ATOM      2  C   UNL     1      -5.956  -3.013 124.509  0.00  0.00    +0.000 C 
BRANCH   2   4
ATOM      3  C   UNL     1      -4.285  -4.641 123.584  0.00  0.00    +0.000 C 
ATOM      4  C   UNL     1      -4.908  -3.265 123.426  0.00  0.00    +0.000 C 
ENDBRANCH   2   4
ENDBRANCH   1   2
BRANCH   1   5
ATOM      5  C   UNL     1      -8.389  -3.317 123.916  0.00  0.00    +0.000 C 
BRANCH   5   6
ATOM      6  O   UNL     1      -9.575  -2.530 123.997  0.00  0.00    +0.000 OA
BRANCH   6   7
ATOM      7  N   UNL     1      -9.307  -1.252 123.520  0.00  0.00    +0.000 NA
ATOM      8  O   UNL     1     -10.173  -0.896 122.715  0.00  0.00    +0.000 OA
ENDBRANCH   6   7
ENDBRANCH   5   6
ENDBRANCH   1   5
TORSDOF 5
ENDMDL
MODEL 7
REMARK VINA RESULT:      -3.9      9.810     10.627
REMARK  Name = Amyl Nitrite
REMARK  6 active torsions:
REMARK  status: ('A' for Active; 'I' for Inactive)
REMARK    1  A    between atoms: C_1  and  C_2
REMARK    2  A    between atoms: C_2  and  C_3
REMARK    3  A    between atoms: C_3  and  C_4
REMARK    4  A    between atoms: C_4  and  C_5
REMARK    5  A    between atoms: C_5  and  O_6
REMARK    6  A    between atoms: O_6  and  N_7
REMARK                            x       y       z     vdW  Elec       q    Type
REMARK                         _______ _______ _______ _____ _____    ______ ____
ROOT
ATOM      1  C   UNL     1      -8.597  -2.166 122.784  0.00  0.00    +0.000 C 
ENDROOT
BRANCH   1   2
ATOM      2  C   UNL     1      -9.319  -3.192 123.649  0.00  0.00    +0.000 C 
BRANCH   2   4
ATOM      3  C   UNL     1      -8.894  -3.404 126.113  0.00  0.00    +0.000 C 
ATOM      4  C   UNL     1      -8.390  -3.754 124.724  0.00  0.00    +0.000 C 
ENDBRANCH   2   4
ENDBRANCH   1   2
BRANCH   1   5
ATOM      5  C   UNL     1      -8.398  -0.846 123.521  0.00  0.00    +0.000 C 
BRANCH   5   6
ATOM      6  O   UNL     1      -9.665  -0.449 124.040  0.00  0.00    +0.000 OA
BRANCH   6   7
ATOM      7  N   UNL     1     -10.132   0.642 123.314  0.00  0.00    +0.000 NA
ATOM      8  O   UNL     1     -11.112   0.326 122.634  0.00  0.00    +0.000 OA
ENDBRANCH   6   7
ENDBRANCH   5   6
ENDBRANCH   1   5
TORSDOF 5
ENDMDL
MODEL 8
REMARK VINA RESULT:      -3.9     10.573     10.965
REMARK  Name = Amyl Nitrite
REMARK  6 active torsions:
REMARK  status: ('A' for Active; 'I' for Inactive)
REMARK    1  A    between atoms: C_1  and  C_2
REMARK    2  A    between atoms: C_2  and  C_3
REMARK    3  A    between atoms: C_3  and  C_4
REMARK    4  A    between atoms: C_4  and  C_5
REMARK    5  A    between atoms: C_5  and  O_6
REMARK    6  A    between atoms: O_6  and  N_7
REMARK                            x       y       z     vdW  Elec       q    Type
REMARK                         _______ _______ _______ _____ _____    ______ ____
ROOT
ATOM      1  C   UNL     1      -8.461  -3.621 125.272  0.00  0.00    +0.000 C 
ENDROOT
BRANCH   1   2
ATOM      2  C   UNL     1      -9.054  -3.028 126.544  0.00  0.00    +0.000 C 
BRANCH   2   4
ATOM      3  C   UNL     1      -8.370  -3.303 128.942  0.00  0.00    +0.000 C 
ATOM      4  C   UNL     1      -8.928  -4.001 127.715  0.00  0.00    +0.000 C 
ENDBRANCH   2   4
ENDBRANCH   1   2
BRANCH   1   5
ATOM      5  C   UNL     1      -9.290  -3.266 124.044  0.00  0.00    +0.000 C 
BRANCH   5   6
ATOM      6  O   UNL     1      -9.570  -1.870 124.103  0.00  0.00    +0.000 OA
BRANCH   6   7
ATOM      7  N   UNL     1      -9.480  -1.333 122.823  0.00  0.00    +0.000 NA
ATOM      8  O   UNL     1     -10.384  -0.516 122.628  0.00  0.00    +0.000 OA
ENDBRANCH   6   7
ENDBRANCH   5   6
ENDBRANCH   1   5
TORSDOF 5
ENDMDL
MODEL 9
REMARK VINA RESULT:      -3.8      8.551      9.231
REMARK  Name = Amyl Nitrite
REMARK  6 active torsions:
REMARK  status: ('A' for Active; 'I' for Inactive)
REMARK    1  A    between atoms: C_1  and  C_2
REMARK    2  A    between atoms: C_2  and  C_3
REMARK    3  A    between atoms: C_3  and  C_4
REMARK    4  A    between atoms: C_4  and  C_5
REMARK    5  A    between atoms: C_5  and  O_6
REMARK    6  A    between atoms: O_6  and  N_7
REMARK                            x       y       z     vdW  Elec       q    Type
REMARK                         _______ _______ _______ _____ _____    ______ ____
ROOT
ATOM      1  C   UNL     1      -7.229   3.643 120.947  0.00  0.00    +0.000 C 
ENDROOT
BRANCH   1   2
ATOM      2  C   UNL     1      -6.484   3.057 122.140  0.00  0.00    +0.000 C 
BRANCH   2   4
ATOM      3  C   UNL     1      -8.874   2.496 122.656  0.00  0.00    +0.000 C 
ATOM      4  C   UNL     1      -7.458   2.546 123.200  0.00  0.00    +0.000 C 
ENDBRANCH   2   4
ENDBRANCH   1   2
BRANCH   1   5
ATOM      5  C   UNL     1      -6.299   4.431 120.033  0.00  0.00    +0.000 C 
BRANCH   5   6
ATOM      6  O   UNL     1      -5.066   4.609 120.725  0.00  0.00    +0.000 OA
BRANCH   6   7
ATOM      7  N   UNL     1      -4.667   5.936 120.610  0.00  0.00    +0.000 NA
ATOM      8  O   UNL     1      -5.179   6.461 119.616  0.00  0.00    +0.000 OA
ENDBRANCH   6   7
ENDBRANCH   5   6
ENDBRANCH   1   5
TORSDOF 5
ENDMDL
