MODEL 1
REMARK VINA RESULT:      -6.0      0.000      0.000
REMARK  Name = Amylocaine
REMARK  10 active torsions:
REMARK  status: ('A' for Active; 'I' for Inactive)
REMARK    1  A    between atoms: C_1  and  C_2
REMARK    2  A    between atoms: C_2  and  C_3
REMARK    3  A    between atoms: C_3  and  C_4
REMARK    4  A    between atoms: C_3  and  C_5
REMARK    5  A    between atoms: C_3  and  O_9
REMARK    6  A    between atoms: C_5  and  N_6
REMARK    7  A    between atoms: N_6  and  C_7
REMARK    8  A    between atoms: N_6  and  C_8
REMARK    9  A    between atoms: O_9  and  C_10
REMARK   10  A    between atoms: C_10  and  C_12
REMARK                            x       y       z     vdW  Elec       q    Type
REMARK                         _______ _______ _______ _____ _____    ______ ____
ROOT
ATOM      1  O   UNL     1     -10.269   7.234 131.158  0.00  0.00    +0.000 OA
ENDROOT
BRANCH   1   2
ATOM      2  C   UNL     1      -9.259   6.134 131.345  0.00  0.00    +0.000 C 
ATOM      3  C   UNL     1      -7.864   6.732 131.109  0.00  0.00    +0.000 C 
BRANCH   2   5
ATOM      4  C   UNL     1      -9.178   4.210 133.429  0.00  0.00    +0.000 C 
ATOM      5  C   UNL     1      -9.359   5.700 132.918  0.00  0.00    +0.000 C 
ENDBRANCH   2   5
BRANCH   2   6
ATOM      6  C   UNL     1      -9.602   4.977 130.264  0.00  0.00    +0.000 C 
BRANCH   6   7
ATOM      7  N   UNL     1      -8.514   4.061 129.847  0.00  0.00    +0.000 NA
ATOM      8  C   UNL     1      -8.983   2.717 129.951  0.00  0.00    +0.000 C 
ATOM      9  C   UNL     1      -8.035   4.168 128.496  0.00  0.00    +0.000 C 
ENDBRANCH   6   7
ENDBRANCH   2   6
ENDBRANCH   1   2
BRANCH   1  10
ATOM     10  C   UNL     1     -11.602   6.907 131.065  0.00  0.00    +0.000 C 
ATOM     11  O   UNL     1     -12.259   6.303 131.878  0.00  0.00    +0.000 OA
BRANCH  10  12
ATOM     12  C   UNL     1     -12.262   7.373 129.818  0.00  0.00    +0.000 A 
ATOM     13  C   UNL     1     -12.437   8.757 129.638  0.00  0.00    +0.000 A 
ATOM     14  C   UNL     1     -13.268   9.240 128.622  0.00  0.00    +0.000 A 
ATOM     15  C   UNL     1     -13.872   8.345 127.743  0.00  0.00    +0.000 A 
ATOM     16  C   UNL     1     -13.689   6.970 127.909  0.00  0.00    +0.000 A 
ATOM     17  C   UNL     1     -12.892   6.480 128.952  0.00  0.00    +0.000 A 
ENDBRANCH  10  12
ENDBRANCH   1  10
TORSDOF 6
ENDMDL
MODEL 2
REMARK VINA RESULT:      -5.9      1.276      2.243
REMARK  Name = Amylocaine
REMARK  10 active torsions:
REMARK  status: ('A' for Active; 'I' for Inactive)
REMARK    1  A    between atoms: C_1  and  C_2
REMARK    2  A    between atoms: C_2  and  C_3
REMARK    3  A    between atoms: C_3  and  C_4
REMARK    4  A    between atoms: C_3  and  C_5
REMARK    5  A    between atoms: C_3  and  O_9
REMARK    6  A    between atoms: C_5  and  N_6
REMARK    7  A    between atoms: N_6  and  C_7
REMARK    8  A    between atoms: N_6  and  C_8
REMARK    9  A    between atoms: O_9  and  C_10
REMARK   10  A    between atoms: C_10  and  C_12
REMARK                            x       y       z     vdW  Elec       q    Type
REMARK                         _______ _______ _______ _____ _____    ______ ____
ROOT
ATOM      1  O   UNL     1     -11.099   5.197 130.321  0.00  0.00    +0.000 OA
ENDROOT
BRANCH   1   2
ATOM      2  C   UNL     1      -9.673   5.080 130.790  0.00  0.00    +0.000 C 
ATOM      3  C   UNL     1      -8.868   4.388 129.680  0.00  0.00    +0.000 C 
BRANCH   2   5
ATOM      4  C   UNL     1      -7.584   6.986 131.019  0.00  0.00    +0.000 C 
ATOM      5  C   UNL     1      -9.122   6.614 130.926  0.00  0.00    +0.000 C 
ENDBRANCH   2   5
BRANCH   2   6
ATOM      6  C   UNL     1      -9.685   4.205 132.153  0.00  0.00    +0.000 C 
BRANCH   6   7
ATOM      7  N   UNL     1      -8.909   2.942 132.183  0.00  0.00    +0.000 NA
ATOM      8  C   UNL     1      -8.140   2.908 133.385  0.00  0.00    +0.000 C 
ATOM      9  C   UNL     1      -9.645   1.707 132.195  0.00  0.00    +0.000 C 
ENDBRANCH   6   7
ENDBRANCH   2   6
ENDBRANCH   1   2
BRANCH   1  10
ATOM     10  C   UNL     1     -11.883   6.212 130.818  0.00  0.00    +0.000 C 
ATOM     11  O   UNL     1     -12.206   6.384 131.968  0.00  0.00    +0.000 OA
BRANCH  10  12
ATOM     12  C   UNL     1     -12.357   7.179 129.793  0.00  0.00    +0.000 A 
ATOM     13  C   UNL     1     -12.272   8.552 130.089  0.00  0.00    +0.000 A 
ATOM     14  C   UNL     1     -12.928   9.491 129.287  0.00  0.00    +0.000 A 
ATOM     15  C   UNL     1     -13.612   9.067 128.150  0.00  0.00    +0.000 A 
ATOM     16  C   UNL     1     -13.686   7.706 127.845  0.00  0.00    +0.000 A 
ATOM     17  C   UNL     1     -13.067   6.758 128.670  0.00  0.00    +0.000 A 
ENDBRANCH  10  12
ENDBRANCH   1  10
TORSDOF 6
ENDMDL
MODEL 3
REMARK VINA RESULT:      -5.8      8.481     10.444
REMARK  Name = Amylocaine
REMARK  10 active torsions:
REMARK  status: ('A' for Active; 'I' for Inactive)
REMARK    1  A    between atoms: C_1  and  C_2
REMARK    2  A    between atoms: C_2  and  C_3
REMARK    3  A    between atoms: C_3  and  C_4
REMARK    4  A    between atoms: C_3  and  C_5
REMARK    5  A    between atoms: C_3  and  O_9
REMARK    6  A    between atoms: C_5  and  N_6
REMARK    7  A    between atoms: N_6  and  C_7
REMARK    8  A    between atoms: N_6  and  C_8
REMARK    9  A    between atoms: O_9  and  C_10
REMARK   10  A    between atoms: C_10  and  C_12
REMARK                            x       y       z     vdW  Elec       q    Type
REMARK                         _______ _______ _______ _____ _____    ______ ____
ROOT
ATOM      1  O   UNL     1      -8.211  -0.117 125.550  0.00  0.00    +0.000 OA
ENDROOT
BRANCH   1   2
ATOM      2  C   UNL     1      -7.068   0.187 124.618  0.00  0.00    +0.000 C 
ATOM      3  C   UNL     1      -6.213   1.286 125.266  0.00  0.00    +0.000 C 
BRANCH   2   5
ATOM      4  C   UNL     1      -6.019  -2.069 123.255  0.00  0.00    +0.000 C 
ATOM      5  C   UNL     1      -6.168  -1.177 124.556  0.00  0.00    +0.000 C 
ENDBRANCH   2   5
BRANCH   2   6
ATOM      6  C   UNL     1      -7.710   0.681 123.215  0.00  0.00    +0.000 C 
BRANCH   6   7
ATOM      7  N   UNL     1      -8.995   1.419 123.251  0.00  0.00    +0.000 NA
ATOM      8  C   UNL     1      -8.825   2.664 122.574  0.00  0.00    +0.000 C 
ATOM      9  C   UNL     1     -10.129   0.815 122.607  0.00  0.00    +0.000 C 
ENDBRANCH   6   7
ENDBRANCH   2   6
ENDBRANCH   1   2
BRANCH   1  10
ATOM     10  C   UNL     1      -8.745  -1.385 125.558  0.00  0.00    +0.000 C 
ATOM     11  O   UNL     1      -9.412  -1.897 124.693  0.00  0.00    +0.000 OA
BRANCH  10  12
ATOM     12  C   UNL     1      -8.437  -2.172 126.781  0.00  0.00    +0.000 A 
ATOM     13  C   UNL     1      -9.018  -3.447 126.911  0.00  0.00    +0.000 A 
ATOM     14  C   UNL     1      -8.977  -4.123 128.134  0.00  0.00    +0.000 A 
ATOM     15  C   UNL     1      -8.297  -3.558 129.210  0.00  0.00    +0.000 A 
ATOM     16  C   UNL     1      -7.706  -2.298 129.080  0.00  0.00    +0.000 A 
ATOM     17  C   UNL     1      -7.782  -1.599 127.869  0.00  0.00    +0.000 A 
ENDBRANCH  10  12
ENDBRANCH   1  10
TORSDOF 6
ENDMDL
MODEL 4
REMARK VINA RESULT:      -5.8      8.459      9.970
REMARK  Name = Amylocaine
REMARK  10 active torsions:
REMARK  status: ('A' for Active; 'I' for Inactive)
REMARK    1  A    between atoms: C_1  and  C_2
REMARK    2  A    between atoms: C_2  and  C_3
REMARK    3  A    between atoms: C_3  and  C_4
REMARK    4  A    between atoms: C_3  and  C_5
REMARK    5  A    between atoms: C_3  and  O_9
REMARK    6  A    between atoms: C_5  and  N_6
REMARK    7  A    between atoms: N_6  and  C_7
REMARK    8  A    between atoms: N_6  and  C_8
REMARK    9  A    between atoms: O_9  and  C_10
REMARK   10  A    between atoms: C_10  and  C_12
REMARK                            x       y       z     vdW  Elec       q    Type
REMARK                         _______ _______ _______ _____ _____    ______ ____
ROOT
ATOM      1  O   UNL     1      -7.053   1.836 123.295  0.00  0.00    +0.000 OA
ENDROOT
BRANCH   1   2
ATOM      2  C   UNL     1      -7.808   0.681 123.896  0.00  0.00    +0.000 C 
ATOM      3  C   UNL     1      -7.692   0.788 125.424  0.00  0.00    +0.000 C 
BRANCH   2   5
ATOM      4  C   UNL     1     -10.136   0.062 122.399  0.00  0.00    +0.000 C 
ATOM      5  C   UNL     1      -9.375   0.917 123.495  0.00  0.00    +0.000 C 
ENDBRANCH   2   5
BRANCH   2   6
ATOM      6  C   UNL     1      -7.128  -0.681 123.341  0.00  0.00    +0.000 C 
BRANCH   6   7
ATOM      7  N   UNL     1      -7.018  -1.837 124.263  0.00  0.00    +0.000 NA
ATOM      8  C   UNL     1      -7.939  -2.843 123.843  0.00  0.00    +0.000 C 
ATOM      9  C   UNL     1      -5.753  -2.517 124.331  0.00  0.00    +0.000 C 
ENDBRANCH   6   7
ENDBRANCH   2   6
ENDBRANCH   1   2
BRANCH   1  10
ATOM     10  C   UNL     1      -7.729   2.999 123.010  0.00  0.00    +0.000 C 
ATOM     11  O   UNL     1      -8.303   3.715 123.793  0.00  0.00    +0.000 OA
BRANCH  10  12
ATOM     12  C   UNL     1      -7.721   3.377 121.572  0.00  0.00    +0.000 A 
ATOM     13  C   UNL     1      -6.497   3.763 120.996  0.00  0.00    +0.000 A 
ATOM     14  C   UNL     1      -6.467   4.368 119.735  0.00  0.00    +0.000 A 
ATOM     15  C   UNL     1      -7.651   4.526 119.020  0.00  0.00    +0.000 A 
ATOM     16  C   UNL     1      -8.868   4.130 119.583  0.00  0.00    +0.000 A 
ATOM     17  C   UNL     1      -8.907   3.563 120.863  0.00  0.00    +0.000 A 
ENDBRANCH  10  12
ENDBRANCH   1  10
TORSDOF 6
ENDMDL
MODEL 5
REMARK VINA RESULT:      -5.7      8.310     10.965
REMARK  Name = Amylocaine
REMARK  10 active torsions:
REMARK  status: ('A' for Active; 'I' for Inactive)
REMARK    1  A    between atoms: C_1  and  C_2
REMARK    2  A    between atoms: C_2  and  C_3
REMARK    3  A    between atoms: C_3  and  C_4
REMARK    4  A    between atoms: C_3  and  C_5
REMARK    5  A    between atoms: C_3  and  O_9
REMARK    6  A    between atoms: C_5  and  N_6
REMARK    7  A    between atoms: N_6  and  C_7
REMARK    8  A    between atoms: N_6  and  C_8
REMARK    9  A    between atoms: O_9  and  C_10
REMARK   10  A    between atoms: C_10  and  C_12
REMARK                            x       y       z     vdW  Elec       q    Type
REMARK                         _______ _______ _______ _____ _____    ______ ____
ROOT
ATOM      1  O   UNL     1      -8.456   0.415 122.861  0.00  0.00    +0.000 OA
ENDROOT
BRANCH   1   2
ATOM      2  C   UNL     1      -8.654   1.375 124.002  0.00  0.00    +0.000 C 
ATOM      3  C   UNL     1     -10.143   1.353 124.382  0.00  0.00    +0.000 C 
BRANCH   2   5
ATOM      4  C   UNL     1      -8.480  -0.003 126.477  0.00  0.00    +0.000 C 
ATOM      5  C   UNL     1      -7.809   0.756 125.257  0.00  0.00    +0.000 C 
ENDBRANCH   2   5
BRANCH   2   6
ATOM      6  C   UNL     1      -8.193   2.840 123.486  0.00  0.00    +0.000 C 
BRANCH   6   7
ATOM      7  N   UNL     1      -7.570   2.947 122.145  0.00  0.00    +0.000 NA
ATOM      8  C   UNL     1      -8.486   3.602 121.268  0.00  0.00    +0.000 C 
ATOM      9  C   UNL     1      -6.359   3.713 122.032  0.00  0.00    +0.000 C 
ENDBRANCH   6   7
ENDBRANCH   2   6
ENDBRANCH   1   2
BRANCH   1  10
ATOM     10  C   UNL     1      -8.928  -0.872 122.981  0.00  0.00    +0.000 C 
ATOM     11  O   UNL     1     -10.078  -1.231 122.919  0.00  0.00    +0.000 OA
BRANCH  10  12
ATOM     12  C   UNL     1      -7.873  -1.894 123.206  0.00  0.00    +0.000 A 
ATOM     13  C   UNL     1      -8.177  -2.988 124.037  0.00  0.00    +0.000 A 
ATOM     14  C   UNL     1      -7.163  -3.838 124.489  0.00  0.00    +0.000 A 
ATOM     15  C   UNL     1      -5.854  -3.638 124.057  0.00  0.00    +0.000 A 
ATOM     16  C   UNL     1      -5.550  -2.561 123.219  0.00  0.00    +0.000 A 
ATOM     17  C   UNL     1      -6.557  -1.682 122.799  0.00  0.00    +0.000 A 
ENDBRANCH  10  12
ENDBRANCH   1  10
TORSDOF 6
ENDMDL
MODEL 6
REMARK VINA RESULT:      -5.7     10.037     11.802
REMARK  Name = Amylocaine
REMARK  10 active torsions:
REMARK  status: ('A' for Active; 'I' for Inactive)
REMARK    1  A    between atoms: C_1  and  C_2
REMARK    2  A    between atoms: C_2  and  C_3
REMARK    3  A    between atoms: C_3  and  C_4
REMARK    4  A    between atoms: C_3  and  C_5
REMARK    5  A    between atoms: C_3  and  O_9
REMARK    6  A    between atoms: C_5  and  N_6
REMARK    7  A    between atoms: N_6  and  C_7
REMARK    8  A    between atoms: N_6  and  C_8
REMARK    9  A    between atoms: O_9  and  C_10
REMARK   10  A    between atoms: C_10  and  C_12
REMARK                            x       y       z     vdW  Elec       q    Type
REMARK                         _______ _______ _______ _____ _____    ______ ____
ROOT
ATOM      1  O   UNL     1      -5.396  -2.074 125.622  0.00  0.00    +0.000 OA
ENDROOT
BRANCH   1   2
ATOM      2  C   UNL     1      -6.109  -2.413 124.341  0.00  0.00    +0.000 C 
ATOM      3  C   UNL     1      -6.525  -1.094 123.672  0.00  0.00    +0.000 C 
BRANCH   2   5
ATOM      4  C   UNL     1      -4.363  -4.552 123.689  0.00  0.00    +0.000 C 
ATOM      5  C   UNL     1      -4.993  -3.129 123.385  0.00  0.00    +0.000 C 
ENDBRANCH   2   5
BRANCH   2   6
ATOM      6  C   UNL     1      -7.397  -3.316 124.731  0.00  0.00    +0.000 C 
BRANCH   6   7
ATOM      7  N   UNL     1      -8.743  -2.707 124.612  0.00  0.00    +0.000 NA
ATOM      8  C   UNL     1      -9.438  -3.341 123.539  0.00  0.00    +0.000 C 
ATOM      9  C   UNL     1      -9.632  -2.831 125.735  0.00  0.00    +0.000 C 
ENDBRANCH   6   7
ENDBRANCH   2   6
ENDBRANCH   1   2
BRANCH   1  10
ATOM     10  C   UNL     1      -6.129  -1.617 126.693  0.00  0.00    +0.000 C 
ATOM     11  O   UNL     1      -6.791  -0.609 126.741  0.00  0.00    +0.000 OA
BRANCH  10  12
ATOM     12  C   UNL     1      -6.073  -2.491 127.893  0.00  0.00    +0.000 A 
ATOM     13  C   UNL     1      -7.285  -2.827 128.524  0.00  0.00    +0.000 A 
ATOM     14  C   UNL     1      -7.283  -3.425 129.788  0.00  0.00    +0.000 A 
ATOM     15  C   UNL     1      -6.073  -3.750 130.394  0.00  0.00    +0.000 A 
ATOM     16  C   UNL     1      -4.867  -3.432 129.764  0.00  0.00    +0.000 A 
ATOM     17  C   UNL     1      -4.864  -2.793 128.517  0.00  0.00    +0.000 A 
ENDBRANCH  10  12
ENDBRANCH   1  10
TORSDOF 6
ENDMDL
MODEL 7
REMARK VINA RESULT:      -5.6      1.753      3.218
REMARK  Name = Amylocaine
REMARK  10 active torsions:
REMARK  status: ('A' for Active; 'I' for Inactive)
REMARK    1  A    between atoms: C_1  and  C_2
REMARK    2  A    between atoms: C_2  and  C_3
REMARK    3  A    between atoms: C_3  and  C_4
REMARK    4  A    between atoms: C_3  and  C_5
REMARK    5  A    between atoms: C_3  and  O_9
REMARK    6  A    between atoms: C_5  and  N_6
REMARK    7  A    between atoms: N_6  and  C_7
REMARK    8  A    between atoms: N_6  and  C_8
REMARK    9  A    between atoms: O_9  and  C_10
REMARK   10  A    between atoms: C_10  and  C_12
REMARK                            x       y       z     vdW  Elec       q    Type
REMARK                         _______ _______ _______ _____ _____    ______ ____
ROOT
ATOM      1  O   UNL     1      -9.228   5.336 131.012  0.00  0.00    +0.000 OA
ENDROOT
BRANCH   1   2
ATOM      2  C   UNL     1      -9.539   3.864 130.976  0.00  0.00    +0.000 C 
ATOM      3  C   UNL     1     -10.984   3.701 130.478  0.00  0.00    +0.000 C 
BRANCH   2   5
ATOM      4  C   UNL     1      -8.419   1.671 129.567  0.00  0.00    +0.000 C 
ATOM      5  C   UNL     1      -8.545   3.227 129.845  0.00  0.00    +0.000 C 
ENDBRANCH   2   5
BRANCH   2   6
ATOM      6  C   UNL     1      -9.360   3.297 132.482  0.00  0.00    +0.000 C 
BRANCH   6   7
ATOM      7  N   UNL     1      -8.081   3.559 133.184  0.00  0.00    +0.000 NA
ATOM      8  C   UNL     1      -8.367   4.183 134.435  0.00  0.00    +0.000 C 
ATOM      9  C   UNL     1      -7.265   2.426 133.528  0.00  0.00    +0.000 C 
ENDBRANCH   6   7
ENDBRANCH   2   6
ENDBRANCH   1   2
BRANCH   1  10
ATOM     10  C   UNL     1     -10.187   6.209 131.471  0.00  0.00    +0.000 C 
ATOM     11  O   UNL     1     -10.498   6.406 132.620  0.00  0.00    +0.000 OA
BRANCH  10  12
ATOM     12  C   UNL     1     -10.883   6.974 130.403  0.00  0.00    +0.000 A 
ATOM     13  C   UNL     1     -10.117   7.450 129.323  0.00  0.00    +0.000 A 
ATOM     14  C   UNL     1     -10.654   8.381 128.430  0.00  0.00    +0.000 A 
ATOM     15  C   UNL     1     -11.978   8.788 128.573  0.00  0.00    +0.000 A 
ATOM     16  C   UNL     1     -12.747   8.306 129.636  0.00  0.00    +0.000 A 
ATOM     17  C   UNL     1     -12.199   7.406 130.559  0.00  0.00    +0.000 A 
ENDBRANCH  10  12
ENDBRANCH   1  10
TORSDOF 6
ENDMDL
MODEL 8
REMARK VINA RESULT:      -5.6      1.811      2.656
REMARK  Name = Amylocaine
REMARK  10 active torsions:
REMARK  status: ('A' for Active; 'I' for Inactive)
REMARK    1  A    between atoms: C_1  and  C_2
REMARK    2  A    between atoms: C_2  and  C_3
REMARK    3  A    between atoms: C_3  and  C_4
REMARK    4  A    between atoms: C_3  and  C_5
REMARK    5  A    between atoms: C_3  and  O_9
REMARK    6  A    between atoms: C_5  and  N_6
REMARK    7  A    between atoms: N_6  and  C_7
REMARK    8  A    between atoms: N_6  and  C_8
REMARK    9  A    between atoms: O_9  and  C_10
REMARK   10  A    between atoms: C_10  and  C_12
REMARK                            x       y       z     vdW  Elec       q    Type
REMARK                         _______ _______ _______ _____ _____    ______ ____
ROOT
ATOM      1  O   UNL     1      -8.927   6.418 132.348  0.00  0.00    +0.000 OA
ENDROOT
BRANCH   1   2
ATOM      2  C   UNL     1      -8.032   5.266 132.721  0.00  0.00    +0.000 C 
ATOM      3  C   UNL     1      -6.578   5.756 132.637  0.00  0.00    +0.000 C 
BRANCH   2   5
ATOM      4  C   UNL     1      -7.408   5.349 135.487  0.00  0.00    +0.000 C 
ATOM      5  C   UNL     1      -8.359   4.937 134.288  0.00  0.00    +0.000 C 
ENDBRANCH   2   5
BRANCH   2   6
ATOM      6  C   UNL     1      -8.320   4.071 131.666  0.00  0.00    +0.000 C 
BRANCH   6   7
ATOM      7  N   UNL     1      -9.639   3.397 131.712  0.00  0.00    +0.000 NA
ATOM      8  C   UNL     1     -10.159   3.323 130.385  0.00  0.00    +0.000 C 
ATOM      9  C   UNL     1      -9.679   2.041 132.187  0.00  0.00    +0.000 C 
ENDBRANCH   6   7
ENDBRANCH   2   6
ENDBRANCH   1   2
BRANCH   1  10
ATOM     10  C   UNL     1      -8.925   6.870 131.049  0.00  0.00    +0.000 C 
ATOM     11  O   UNL     1      -7.959   7.099 130.362  0.00  0.00    +0.000 OA
BRANCH  10  12
ATOM     12  C   UNL     1     -10.278   7.082 130.471  0.00  0.00    +0.000 A 
ATOM     13  C   UNL     1     -10.382   7.840 129.290  0.00  0.00    +0.000 A 
ATOM     14  C   UNL     1     -11.629   8.286 128.842  0.00  0.00    +0.000 A 
ATOM     15  C   UNL     1     -12.780   7.919 129.534  0.00  0.00    +0.000 A 
ATOM     16  C   UNL     1     -12.682   7.153 130.700  0.00  0.00    +0.000 A 
ATOM     17  C   UNL     1     -11.431   6.741 131.175  0.00  0.00    +0.000 A 
ENDBRANCH  10  12
ENDBRANCH   1  10
TORSDOF 6
ENDMDL
MODEL 9
REMARK VINA RESULT:      -5.6      1.685      2.393
REMARK  Name = Amylocaine
REMARK  10 active torsions:
REMARK  status: ('A' for Active; 'I' for Inactive)
REMARK    1  A    between atoms: C_1  and  C_2
REMARK    2  A    between atoms: C_2  and  C_3
REMARK    3  A    between atoms: C_3  and  C_4
REMARK    4  A    between atoms: C_3  and  C_5
REMARK    5  A    between atoms: C_3  and  O_9
REMARK    6  A    between atoms: C_5  and  N_6
REMARK    7  A    between atoms: N_6  and  C_7
REMARK    8  A    between atoms: N_6  and  C_8
REMARK    9  A    between atoms: O_9  and  C_10
REMARK   10  A    between atoms: C_10  and  C_12
REMARK                            x       y       z     vdW  Elec       q    Type
REMARK                         _______ _______ _______ _____ _____    ______ ____
ROOT
ATOM      1  O   UNL     1      -9.545   5.108 130.718  0.00  0.00    +0.000 OA
ENDROOT
BRANCH   1   2
ATOM      2  C   UNL     1      -8.308   5.304 131.551  0.00  0.00    +0.000 C 
ATOM      3  C   UNL     1      -7.765   6.712 131.262  0.00  0.00    +0.000 C 
BRANCH   2   5
ATOM      4  C   UNL     1      -9.045   3.932 133.923  0.00  0.00    +0.000 C 
ATOM      5  C   UNL     1      -8.809   5.271 133.107  0.00  0.00    +0.000 C 
ENDBRANCH   2   5
BRANCH   2   6
ATOM      6  C   UNL     1      -7.249   4.157 131.119  0.00  0.00    +0.000 C 
BRANCH   6   7
ATOM      7  N   UNL     1      -7.777   2.883 130.574  0.00  0.00    +0.000 NA
ATOM      8  C   UNL     1      -7.170   2.645 129.305  0.00  0.00    +0.000 C 
ATOM      9  C   UNL     1      -7.524   1.682 131.322  0.00  0.00    +0.000 C 
ENDBRANCH   6   7
ENDBRANCH   2   6
ENDBRANCH   1   2
BRANCH   1  10
ATOM     10  C   UNL     1      -9.666   5.792 129.531  0.00  0.00    +0.000 C 
ATOM     11  O   UNL     1      -9.094   5.554 128.495  0.00  0.00    +0.000 OA
BRANCH  10  12
ATOM     12  C   UNL     1     -10.615   6.935 129.574  0.00  0.00    +0.000 A 
ATOM     13  C   UNL     1     -11.579   6.956 130.600  0.00  0.00    +0.000 A 
ATOM     14  C   UNL     1     -12.649   7.855 130.547  0.00  0.00    +0.000 A 
ATOM     15  C   UNL     1     -12.722   8.779 129.508  0.00  0.00    +0.000 A 
ATOM     16  C   UNL     1     -11.758   8.771 128.496  0.00  0.00    +0.000 A 
ATOM     17  C   UNL     1     -10.708   7.843 128.522  0.00  0.00    +0.000 A 
ENDBRANCH  10  12
ENDBRANCH   1  10
TORSDOF 6
ENDMDL
