MODEL 1
REMARK VINA RESULT:      -5.9      0.000      0.000
REMARK  Name = Amylmetacresol
REMARK  7 active torsions:
REMARK  status: ('A' for Active; 'I' for Inactive)
REMARK    1  A    between atoms: C_1  and  C_2
REMARK    2  A    between atoms: C_2  and  C_3
REMARK    3  A    between atoms: C_3  and  C_4
REMARK    4  A    between atoms: C_4  and  C_5
REMARK    5  A    between atoms: C_5  and  C_6
REMARK    6  A    between atoms: C_9  and  C_10
REMARK    7  A    between atoms: C_12  and  O_13
REMARK                            x       y       z     vdW  Elec       q    Type
REMARK                         _______ _______ _______ _____ _____    ______ ____
ROOT
ATOM      1  C   UNL     1     -11.203   7.240 130.418  0.00  0.00    +0.000 A 
ATOM      2  C   UNL     1     -10.017   7.599 129.760  0.00  0.00    +0.000 A 
ATOM      3  C   UNL     1      -8.776   7.212 130.271  0.00  0.00    +0.000 A 
ATOM      4  C   UNL     1      -8.702   6.471 131.455  0.00  0.00    +0.000 A 
ATOM      5  C   UNL     1      -7.386   6.055 132.037  0.00  0.00    +0.000 C 
ATOM      6  C   UNL     1      -9.884   6.112 132.115  0.00  0.00    +0.000 A 
ATOM      7  C   UNL     1     -11.119   6.495 131.596  0.00  0.00    +0.000 A 
ENDROOT
BRANCH   7   8
ATOM      8  O   UNL     1     -12.269   6.150 132.247  0.00  0.00    +0.000 OA
ATOM      9  H   UNL     1     -12.446   6.811 132.935  0.00  0.00    +0.000 HD
ENDBRANCH   7   8
BRANCH   1  10
ATOM     10  C   UNL     1     -12.527   7.713 129.879  0.00  0.00    +0.000 C 
BRANCH  10  11
ATOM     11  C   UNL     1     -13.054   6.750 128.818  0.00  0.00    +0.000 C 
BRANCH  11  12
ATOM     12  C   UNL     1     -13.306   7.482 127.505  0.00  0.00    +0.000 C 
BRANCH  12  14
ATOM     13  C   UNL     1     -11.084   7.774 126.388  0.00  0.00    +0.000 C 
ATOM     14  C   UNL     1     -12.375   6.976 126.408  0.00  0.00    +0.000 C 
ENDBRANCH  12  14
ENDBRANCH  11  12
ENDBRANCH  10  11
ENDBRANCH   1  10
TORSDOF 5
ENDMDL
MODEL 2
REMARK VINA RESULT:      -5.7      1.584      5.173
REMARK  Name = Amylmetacresol
REMARK  7 active torsions:
REMARK  status: ('A' for Active; 'I' for Inactive)
REMARK    1  A    between atoms: C_1  and  C_2
REMARK    2  A    between atoms: C_2  and  C_3
REMARK    3  A    between atoms: C_3  and  C_4
REMARK    4  A    between atoms: C_4  and  C_5
REMARK    5  A    between atoms: C_5  and  C_6
REMARK    6  A    between atoms: C_9  and  C_10
REMARK    7  A    between atoms: C_12  and  O_13
REMARK                            x       y       z     vdW  Elec       q    Type
REMARK                         _______ _______ _______ _____ _____    ______ ____
ROOT
ATOM      1  C   UNL     1     -10.610   6.888 130.130  0.00  0.00    +0.000 A 
ATOM      2  C   UNL     1     -10.322   7.709 129.029  0.00  0.00    +0.000 A 
ATOM      3  C   UNL     1     -11.252   8.650 128.583  0.00  0.00    +0.000 A 
ATOM      4  C   UNL     1     -12.490   8.775 129.222  0.00  0.00    +0.000 A 
ATOM      5  C   UNL     1     -13.515   9.763 128.756  0.00  0.00    +0.000 C 
ATOM      6  C   UNL     1     -12.781   7.956 130.320  0.00  0.00    +0.000 A 
ATOM      7  C   UNL     1     -11.845   7.024 130.766  0.00  0.00    +0.000 A 
ENDROOT
BRANCH   7   8
ATOM      8  O   UNL     1     -12.137   6.222 131.832  0.00  0.00    +0.000 OA
ATOM      9  H   UNL     1     -11.866   6.677 132.645  0.00  0.00    +0.000 HD
ENDBRANCH   7   8
BRANCH   1  10
ATOM     10  C   UNL     1      -9.615   5.842 130.561  0.00  0.00    +0.000 C 
BRANCH  10  11
ATOM     11  C   UNL     1      -8.524   6.463 131.431  0.00  0.00    +0.000 C 
BRANCH  11  12
ATOM     12  C   UNL     1      -8.658   5.996 132.876  0.00  0.00    +0.000 C 
BRANCH  12  14
ATOM     13  C   UNL     1      -8.747   3.861 134.181  0.00  0.00    +0.000 C 
ATOM     14  C   UNL     1      -9.242   4.589 132.944  0.00  0.00    +0.000 C 
ENDBRANCH  12  14
ENDBRANCH  11  12
ENDBRANCH  10  11
ENDBRANCH   1  10
TORSDOF 5
ENDMDL
MODEL 3
REMARK VINA RESULT:      -5.5      1.583      5.109
REMARK  Name = Amylmetacresol
REMARK  7 active torsions:
REMARK  status: ('A' for Active; 'I' for Inactive)
REMARK    1  A    between atoms: C_1  and  C_2
REMARK    2  A    between atoms: C_2  and  C_3
REMARK    3  A    between atoms: C_3  and  C_4
REMARK    4  A    between atoms: C_4  and  C_5
REMARK    5  A    between atoms: C_5  and  C_6
REMARK    6  A    between atoms: C_9  and  C_10
REMARK    7  A    between atoms: C_12  and  O_13
REMARK                            x       y       z     vdW  Elec       q    Type
REMARK                         _______ _______ _______ _____ _____    ______ ____
ROOT
ATOM      1  C   UNL     1     -10.570   6.835 130.213  0.00  0.00    +0.000 A 
ATOM      2  C   UNL     1     -10.273   7.632 129.098  0.00  0.00    +0.000 A 
ATOM      3  C   UNL     1     -11.201   8.560 128.621  0.00  0.00    +0.000 A 
ATOM      4  C   UNL     1     -12.445   8.696 129.244  0.00  0.00    +0.000 A 
ATOM      5  C   UNL     1     -13.469   9.671 128.746  0.00  0.00    +0.000 C 
ATOM      6  C   UNL     1     -12.746   7.901 130.357  0.00  0.00    +0.000 A 
ATOM      7  C   UNL     1     -11.812   6.982 130.833  0.00  0.00    +0.000 A 
ENDROOT
BRANCH   7   8
ATOM      8  O   UNL     1     -12.113   6.203 131.914  0.00  0.00    +0.000 OA
ATOM      9  H   UNL     1     -11.715   6.602 132.703  0.00  0.00    +0.000 HD
ENDBRANCH   7   8
BRANCH   1  10
ATOM     10  C   UNL     1      -9.577   5.803 130.678  0.00  0.00    +0.000 C 
BRANCH  10  11
ATOM     11  C   UNL     1      -8.629   6.396 131.718  0.00  0.00    +0.000 C 
BRANCH  11  12
ATOM     12  C   UNL     1      -7.368   6.934 131.051  0.00  0.00    +0.000 C 
BRANCH  12  14
ATOM     13  C   UNL     1      -6.472   5.720 133.049  0.00  0.00    +0.000 C 
ATOM     14  C   UNL     1      -6.115   6.410 131.745  0.00  0.00    +0.000 C 
ENDBRANCH  12  14
ENDBRANCH  11  12
ENDBRANCH  10  11
ENDBRANCH   1  10
TORSDOF 5
ENDMDL
MODEL 4
REMARK VINA RESULT:      -5.5      1.456      2.140
REMARK  Name = Amylmetacresol
REMARK  7 active torsions:
REMARK  status: ('A' for Active; 'I' for Inactive)
REMARK    1  A    between atoms: C_1  and  C_2
REMARK    2  A    between atoms: C_2  and  C_3
REMARK    3  A    between atoms: C_3  and  C_4
REMARK    4  A    between atoms: C_4  and  C_5
REMARK    5  A    between atoms: C_5  and  C_6
REMARK    6  A    between atoms: C_9  and  C_10
REMARK    7  A    between atoms: C_12  and  O_13
REMARK                            x       y       z     vdW  Elec       q    Type
REMARK                         _______ _______ _______ _____ _____    ______ ____
ROOT
ATOM      1  C   UNL     1     -10.952   6.784 130.800  0.00  0.00    +0.000 A 
ATOM      2  C   UNL     1     -10.874   6.228 132.086  0.00  0.00    +0.000 A 
ATOM      3  C   UNL     1      -9.634   5.988 132.682  0.00  0.00    +0.000 A 
ATOM      4  C   UNL     1      -8.453   6.287 131.995  0.00  0.00    +0.000 A 
ATOM      5  C   UNL     1      -7.108   6.025 132.600  0.00  0.00    +0.000 C 
ATOM      6  C   UNL     1      -8.528   6.840 130.710  0.00  0.00    +0.000 A 
ATOM      7  C   UNL     1      -9.768   7.085 130.125  0.00  0.00    +0.000 A 
ENDROOT
BRANCH   7   8
ATOM      8  O   UNL     1      -9.836   7.618 128.869  0.00  0.00    +0.000 OA
ATOM      9  H   UNL     1      -9.916   8.581 128.945  0.00  0.00    +0.000 HD
ENDBRANCH   7   8
BRANCH   1  10
ATOM     10  C   UNL     1     -12.298   6.985 130.155  0.00  0.00    +0.000 C 
BRANCH  10  11
ATOM     11  C   UNL     1     -12.578   8.471 129.942  0.00  0.00    +0.000 C 
BRANCH  11  12
ATOM     12  C   UNL     1     -13.116   8.720 128.537  0.00  0.00    +0.000 C 
BRANCH  12  14
ATOM     13  C   UNL     1     -12.603   7.132 126.671  0.00  0.00    +0.000 C 
ATOM     14  C   UNL     1     -13.504   7.410 127.860  0.00  0.00    +0.000 C 
ENDBRANCH  12  14
ENDBRANCH  11  12
ENDBRANCH  10  11
ENDBRANCH   1  10
TORSDOF 5
ENDMDL
MODEL 5
REMARK VINA RESULT:      -5.5     10.691     11.302
REMARK  Name = Amylmetacresol
REMARK  7 active torsions:
REMARK  status: ('A' for Active; 'I' for Inactive)
REMARK    1  A    between atoms: C_1  and  C_2
REMARK    2  A    between atoms: C_2  and  C_3
REMARK    3  A    between atoms: C_3  and  C_4
REMARK    4  A    between atoms: C_4  and  C_5
REMARK    5  A    between atoms: C_5  and  C_6
REMARK    6  A    between atoms: C_9  and  C_10
REMARK    7  A    between atoms: C_12  and  O_13
REMARK                            x       y       z     vdW  Elec       q    Type
REMARK                         _______ _______ _______ _____ _____    ______ ____
ROOT
ATOM      1  C   UNL     1      -8.442  -2.685 126.529  0.00  0.00    +0.000 A 
ATOM      2  C   UNL     1      -8.914  -3.745 127.318  0.00  0.00    +0.000 A 
ATOM      3  C   UNL     1      -8.648  -3.783 128.688  0.00  0.00    +0.000 A 
ATOM      4  C   UNL     1      -7.895  -2.769 129.288  0.00  0.00    +0.000 A 
ATOM      5  C   UNL     1      -7.577  -2.791 130.752  0.00  0.00    +0.000 C 
ATOM      6  C   UNL     1      -7.421  -1.711 128.503  0.00  0.00    +0.000 A 
ATOM      7  C   UNL     1      -7.696  -1.674 127.137  0.00  0.00    +0.000 A 
ENDROOT
BRANCH   7   8
ATOM      8  O   UNL     1      -7.225  -0.644 126.374  0.00  0.00    +0.000 OA
ATOM      9  H   UNL     1      -7.156  -0.946 125.455  0.00  0.00    +0.000 HD
ENDBRANCH   7   8
BRANCH   1  10
ATOM     10  C   UNL     1      -8.695  -2.691 125.044  0.00  0.00    +0.000 C 
BRANCH  10  11
ATOM     11  C   UNL     1      -7.730  -3.641 124.336  0.00  0.00    +0.000 C 
BRANCH  11  12
ATOM     12  C   UNL     1      -6.564  -2.869 123.730  0.00  0.00    +0.000 C 
BRANCH  12  14
ATOM     13  C   UNL     1      -4.515  -4.306 123.667  0.00  0.00    +0.000 C 
ATOM     14  C   UNL     1      -5.254  -3.220 124.428  0.00  0.00    +0.000 C 
ENDBRANCH  12  14
ENDBRANCH  11  12
ENDBRANCH  10  11
ENDBRANCH   1  10
TORSDOF 5
ENDMDL
MODEL 6
REMARK VINA RESULT:      -5.5      1.380      1.948
REMARK  Name = Amylmetacresol
REMARK  7 active torsions:
REMARK  status: ('A' for Active; 'I' for Inactive)
REMARK    1  A    between atoms: C_1  and  C_2
REMARK    2  A    between atoms: C_2  and  C_3
REMARK    3  A    between atoms: C_3  and  C_4
REMARK    4  A    between atoms: C_4  and  C_5
REMARK    5  A    between atoms: C_5  and  C_6
REMARK    6  A    between atoms: C_9  and  C_10
REMARK    7  A    between atoms: C_12  and  O_13
REMARK                            x       y       z     vdW  Elec       q    Type
REMARK                         _______ _______ _______ _____ _____    ______ ____
ROOT
ATOM      1  C   UNL     1      -9.971   6.394 131.461  0.00  0.00    +0.000 A 
ATOM      2  C   UNL     1      -9.116   7.088 130.592  0.00  0.00    +0.000 A 
ATOM      3  C   UNL     1      -7.733   7.055 130.779  0.00  0.00    +0.000 A 
ATOM      4  C   UNL     1      -7.184   6.336 131.846  0.00  0.00    +0.000 A 
ATOM      5  C   UNL     1      -5.705   6.295 132.083  0.00  0.00    +0.000 C 
ATOM      6  C   UNL     1      -8.035   5.643 132.716  0.00  0.00    +0.000 A 
ATOM      7  C   UNL     1      -9.414   5.675 132.520  0.00  0.00    +0.000 A 
ENDROOT
BRANCH   7   8
ATOM      8  O   UNL     1     -10.240   5.003 133.376  0.00  0.00    +0.000 OA
ATOM      9  H   UNL     1      -9.856   5.036 134.266  0.00  0.00    +0.000 HD
ENDBRANCH   7   8
BRANCH   1  10
ATOM     10  C   UNL     1     -11.463   6.488 131.273  0.00  0.00    +0.000 C 
BRANCH  10  11
ATOM     11  C   UNL     1     -11.831   6.346 129.798  0.00  0.00    +0.000 C 
BRANCH  11  12
ATOM     12  C   UNL     1     -12.808   7.439 129.381  0.00  0.00    +0.000 C 
BRANCH  12  14
ATOM     13  C   UNL     1     -11.119   8.334 127.764  0.00  0.00    +0.000 C 
ATOM     14  C   UNL     1     -12.067   8.681 128.898  0.00  0.00    +0.000 C 
ENDBRANCH  12  14
ENDBRANCH  11  12
ENDBRANCH  10  11
ENDBRANCH   1  10
TORSDOF 5
ENDMDL
MODEL 7
REMARK VINA RESULT:      -5.3      2.385      5.479
REMARK  Name = Amylmetacresol
REMARK  7 active torsions:
REMARK  status: ('A' for Active; 'I' for Inactive)
REMARK    1  A    between atoms: C_1  and  C_2
REMARK    2  A    between atoms: C_2  and  C_3
REMARK    3  A    between atoms: C_3  and  C_4
REMARK    4  A    between atoms: C_4  and  C_5
REMARK    5  A    between atoms: C_5  and  C_6
REMARK    6  A    between atoms: C_9  and  C_10
REMARK    7  A    between atoms: C_12  and  O_13
REMARK                            x       y       z     vdW  Elec       q    Type
REMARK                         _______ _______ _______ _____ _____    ______ ____
ROOT
ATOM      1  C   UNL     1     -10.574   6.614 131.366  0.00  0.00    +0.000 A 
ATOM      2  C   UNL     1     -11.957   6.727 131.578  0.00  0.00    +0.000 A 
ATOM      3  C   UNL     1     -12.761   7.417 130.668  0.00  0.00    +0.000 A 
ATOM      4  C   UNL     1     -12.192   8.015 129.539  0.00  0.00    +0.000 A 
ATOM      5  C   UNL     1     -13.026   8.777 128.553  0.00  0.00    +0.000 C 
ATOM      6  C   UNL     1     -10.813   7.906 129.325  0.00  0.00    +0.000 A 
ATOM      7  C   UNL     1     -10.017   7.210 130.233  0.00  0.00    +0.000 A 
ENDROOT
BRANCH   7   8
ATOM      8  O   UNL     1      -8.671   7.112 130.024  0.00  0.00    +0.000 OA
ATOM      9  H   UNL     1      -8.303   6.481 130.663  0.00  0.00    +0.000 HD
ENDBRANCH   7   8
BRANCH   1  10
ATOM     10  C   UNL     1      -9.718   5.912 132.387  0.00  0.00    +0.000 C 
BRANCH  10  11
ATOM     11  C   UNL     1      -9.616   4.422 132.073  0.00  0.00    +0.000 C 
BRANCH  11  12
ATOM     12  C   UNL     1      -9.187   3.640 133.309  0.00  0.00    +0.000 C 
BRANCH  12  14
ATOM     13  C   UNL     1      -9.735   1.577 132.000  0.00  0.00    +0.000 C 
ATOM     14  C   UNL     1      -8.736   2.232 132.937  0.00  0.00    +0.000 C 
ENDBRANCH  12  14
ENDBRANCH  11  12
ENDBRANCH  10  11
ENDBRANCH   1  10
TORSDOF 5
ENDMDL
MODEL 8
REMARK VINA RESULT:      -5.3     10.269     11.122
REMARK  Name = Amylmetacresol
REMARK  7 active torsions:
REMARK  status: ('A' for Active; 'I' for Inactive)
REMARK    1  A    between atoms: C_1  and  C_2
REMARK    2  A    between atoms: C_2  and  C_3
REMARK    3  A    between atoms: C_3  and  C_4
REMARK    4  A    between atoms: C_4  and  C_5
REMARK    5  A    between atoms: C_5  and  C_6
REMARK    6  A    between atoms: C_9  and  C_10
REMARK    7  A    between atoms: C_12  and  O_13
REMARK                            x       y       z     vdW  Elec       q    Type
REMARK                         _______ _______ _______ _____ _____    ______ ____
ROOT
ATOM      1  C   UNL     1      -8.358  -1.677 123.130  0.00  0.00    +0.000 A 
ATOM      2  C   UNL     1      -7.064  -1.346 122.699  0.00  0.00    +0.000 A 
ATOM      3  C   UNL     1      -5.975  -2.150 123.040  0.00  0.00    +0.000 A 
ATOM      4  C   UNL     1      -6.160  -3.290 123.828  0.00  0.00    +0.000 A 
ATOM      5  C   UNL     1      -5.009  -4.163 124.226  0.00  0.00    +0.000 C 
ATOM      6  C   UNL     1      -7.450  -3.622 124.262  0.00  0.00    +0.000 A 
ATOM      7  C   UNL     1      -8.534  -2.819 123.912  0.00  0.00    +0.000 A 
ENDROOT
BRANCH   7   8
ATOM      8  O   UNL     1      -9.789  -3.143 124.343  0.00  0.00    +0.000 OA
ATOM      9  H   UNL     1     -10.270  -2.324 124.538  0.00  0.00    +0.000 HD
ENDBRANCH   7   8
BRANCH   1  10
ATOM     10  C   UNL     1      -9.510  -0.766 122.796  0.00  0.00    +0.000 C 
BRANCH  10  11
ATOM     11  C   UNL     1      -9.462   0.501 123.647  0.00  0.00    +0.000 C 
BRANCH  11  12
ATOM     12  C   UNL     1      -9.471   1.742 122.763  0.00  0.00    +0.000 C 
BRANCH  12  14
ATOM     13  C   UNL     1      -7.050   2.358 122.930  0.00  0.00    +0.000 C 
ATOM     14  C   UNL     1      -8.470   2.778 123.264  0.00  0.00    +0.000 C 
ENDBRANCH  12  14
ENDBRANCH  11  12
ENDBRANCH  10  11
ENDBRANCH   1  10
TORSDOF 5
ENDMDL
MODEL 9
REMARK VINA RESULT:      -5.2      2.442      5.016
REMARK  Name = Amylmetacresol
REMARK  7 active torsions:
REMARK  status: ('A' for Active; 'I' for Inactive)
REMARK    1  A    between atoms: C_1  and  C_2
REMARK    2  A    between atoms: C_2  and  C_3
REMARK    3  A    between atoms: C_3  and  C_4
REMARK    4  A    between atoms: C_4  and  C_5
REMARK    5  A    between atoms: C_5  and  C_6
REMARK    6  A    between atoms: C_9  and  C_10
REMARK    7  A    between atoms: C_12  and  O_13
REMARK                            x       y       z     vdW  Elec       q    Type
REMARK                         _______ _______ _______ _____ _____    ______ ____
ROOT
ATOM      1  C   UNL     1     -10.551   6.563 130.481  0.00  0.00    +0.000 A 
ATOM      2  C   UNL     1     -10.171   7.279 129.335  0.00  0.00    +0.000 A 
ATOM      3  C   UNL     1     -11.021   8.241 128.786  0.00  0.00    +0.000 A 
ATOM      4  C   UNL     1     -12.268   8.494 129.367  0.00  0.00    +0.000 A 
ATOM      5  C   UNL     1     -13.208   9.509 128.791  0.00  0.00    +0.000 C 
ATOM      6  C   UNL     1     -12.650   7.780 130.509  0.00  0.00    +0.000 A 
ATOM      7  C   UNL     1     -11.795   6.826 131.057  0.00  0.00    +0.000 A 
ENDROOT
BRANCH   7   8
ATOM      8  O   UNL     1     -12.175   6.127 132.167  0.00  0.00    +0.000 OA
ATOM      9  H   UNL     1     -12.175   6.729 132.927  0.00  0.00    +0.000 HD
ENDBRANCH   7   8
BRANCH   1  10
ATOM     10  C   UNL     1      -9.643   5.491 131.025  0.00  0.00    +0.000 C 
BRANCH  10  11
ATOM     11  C   UNL     1     -10.040   4.120 130.481  0.00  0.00    +0.000 C 
BRANCH  11  12
ATOM     12  C   UNL     1      -9.145   3.032 131.061  0.00  0.00    +0.000 C 
BRANCH  12  14
ATOM     13  C   UNL     1      -9.300   0.638 131.779  0.00  0.00    +0.000 C 
ATOM     14  C   UNL     1      -9.964   2.003 131.833  0.00  0.00    +0.000 C 
ENDBRANCH  12  14
ENDBRANCH  11  12
ENDBRANCH  10  11
ENDBRANCH   1  10
TORSDOF 5
ENDMDL
