MODEL 1
REMARK VINA RESULT:      -7.0      0.000      0.000
REMARK  Name = Anagrelide
REMARK  0 active torsions:
REMARK  status: ('A' for Active; 'I' for Inactive)
REMARK                            x       y       z     vdW  Elec       q    Type
REMARK                         _______ _______ _______ _____ _____    ______ ____
ROOT
ATOM      1 CL   UNL     1      -6.014   5.393 118.313  0.00  0.00    +0.000 Cl
ATOM      2  C   UNL     1      -6.323   4.613 119.827  0.00  0.00    +0.000 A 
ATOM      3  C   UNL     1      -5.263   4.505 120.729  0.00  0.00    +0.000 A 
ATOM      4  C   UNL     1      -5.453   3.886 121.971  0.00  0.00    +0.000 A 
ATOM      5  C   UNL     1      -6.700   3.360 122.327  0.00  0.00    +0.000 A 
ATOM      6  N   UNL     1      -6.837   2.706 123.583  0.00  0.00    +0.000 NA
ATOM      7  C   UNL     1      -7.894   1.980 123.700  0.00  0.00    +0.000 C 
ATOM      8  N   UNL     1      -8.148   1.159 124.741  0.00  0.00    +0.000 N 
ATOM      9  C   UNL     1      -9.159   0.289 124.409  0.00  0.00    +0.000 C 
ATOM     10  O   UNL     1      -9.450  -0.744 124.997  0.00  0.00    +0.000 OA
ATOM     11  C   UNL     1      -9.804   0.804 123.117  0.00  0.00    +0.000 C 
ATOM     12  N   UNL     1      -8.889   1.870 122.790  0.00  0.00    +0.000 N 
ATOM     13  C   UNL     1      -9.100   2.861 121.783  0.00  0.00    +0.000 C 
ATOM     14  C   UNL     1      -7.766   3.448 121.398  0.00  0.00    +0.000 A 
ATOM     15  C   UNL     1      -7.579   4.093 120.160  0.00  0.00    +0.000 A 
ATOM     16 CL   UNL     1      -8.912   4.240 119.056  0.00  0.00    +0.000 Cl
ATOM     17  H   UNL     1      -7.542   1.033 125.533  0.00  0.00    +0.000 HD
ENDROOT
TORSDOF 0
ENDMDL
MODEL 2
REMARK VINA RESULT:      -6.8      8.470      9.404
REMARK  Name = Anagrelide
REMARK  0 active torsions:
REMARK  status: ('A' for Active; 'I' for Inactive)
REMARK                            x       y       z     vdW  Elec       q    Type
REMARK                         _______ _______ _______ _____ _____    ______ ____
ROOT
ATOM      1 CL   UNL     1     -13.560   9.834 128.881  0.00  0.00    +0.000 Cl
ATOM      2  C   UNL     1     -12.323   8.624 128.899  0.00  0.00    +0.000 A 
ATOM      3  C   UNL     1     -11.530   8.488 127.759  0.00  0.00    +0.000 A 
ATOM      4  C   UNL     1     -10.513   7.528 127.717  0.00  0.00    +0.000 A 
ATOM      5  C   UNL     1     -10.277   6.684 128.807  0.00  0.00    +0.000 A 
ATOM      6  N   UNL     1      -9.257   5.697 128.706  0.00  0.00    +0.000 NA
ATOM      7  C   UNL     1      -9.314   4.769 129.597  0.00  0.00    +0.000 C 
ATOM      8  N   UNL     1      -8.544   3.661 129.599  0.00  0.00    +0.000 N 
ATOM      9  C   UNL     1      -9.074   2.731 130.460  0.00  0.00    +0.000 C 
ATOM     10  O   UNL     1      -8.796   1.539 130.502  0.00  0.00    +0.000 OA
ATOM     11  C   UNL     1     -10.138   3.439 131.306  0.00  0.00    +0.000 C 
ATOM     12  N   UNL     1     -10.179   4.715 130.635  0.00  0.00    +0.000 N 
ATOM     13  C   UNL     1     -10.850   5.881 131.117  0.00  0.00    +0.000 C 
ATOM     14  C   UNL     1     -11.101   6.807 129.953  0.00  0.00    +0.000 A 
ATOM     15  C   UNL     1     -12.107   7.791 130.004  0.00  0.00    +0.000 A 
ATOM     16 CL   UNL     1     -13.071   7.963 131.438  0.00  0.00    +0.000 Cl
ATOM     17  H   UNL     1      -7.844   3.447 128.909  0.00  0.00    +0.000 HD
ENDROOT
TORSDOF 0
ENDMDL
MODEL 3
REMARK VINA RESULT:      -6.7      9.777     10.879
REMARK  Name = Anagrelide
REMARK  0 active torsions:
REMARK  status: ('A' for Active; 'I' for Inactive)
REMARK                            x       y       z     vdW  Elec       q    Type
REMARK                         _______ _______ _______ _____ _____    ______ ____
ROOT
ATOM      1 CL   UNL     1     -13.497   9.263 128.474  0.00  0.00    +0.000 Cl
ATOM      2  C   UNL     1     -12.558   8.328 129.587  0.00  0.00    +0.000 A 
ATOM      3  C   UNL     1     -13.160   7.953 130.789  0.00  0.00    +0.000 A 
ATOM      4  C   UNL     1     -12.451   7.193 131.728  0.00  0.00    +0.000 A 
ATOM      5  C   UNL     1     -11.129   6.805 131.484  0.00  0.00    +0.000 A 
ATOM      6  N   UNL     1     -10.434   6.067 132.482  0.00  0.00    +0.000 NA
ATOM      7  C   UNL     1      -9.156   6.028 132.332  0.00  0.00    +0.000 C 
ATOM      8  N   UNL     1      -8.294   5.515 133.235  0.00  0.00    +0.000 N 
ATOM      9  C   UNL     1      -7.016   5.927 132.942  0.00  0.00    +0.000 C 
ATOM     10  O   UNL     1      -6.048   5.879 133.690  0.00  0.00    +0.000 OA
ATOM     11  C   UNL     1      -7.040   6.537 131.536  0.00  0.00    +0.000 C 
ATOM     12  N   UNL     1      -8.461   6.536 131.289  0.00  0.00    +0.000 N 
ATOM     13  C   UNL     1      -9.082   6.802 130.030  0.00  0.00    +0.000 C 
ATOM     14  C   UNL     1     -10.512   7.210 130.275  0.00  0.00    +0.000 A 
ATOM     15  C   UNL     1     -11.236   7.952 129.321  0.00  0.00    +0.000 A 
ATOM     16 CL   UNL     1     -10.481   8.392 127.820  0.00  0.00    +0.000 Cl
ATOM     17  H   UNL     1      -8.560   5.107 134.115  0.00  0.00    +0.000 HD
ENDROOT
TORSDOF 0
ENDMDL
MODEL 4
REMARK VINA RESULT:      -6.6     10.595     11.271
REMARK  Name = Anagrelide
REMARK  0 active torsions:
REMARK  status: ('A' for Active; 'I' for Inactive)
REMARK                            x       y       z     vdW  Elec       q    Type
REMARK                         _______ _______ _______ _____ _____    ______ ____
ROOT
ATOM      1 CL   UNL     1      -6.262   4.502 134.596  0.00  0.00    +0.000 Cl
ATOM      2  C   UNL     1      -7.061   5.281 133.273  0.00  0.00    +0.000 A 
ATOM      3  C   UNL     1      -6.298   6.114 132.454  0.00  0.00    +0.000 A 
ATOM      4  C   UNL     1      -6.889   6.768 131.366  0.00  0.00    +0.000 A 
ATOM      5  C   UNL     1      -8.250   6.608 131.086  0.00  0.00    +0.000 A 
ATOM      6  N   UNL     1      -8.817   7.323 129.994  0.00  0.00    +0.000 NA
ATOM      7  C   UNL     1     -10.103   7.380 129.996  0.00  0.00    +0.000 C 
ATOM      8  N   UNL     1     -10.838   8.127 129.146  0.00  0.00    +0.000 N 
ATOM      9  C   UNL     1     -12.124   8.237 129.619  0.00  0.00    +0.000 C 
ATOM     10  O   UNL     1     -12.964   9.049 129.254  0.00  0.00    +0.000 OA
ATOM     11  C   UNL     1     -12.289   7.213 130.747  0.00  0.00    +0.000 C 
ATOM     12  N   UNL     1     -10.926   6.759 130.872  0.00  0.00    +0.000 N 
ATOM     13  C   UNL     1     -10.497   5.630 131.636  0.00  0.00    +0.000 C 
ATOM     14  C   UNL     1      -9.028   5.782 131.936  0.00  0.00    +0.000 A 
ATOM     15  C   UNL     1      -8.426   5.104 133.013  0.00  0.00    +0.000 A 
ATOM     16 CL   UNL     1      -9.383   4.053 134.011  0.00  0.00    +0.000 Cl
ATOM     17  H   UNL     1     -10.459   8.712 128.421  0.00  0.00    +0.000 HD
ENDROOT
TORSDOF 0
ENDMDL
MODEL 5
REMARK VINA RESULT:      -6.5      1.672      2.698
REMARK  Name = Anagrelide
REMARK  0 active torsions:
REMARK  status: ('A' for Active; 'I' for Inactive)
REMARK                            x       y       z     vdW  Elec       q    Type
REMARK                         _______ _______ _______ _____ _____    ______ ____
ROOT
ATOM      1 CL   UNL     1      -6.204   5.350 118.376  0.00  0.00    +0.000 Cl
ATOM      2  C   UNL     1      -7.003   4.502 119.656  0.00  0.00    +0.000 A 
ATOM      3  C   UNL     1      -8.377   4.290 119.536  0.00  0.00    +0.000 A 
ATOM      4  C   UNL     1      -9.077   3.608 120.539  0.00  0.00    +0.000 A 
ATOM      5  C   UNL     1      -8.418   3.136 121.679  0.00  0.00    +0.000 A 
ATOM      6  N   UNL     1      -9.176   2.482 122.690  0.00  0.00    +0.000 NA
ATOM      7  C   UNL     1      -8.577   2.369 123.824  0.00  0.00    +0.000 C 
ATOM      8  N   UNL     1      -9.160   1.921 124.956  0.00  0.00    +0.000 N 
ATOM      9  C   UNL     1      -8.375   2.241 126.038  0.00  0.00    +0.000 C 
ATOM     10  O   UNL     1      -8.721   2.233 127.213  0.00  0.00    +0.000 OA
ATOM     11  C   UNL     1      -7.012   2.692 125.502  0.00  0.00    +0.000 C 
ATOM     12  N   UNL     1      -7.301   2.728 124.090  0.00  0.00    +0.000 N 
ATOM     13  C   UNL     1      -6.331   2.880 123.051  0.00  0.00    +0.000 C 
ATOM     14  C   UNL     1      -7.028   3.377 121.810  0.00  0.00    +0.000 A 
ATOM     15  C   UNL     1      -6.322   4.040 120.789  0.00  0.00    +0.000 A 
ATOM     16 CL   UNL     1      -4.608   4.278 120.942  0.00  0.00    +0.000 Cl
ATOM     17  H   UNL     1     -10.118   1.625 125.030  0.00  0.00    +0.000 HD
ENDROOT
TORSDOF 0
ENDMDL
MODEL 6
REMARK VINA RESULT:      -6.0      4.915      7.293
REMARK  Name = Anagrelide
REMARK  0 active torsions:
REMARK  status: ('A' for Active; 'I' for Inactive)
REMARK                            x       y       z     vdW  Elec       q    Type
REMARK                         _______ _______ _______ _____ _____    ______ ____
ROOT
ATOM      1 CL   UNL     1      -7.207  -3.255 129.044  0.00  0.00    +0.000 Cl
ATOM      2  C   UNL     1      -7.891  -2.438 127.680  0.00  0.00    +0.000 A 
ATOM      3  C   UNL     1      -8.340  -3.218 126.614  0.00  0.00    +0.000 A 
ATOM      4  C   UNL     1      -8.905  -2.613 125.485  0.00  0.00    +0.000 A 
ATOM      5  C   UNL     1      -9.022  -1.222 125.400  0.00  0.00    +0.000 A 
ATOM      6  N   UNL     1      -9.568  -0.649 124.217  0.00  0.00    +0.000 NA
ATOM      7  C   UNL     1      -9.349   0.613 124.079  0.00  0.00    +0.000 C 
ATOM      8  N   UNL     1      -9.643   1.324 122.971  0.00  0.00    +0.000 N 
ATOM      9  C   UNL     1      -8.987   2.531 123.008  0.00  0.00    +0.000 C 
ATOM     10  O   UNL     1      -8.810   3.291 122.064  0.00  0.00    +0.000 OA
ATOM     11  C   UNL     1      -8.444   2.717 124.429  0.00  0.00    +0.000 C 
ATOM     12  N   UNL     1      -8.744   1.419 124.981  0.00  0.00    +0.000 N 
ATOM     13  C   UNL     1      -8.655   1.068 126.364  0.00  0.00    +0.000 C 
ATOM     14  C   UNL     1      -8.541  -0.431 126.473  0.00  0.00    +0.000 A 
ATOM     15  C   UNL     1      -7.997  -1.043 127.618  0.00  0.00    +0.000 A 
ATOM     16 CL   UNL     1      -7.462  -0.060 128.947  0.00  0.00    +0.000 Cl
ATOM     17  H   UNL     1     -10.067   0.945 122.141  0.00  0.00    +0.000 HD
ENDROOT
TORSDOF 0
ENDMDL
MODEL 7
REMARK VINA RESULT:      -5.9      5.171      6.197
REMARK  Name = Anagrelide
REMARK  0 active torsions:
REMARK  status: ('A' for Active; 'I' for Inactive)
REMARK                            x       y       z     vdW  Elec       q    Type
REMARK                         _______ _______ _______ _____ _____    ______ ____
ROOT
ATOM      1 CL   UNL     1      -4.462  -4.052 124.248  0.00  0.00    +0.000 Cl
ATOM      2  C   UNL     1      -5.526  -2.700 124.063  0.00  0.00    +0.000 A 
ATOM      3  C   UNL     1      -5.947  -2.377 122.772  0.00  0.00    +0.000 A 
ATOM      4  C   UNL     1      -6.810  -1.296 122.560  0.00  0.00    +0.000 A 
ATOM      5  C   UNL     1      -7.260  -0.517 123.631  0.00  0.00    +0.000 A 
ATOM      6  N   UNL     1      -8.105   0.596 123.365  0.00  0.00    +0.000 NA
ATOM      7  C   UNL     1      -8.211   1.437 124.334  0.00  0.00    +0.000 C 
ATOM      8  N   UNL     1      -8.836   2.630 124.248  0.00  0.00    +0.000 N 
ATOM      9  C   UNL     1      -8.482   3.417 125.318  0.00  0.00    +0.000 C 
ATOM     10  O   UNL     1      -8.639   4.627 125.413  0.00  0.00    +0.000 OA
ATOM     11  C   UNL     1      -7.776   2.517 126.338  0.00  0.00    +0.000 C 
ATOM     12  N   UNL     1      -7.674   1.301 125.568  0.00  0.00    +0.000 N 
ATOM     13  C   UNL     1      -7.286   0.026 126.083  0.00  0.00    +0.000 C 
ATOM     14  C   UNL     1      -6.810  -0.831 124.937  0.00  0.00    +0.000 A 
ATOM     15  C   UNL     1      -5.962  -1.935 125.151  0.00  0.00    +0.000 A 
ATOM     16 CL   UNL     1      -5.465  -2.338 126.766  0.00  0.00    +0.000 Cl
ATOM     17  H   UNL     1      -9.287   2.984 123.421  0.00  0.00    +0.000 HD
ENDROOT
TORSDOF 0
ENDMDL
MODEL 8
REMARK VINA RESULT:      -5.8      4.777      5.959
REMARK  Name = Anagrelide
REMARK  0 active torsions:
REMARK  status: ('A' for Active; 'I' for Inactive)
REMARK                            x       y       z     vdW  Elec       q    Type
REMARK                         _______ _______ _______ _____ _____    ______ ____
ROOT
ATOM      1 CL   UNL     1      -9.300  -3.147 123.254  0.00  0.00    +0.000 Cl
ATOM      2  C   UNL     1      -9.212  -1.439 123.522  0.00  0.00    +0.000 A 
ATOM      3  C   UNL     1      -9.842  -0.604 122.598  0.00  0.00    +0.000 A 
ATOM      4  C   UNL     1      -9.806   0.786 122.764  0.00  0.00    +0.000 A 
ATOM      5  C   UNL     1      -9.136   1.362 123.849  0.00  0.00    +0.000 A 
ATOM      6  N   UNL     1      -9.093   2.780 123.956  0.00  0.00    +0.000 NA
ATOM      7  C   UNL     1      -8.207   3.232 124.775  0.00  0.00    +0.000 C 
ATOM      8  N   UNL     1      -7.893   4.536 124.919  0.00  0.00    +0.000 N 
ATOM      9  C   UNL     1      -6.703   4.654 125.596  0.00  0.00    +0.000 C 
ATOM     10  O   UNL     1      -5.999   5.654 125.660  0.00  0.00    +0.000 OA
ATOM     11  C   UNL     1      -6.373   3.280 126.190  0.00  0.00    +0.000 C 
ATOM     12  N   UNL     1      -7.410   2.488 125.575  0.00  0.00    +0.000 N 
ATOM     13  C   UNL     1      -7.740   1.143 125.925  0.00  0.00    +0.000 C 
ATOM     14  C   UNL     1      -8.475   0.512 124.770  0.00  0.00    +0.000 A 
ATOM     15  C   UNL     1      -8.534  -0.887 124.615  0.00  0.00    +0.000 A 
ATOM     16 CL   UNL     1      -7.765  -1.915 125.785  0.00  0.00    +0.000 Cl
ATOM     17  H   UNL     1      -8.321   5.290 124.408  0.00  0.00    +0.000 HD
ENDROOT
TORSDOF 0
ENDMDL
MODEL 9
REMARK VINA RESULT:      -5.7     10.706     11.337
REMARK  Name = Anagrelide
REMARK  0 active torsions:
REMARK  status: ('A' for Active; 'I' for Inactive)
REMARK                            x       y       z     vdW  Elec       q    Type
REMARK                         _______ _______ _______ _____ _____    ______ ____
ROOT
ATOM      1 CL   UNL     1      -1.238   7.330 132.506  0.00  0.00    +0.000 Cl
ATOM      2  C   UNL     1      -2.879   7.190 131.971  0.00  0.00    +0.000 A 
ATOM      3  C   UNL     1      -3.261   7.927 130.850  0.00  0.00    +0.000 A 
ATOM      4  C   UNL     1      -4.574   7.852 130.370  0.00  0.00    +0.000 A 
ATOM      5  C   UNL     1      -5.526   7.048 131.006  0.00  0.00    +0.000 A 
ATOM      6  N   UNL     1      -6.858   7.032 130.507  0.00  0.00    +0.000 NA
ATOM      7  C   UNL     1      -7.731   6.539 131.315  0.00  0.00    +0.000 C 
ATOM      8  N   UNL     1      -9.064   6.563 131.109  0.00  0.00    +0.000 N 
ATOM      9  C   UNL     1      -9.719   6.278 132.283  0.00  0.00    +0.000 C 
ATOM     10  O   UNL     1     -10.903   6.479 132.522  0.00  0.00    +0.000 OA
ATOM     11  C   UNL     1      -8.680   5.738 133.272  0.00  0.00    +0.000 C 
ATOM     12  N   UNL     1      -7.474   5.974 132.517  0.00  0.00    +0.000 N 
ATOM     13  C   UNL     1      -6.178   5.472 132.850  0.00  0.00    +0.000 C 
ATOM     14  C   UNL     1      -5.141   6.322 132.161  0.00  0.00    +0.000 A 
ATOM     15  C   UNL     1      -3.813   6.378 132.626  0.00  0.00    +0.000 A 
ATOM     16 CL   UNL     1      -3.345   5.439 134.010  0.00  0.00    +0.000 Cl
ATOM     17  H   UNL     1      -9.514   6.962 130.303  0.00  0.00    +0.000 HD
ENDROOT
TORSDOF 0
ENDMDL
