MODEL 1
REMARK VINA RESULT:      -6.2      0.000      0.000
REMARK  Name = Anastrozole
REMARK  10 active torsions:
REMARK  status: ('A' for Active; 'I' for Inactive)
REMARK    1  A    between atoms: C_1  and  C_2
REMARK    2  A    between atoms: C_2  and  C_3
REMARK    3  A    between atoms: C_2  and  C_4
REMARK    4  A    between atoms: C_2  and  C_6
REMARK    5  A    between atoms: C_8  and  C_18
REMARK    6  A    between atoms: C_10  and  C_11
REMARK    7  A    between atoms: C_11  and  N_12
REMARK    8  A    between atoms: C_18  and  C_19
REMARK    9  A    between atoms: C_18  and  C_20
REMARK   10  A    between atoms: C_18  and  C_21
REMARK                            x       y       z     vdW  Elec       q    Type
REMARK                         _______ _______ _______ _____ _____    ______ ____
ROOT
ATOM      1  C   UNL     1      -7.661   5.541 133.019  0.00  0.00    +0.000 A 
ATOM      2  C   UNL     1      -8.865   5.967 132.468  0.00  0.00    +0.000 A 
ATOM      3  C   UNL     1      -8.893   6.708 131.276  0.00  0.00    +0.000 A 
ATOM      4  C   UNL     1      -7.679   7.180 130.739  0.00  0.00    +0.000 A 
ATOM      5  C   UNL     1      -6.461   6.809 131.298  0.00  0.00    +0.000 A 
ATOM      6  C   UNL     1      -6.491   6.046 132.461  0.00  0.00    +0.000 A 
ENDROOT
BRANCH   1   8
ATOM      7  C   UNL     1      -7.306   5.246 135.509  0.00  0.00    +0.000 C 
ATOM      8  C   UNL     1      -7.569   4.536 134.169  0.00  0.00    +0.000 C 
ATOM      9  C   UNL     1      -8.902   3.758 134.348  0.00  0.00    +0.000 C 
BRANCH   8  10
ATOM     10  C   UNL     1      -6.473   3.580 133.886  0.00  0.00    +0.000 C 
ATOM     11  N   UNL     1      -5.625   2.825 133.665  0.00  0.00    +0.000 NA
ENDBRANCH   8  10
ENDBRANCH   1   8
BRANCH   3  12
ATOM     12  C   UNL     1     -10.135   6.661 130.374  0.00  0.00    +0.000 C 
ATOM     13  C   UNL     1     -10.151   7.752 129.298  0.00  0.00    +0.000 C 
ATOM     14  C   UNL     1     -10.025   5.272 129.706  0.00  0.00    +0.000 C 
BRANCH  12  15
ATOM     15  C   UNL     1     -11.423   6.731 131.116  0.00  0.00    +0.000 C 
ATOM     16  N   UNL     1     -12.435   6.761 131.680  0.00  0.00    +0.000 NA
ENDBRANCH  12  15
ENDBRANCH   3  12
BRANCH   5  17
ATOM     17  C   UNL     1      -5.167   7.155 130.602  0.00  0.00    +0.000 C 
BRANCH  17  18
ATOM     18  N   UNL     1      -4.537   6.030 129.924  0.00  0.00    +0.000 N 
ATOM     19  C   UNL     1      -3.377   5.382 130.251  0.00  0.00    +0.000 A 
ATOM     20  N   UNL     1      -3.106   4.478 129.341  0.00  0.00    +0.000 NA
ATOM     21  C   UNL     1      -4.160   4.589 128.482  0.00  0.00    +0.000 A 
ATOM     22  N   UNL     1      -5.048   5.540 128.781  0.00  0.00    +0.000 NA
ENDBRANCH  17  18
ENDBRANCH   5  17
TORSDOF 6
ENDMDL
MODEL 2
REMARK VINA RESULT:      -6.2      7.225      9.976
REMARK  Name = Anastrozole
REMARK  10 active torsions:
REMARK  status: ('A' for Active; 'I' for Inactive)
REMARK    1  A    between atoms: C_1  and  C_2
REMARK    2  A    between atoms: C_2  and  C_3
REMARK    3  A    between atoms: C_2  and  C_4
REMARK    4  A    between atoms: C_2  and  C_6
REMARK    5  A    between atoms: C_8  and  C_18
REMARK    6  A    between atoms: C_10  and  C_11
REMARK    7  A    between atoms: C_11  and  N_12
REMARK    8  A    between atoms: C_18  and  C_19
REMARK    9  A    between atoms: C_18  and  C_20
REMARK   10  A    between atoms: C_18  and  C_21
REMARK                            x       y       z     vdW  Elec       q    Type
REMARK                         _______ _______ _______ _____ _____    ______ ____
ROOT
ATOM      1  C   UNL     1      -6.014  -1.990 125.355  0.00  0.00    +0.000 A 
ATOM      2  C   UNL     1      -6.178  -2.581 126.604  0.00  0.00    +0.000 A 
ATOM      3  C   UNL     1      -6.196  -1.805 127.774  0.00  0.00    +0.000 A 
ATOM      4  C   UNL     1      -5.857  -0.440 127.691  0.00  0.00    +0.000 A 
ATOM      5  C   UNL     1      -5.641   0.166 126.459  0.00  0.00    +0.000 A 
ATOM      6  C   UNL     1      -5.668  -0.644 125.328  0.00  0.00    +0.000 A 
ENDROOT
BRANCH   1   8
ATOM      7  C   UNL     1      -7.543  -3.533 124.053  0.00  0.00    +0.000 C 
ATOM      8  C   UNL     1      -6.225  -2.736 124.037  0.00  0.00    +0.000 C 
ATOM      9  C   UNL     1      -6.332  -1.751 122.840  0.00  0.00    +0.000 C 
BRANCH   8  10
ATOM     10  C   UNL     1      -5.087  -3.658 123.818  0.00  0.00    +0.000 C 
ATOM     11  N   UNL     1      -4.205  -4.387 123.644  0.00  0.00    +0.000 NA
ENDBRANCH   8  10
ENDBRANCH   1   8
BRANCH   3  12
ATOM     12  C   UNL     1      -6.943  -2.309 129.017  0.00  0.00    +0.000 C 
ATOM     13  C   UNL     1      -7.362  -1.190 129.976  0.00  0.00    +0.000 C 
ATOM     14  C   UNL     1      -8.202  -2.978 128.416  0.00  0.00    +0.000 C 
BRANCH  12  15
ATOM     15  C   UNL     1      -6.193  -3.327 129.801  0.00  0.00    +0.000 C 
ATOM     16  N   UNL     1      -5.627  -4.142 130.400  0.00  0.00    +0.000 NA
ENDBRANCH  12  15
ENDBRANCH   3  12
BRANCH   5  17
ATOM     17  C   UNL     1      -5.475   1.664 126.366  0.00  0.00    +0.000 C 
BRANCH  17  18
ATOM     18  N   UNL     1      -6.621   2.355 125.789  0.00  0.00    +0.000 N 
ATOM     19  C   UNL     1      -7.862   2.543 126.333  0.00  0.00    +0.000 A 
ATOM     20  N   UNL     1      -8.639   3.140 125.461  0.00  0.00    +0.000 NA
ATOM     21  C   UNL     1      -7.807   3.329 124.395  0.00  0.00    +0.000 A 
ATOM     22  N   UNL     1      -6.572   2.844 124.537  0.00  0.00    +0.000 NA
ENDBRANCH  17  18
ENDBRANCH   5  17
TORSDOF 6
ENDMDL
MODEL 3
REMARK VINA RESULT:      -6.2      6.778      9.526
REMARK  Name = Anastrozole
REMARK  10 active torsions:
REMARK  status: ('A' for Active; 'I' for Inactive)
REMARK    1  A    between atoms: C_1  and  C_2
REMARK    2  A    between atoms: C_2  and  C_3
REMARK    3  A    between atoms: C_2  and  C_4
REMARK    4  A    between atoms: C_2  and  C_6
REMARK    5  A    between atoms: C_8  and  C_18
REMARK    6  A    between atoms: C_10  and  C_11
REMARK    7  A    between atoms: C_11  and  N_12
REMARK    8  A    between atoms: C_18  and  C_19
REMARK    9  A    between atoms: C_18  and  C_20
REMARK   10  A    between atoms: C_18  and  C_21
REMARK                            x       y       z     vdW  Elec       q    Type
REMARK                         _______ _______ _______ _____ _____    ______ ____
ROOT
ATOM      1  C   UNL     1      -6.580  -0.113 124.492  0.00  0.00    +0.000 A 
ATOM      2  C   UNL     1      -5.761   0.434 125.474  0.00  0.00    +0.000 A 
ATOM      3  C   UNL     1      -5.735   1.819 125.705  0.00  0.00    +0.000 A 
ATOM      4  C   UNL     1      -6.406   2.672 124.806  0.00  0.00    +0.000 A 
ATOM      5  C   UNL     1      -7.194   2.152 123.786  0.00  0.00    +0.000 A 
ATOM      6  C   UNL     1      -7.210   0.771 123.623  0.00  0.00    +0.000 A 
ENDROOT
BRANCH   1   8
ATOM      7  C   UNL     1      -6.499  -2.106 122.932  0.00  0.00    +0.000 C 
ATOM      8  C   UNL     1      -6.838  -1.614 124.351  0.00  0.00    +0.000 C 
ATOM      9  C   UNL     1      -5.941  -2.436 125.318  0.00  0.00    +0.000 C 
BRANCH   8  10
ATOM     10  C   UNL     1      -8.264  -1.887 124.647  0.00  0.00    +0.000 C 
ATOM     11  N   UNL     1      -9.376  -2.111 124.875  0.00  0.00    +0.000 NA
ENDBRANCH   8  10
ENDBRANCH   1   8
BRANCH   3  12
ATOM     12  C   UNL     1      -5.346   2.358 127.090  0.00  0.00    +0.000 C 
ATOM     13  C   UNL     1      -5.453   1.313 128.206  0.00  0.00    +0.000 C 
ATOM     14  C   UNL     1      -3.867   2.766 126.899  0.00  0.00    +0.000 C 
BRANCH  12  15
ATOM     15  C   UNL     1      -6.120   3.557 127.509  0.00  0.00    +0.000 C 
ATOM     16  N   UNL     1      -6.697   4.508 127.833  0.00  0.00    +0.000 NA
ENDBRANCH  12  15
ENDBRANCH   3  12
BRANCH   5  17
ATOM     17  C   UNL     1      -8.063   3.065 122.956  0.00  0.00    +0.000 C 
BRANCH  17  18
ATOM     18  N   UNL     1      -7.451   3.497 121.706  0.00  0.00    +0.000 N 
ATOM     19  C   UNL     1      -6.127   3.714 121.439  0.00  0.00    +0.000 A 
ATOM     20  N   UNL     1      -5.994   4.178 120.220  0.00  0.00    +0.000 NA
ATOM     21  C   UNL     1      -7.279   4.198 119.763  0.00  0.00    +0.000 A 
ATOM     22  N   UNL     1      -8.208   3.815 120.642  0.00  0.00    +0.000 NA
ENDBRANCH  17  18
ENDBRANCH   5  17
TORSDOF 6
ENDMDL
MODEL 4
REMARK VINA RESULT:      -6.1      1.629      5.523
REMARK  Name = Anastrozole
REMARK  10 active torsions:
REMARK  status: ('A' for Active; 'I' for Inactive)
REMARK    1  A    between atoms: C_1  and  C_2
REMARK    2  A    between atoms: C_2  and  C_3
REMARK    3  A    between atoms: C_2  and  C_4
REMARK    4  A    between atoms: C_2  and  C_6
REMARK    5  A    between atoms: C_8  and  C_18
REMARK    6  A    between atoms: C_10  and  C_11
REMARK    7  A    between atoms: C_11  and  N_12
REMARK    8  A    between atoms: C_18  and  C_19
REMARK    9  A    between atoms: C_18  and  C_20
REMARK   10  A    between atoms: C_18  and  C_21
REMARK                            x       y       z     vdW  Elec       q    Type
REMARK                         _______ _______ _______ _____ _____    ______ ____
ROOT
ATOM      1  C   UNL     1      -5.303   6.482 131.695  0.00  0.00    +0.000 A 
ATOM      2  C   UNL     1      -5.589   5.847 132.899  0.00  0.00    +0.000 A 
ATOM      3  C   UNL     1      -6.913   5.564 133.271  0.00  0.00    +0.000 A 
ATOM      4  C   UNL     1      -7.966   6.097 132.502  0.00  0.00    +0.000 A 
ATOM      5  C   UNL     1      -7.707   6.778 131.317  0.00  0.00    +0.000 A 
ATOM      6  C   UNL     1      -6.377   7.002 130.979  0.00  0.00    +0.000 A 
ENDROOT
BRANCH   1   8
ATOM      7  C   UNL     1      -3.150   7.815 131.711  0.00  0.00    +0.000 C 
ATOM      8  C   UNL     1      -3.891   6.601 131.120  0.00  0.00    +0.000 C 
ATOM      9  C   UNL     1      -3.030   5.357 131.472  0.00  0.00    +0.000 C 
BRANCH   8  10
ATOM     10  C   UNL     1      -3.982   6.739 129.647  0.00  0.00    +0.000 C 
ATOM     11  N   UNL     1      -4.064   6.850 128.499  0.00  0.00    +0.000 NA
ENDBRANCH   8  10
ENDBRANCH   1   8
BRANCH   3  12
ATOM     12  C   UNL     1      -7.208   4.396 134.224  0.00  0.00    +0.000 C 
ATOM     13  C   UNL     1      -5.965   3.580 134.596  0.00  0.00    +0.000 C 
ATOM     14  C   UNL     1      -7.761   5.107 135.481  0.00  0.00    +0.000 C 
BRANCH  12  15
ATOM     15  C   UNL     1      -8.241   3.452 133.719  0.00  0.00    +0.000 C 
ATOM     16  N   UNL     1      -9.058   2.715 133.354  0.00  0.00    +0.000 NA
ENDBRANCH  12  15
ENDBRANCH   3  12
BRANCH   5  17
ATOM     17  C   UNL     1      -8.842   7.171 130.402  0.00  0.00    +0.000 C 
BRANCH  17  18
ATOM     18  N   UNL     1      -9.928   6.202 130.351  0.00  0.00    +0.000 N 
ATOM     19  C   UNL     1      -9.876   4.883 129.990  0.00  0.00    +0.000 A 
ATOM     20  N   UNL     1     -11.085   4.376 129.993  0.00  0.00    +0.000 NA
ATOM     21  C   UNL     1     -11.852   5.429 130.401  0.00  0.00    +0.000 A 
ATOM     22  N   UNL     1     -11.195   6.573 130.608  0.00  0.00    +0.000 NA
ENDBRANCH  17  18
ENDBRANCH   5  17
TORSDOF 6
ENDMDL
MODEL 5
REMARK VINA RESULT:      -6.1      7.491      9.904
REMARK  Name = Anastrozole
REMARK  10 active torsions:
REMARK  status: ('A' for Active; 'I' for Inactive)
REMARK    1  A    between atoms: C_1  and  C_2
REMARK    2  A    between atoms: C_2  and  C_3
REMARK    3  A    between atoms: C_2  and  C_4
REMARK    4  A    between atoms: C_2  and  C_6
REMARK    5  A    between atoms: C_8  and  C_18
REMARK    6  A    between atoms: C_10  and  C_11
REMARK    7  A    between atoms: C_11  and  N_12
REMARK    8  A    between atoms: C_18  and  C_19
REMARK    9  A    between atoms: C_18  and  C_20
REMARK   10  A    between atoms: C_18  and  C_21
REMARK                            x       y       z     vdW  Elec       q    Type
REMARK                         _______ _______ _______ _____ _____    ______ ____
ROOT
ATOM      1  C   UNL     1      -7.278  -1.769 125.627  0.00  0.00    +0.000 A 
ATOM      2  C   UNL     1      -7.018  -2.458 126.807  0.00  0.00    +0.000 A 
ATOM      3  C   UNL     1      -7.276  -1.873 128.057  0.00  0.00    +0.000 A 
ATOM      4  C   UNL     1      -7.627  -0.510 128.112  0.00  0.00    +0.000 A 
ATOM      5  C   UNL     1      -7.847   0.216 126.947  0.00  0.00    +0.000 A 
ATOM      6  C   UNL     1      -7.607  -0.422 125.735  0.00  0.00    +0.000 A 
ENDROOT
BRANCH   1   8
ATOM      7  C   UNL     1      -6.692  -1.460 123.182  0.00  0.00    +0.000 C 
ATOM      8  C   UNL     1      -7.249  -2.425 124.245  0.00  0.00    +0.000 C 
ATOM      9  C   UNL     1      -6.318  -3.669 124.229  0.00  0.00    +0.000 C 
BRANCH   8  10
ATOM     10  C   UNL     1      -8.625  -2.832 123.878  0.00  0.00    +0.000 C 
ATOM     11  N   UNL     1      -9.697  -3.162 123.593  0.00  0.00    +0.000 NA
ENDBRANCH   8  10
ENDBRANCH   1   8
BRANCH   3  12
ATOM     12  C   UNL     1      -7.569  -2.764 129.274  0.00  0.00    +0.000 C 
ATOM     13  C   UNL     1      -8.091  -1.989 130.488  0.00  0.00    +0.000 C 
ATOM     14  C   UNL     1      -8.670  -3.714 128.749  0.00  0.00    +0.000 C 
BRANCH  12  15
ATOM     15  C   UNL     1      -6.408  -3.582 129.716  0.00  0.00    +0.000 C 
ATOM     16  N   UNL     1      -5.496  -4.197 130.081  0.00  0.00    +0.000 NA
ENDBRANCH  12  15
ENDBRANCH   3  12
BRANCH   5  17
ATOM     17  C   UNL     1      -8.412   1.614 127.017  0.00  0.00    +0.000 C 
BRANCH  17  18
ATOM     18  N   UNL     1      -8.037   2.465 125.895  0.00  0.00    +0.000 N 
ATOM     19  C   UNL     1      -6.861   3.134 125.691  0.00  0.00    +0.000 A 
ATOM     20  N   UNL     1      -6.950   3.859 124.602  0.00  0.00    +0.000 NA
ATOM     21  C   UNL     1      -8.205   3.572 124.150  0.00  0.00    +0.000 A 
ATOM     22  N   UNL     1      -8.918   2.745 124.919  0.00  0.00    +0.000 NA
ENDBRANCH  17  18
ENDBRANCH   5  17
TORSDOF 6
ENDMDL
MODEL 6
REMARK VINA RESULT:      -6.0      7.818      9.091
REMARK  Name = Anastrozole
REMARK  10 active torsions:
REMARK  status: ('A' for Active; 'I' for Inactive)
REMARK    1  A    between atoms: C_1  and  C_2
REMARK    2  A    between atoms: C_2  and  C_3
REMARK    3  A    between atoms: C_2  and  C_4
REMARK    4  A    between atoms: C_2  and  C_6
REMARK    5  A    between atoms: C_8  and  C_18
REMARK    6  A    between atoms: C_10  and  C_11
REMARK    7  A    between atoms: C_11  and  N_12
REMARK    8  A    between atoms: C_18  and  C_19
REMARK    9  A    between atoms: C_18  and  C_20
REMARK   10  A    between atoms: C_18  and  C_21
REMARK                            x       y       z     vdW  Elec       q    Type
REMARK                         _______ _______ _______ _____ _____    ______ ____
ROOT
ATOM      1  C   UNL     1      -6.405  -2.930 130.134  0.00  0.00    +0.000 A 
ATOM      2  C   UNL     1      -6.367  -1.542 130.055  0.00  0.00    +0.000 A 
ATOM      3  C   UNL     1      -7.214  -0.845 129.179  0.00  0.00    +0.000 A 
ATOM      4  C   UNL     1      -7.974  -1.572 128.242  0.00  0.00    +0.000 A 
ATOM      5  C   UNL     1      -7.993  -2.962 128.267  0.00  0.00    +0.000 A 
ATOM      6  C   UNL     1      -7.159  -3.602 129.178  0.00  0.00    +0.000 A 
ENDROOT
BRANCH   1   8
ATOM      7  C   UNL     1      -6.452  -3.646 132.563  0.00  0.00    +0.000 C 
ATOM      8  C   UNL     1      -5.693  -3.731 131.226  0.00  0.00    +0.000 C 
ATOM      9  C   UNL     1      -5.623  -5.241 130.865  0.00  0.00    +0.000 C 
BRANCH   8  10
ATOM     10  C   UNL     1      -4.321  -3.199 131.394  0.00  0.00    +0.000 C 
ATOM     11  N   UNL     1      -3.249  -2.787 131.538  0.00  0.00    +0.000 NA
ENDBRANCH   8  10
ENDBRANCH   1   8
BRANCH   3  12
ATOM     12  C   UNL     1      -7.613   0.606 129.491  0.00  0.00    +0.000 C 
ATOM     13  C   UNL     1      -8.498   0.743 130.735  0.00  0.00    +0.000 C 
ATOM     14  C   UNL     1      -6.251   1.292 129.742  0.00  0.00    +0.000 C 
BRANCH  12  15
ATOM     15  C   UNL     1      -8.295   1.299 128.365  0.00  0.00    +0.000 C 
ATOM     16  N   UNL     1      -8.819   1.867 127.501  0.00  0.00    +0.000 NA
ENDBRANCH  12  15
ENDBRANCH   3  12
BRANCH   5  17
ATOM     17  C   UNL     1      -8.959  -3.726 127.393  0.00  0.00    +0.000 C 
BRANCH  17  18
ATOM     18  N   UNL     1      -8.823  -3.446 125.970  0.00  0.00    +0.000 N 
ATOM     19  C   UNL     1      -7.762  -3.714 125.149  0.00  0.00    +0.000 A 
ATOM     20  N   UNL     1      -7.997  -3.228 123.953  0.00  0.00    +0.000 NA
ATOM     21  C   UNL     1      -9.246  -2.694 124.085  0.00  0.00    +0.000 A 
ATOM     22  N   UNL     1      -9.782  -2.779 125.305  0.00  0.00    +0.000 NA
ENDBRANCH  17  18
ENDBRANCH   5  17
TORSDOF 6
ENDMDL
MODEL 7
REMARK VINA RESULT:      -6.0      6.832      9.747
REMARK  Name = Anastrozole
REMARK  10 active torsions:
REMARK  status: ('A' for Active; 'I' for Inactive)
REMARK    1  A    between atoms: C_1  and  C_2
REMARK    2  A    between atoms: C_2  and  C_3
REMARK    3  A    between atoms: C_2  and  C_4
REMARK    4  A    between atoms: C_2  and  C_6
REMARK    5  A    between atoms: C_8  and  C_18
REMARK    6  A    between atoms: C_10  and  C_11
REMARK    7  A    between atoms: C_11  and  N_12
REMARK    8  A    between atoms: C_18  and  C_19
REMARK    9  A    between atoms: C_18  and  C_20
REMARK   10  A    between atoms: C_18  and  C_21
REMARK                            x       y       z     vdW  Elec       q    Type
REMARK                         _______ _______ _______ _____ _____    ______ ____
ROOT
ATOM      1  C   UNL     1      -5.766  -1.969 125.384  0.00  0.00    +0.000 A 
ATOM      2  C   UNL     1      -5.742  -2.522 126.660  0.00  0.00    +0.000 A 
ATOM      3  C   UNL     1      -5.698  -1.705 127.801  0.00  0.00    +0.000 A 
ATOM      4  C   UNL     1      -5.487  -0.321 127.641  0.00  0.00    +0.000 A 
ATOM      5  C   UNL     1      -5.458   0.252 126.374  0.00  0.00    +0.000 A 
ATOM      6  C   UNL     1      -5.540  -0.601 125.278  0.00  0.00    +0.000 A 
ENDROOT
BRANCH   1   8
ATOM      7  C   UNL     1      -7.364  -3.580 124.259  0.00  0.00    +0.000 C 
ATOM      8  C   UNL     1      -6.056  -2.780 124.120  0.00  0.00    +0.000 C 
ATOM      9  C   UNL     1      -6.245  -1.855 122.885  0.00  0.00    +0.000 C 
BRANCH   8  10
ATOM     10  C   UNL     1      -4.927  -3.707 123.874  0.00  0.00    +0.000 C 
ATOM     11  N   UNL     1      -4.050  -4.434 123.671  0.00  0.00    +0.000 NA
ENDBRANCH   8  10
ENDBRANCH   1   8
BRANCH   3  12
ATOM     12  C   UNL     1      -6.260  -2.220 129.134  0.00  0.00    +0.000 C 
ATOM     13  C   UNL     1      -6.426  -1.124 130.193  0.00  0.00    +0.000 C 
ATOM     14  C   UNL     1      -7.648  -2.772 128.734  0.00  0.00    +0.000 C 
BRANCH  12  15
ATOM     15  C   UNL     1      -5.466  -3.324 129.738  0.00  0.00    +0.000 C 
ATOM     16  N   UNL     1      -4.873  -4.201 130.211  0.00  0.00    +0.000 NA
ENDBRANCH  12  15
ENDBRANCH   3  12
BRANCH   5  17
ATOM     17  C   UNL     1      -5.431   1.753 126.219  0.00  0.00    +0.000 C 
BRANCH  17  18
ATOM     18  N   UNL     1      -4.351   2.407 126.946  0.00  0.00    +0.000 N 
ATOM     19  C   UNL     1      -4.395   3.012 128.172  0.00  0.00    +0.000 A 
ATOM     20  N   UNL     1      -3.231   3.557 128.437  0.00  0.00    +0.000 NA
ATOM     21  C   UNL     1      -2.488   3.227 127.341  0.00  0.00    +0.000 A 
ATOM     22  N   UNL     1      -3.133   2.547 126.392  0.00  0.00    +0.000 NA
ENDBRANCH  17  18
ENDBRANCH   5  17
TORSDOF 6
ENDMDL
MODEL 8
REMARK VINA RESULT:      -6.0      5.879      8.927
REMARK  Name = Anastrozole
REMARK  10 active torsions:
REMARK  status: ('A' for Active; 'I' for Inactive)
REMARK    1  A    between atoms: C_1  and  C_2
REMARK    2  A    between atoms: C_2  and  C_3
REMARK    3  A    between atoms: C_2  and  C_4
REMARK    4  A    between atoms: C_2  and  C_6
REMARK    5  A    between atoms: C_8  and  C_18
REMARK    6  A    between atoms: C_10  and  C_11
REMARK    7  A    between atoms: C_11  and  N_12
REMARK    8  A    between atoms: C_18  and  C_19
REMARK    9  A    between atoms: C_18  and  C_20
REMARK   10  A    between atoms: C_18  and  C_21
REMARK                            x       y       z     vdW  Elec       q    Type
REMARK                         _______ _______ _______ _____ _____    ______ ____
ROOT
ATOM      1  C   UNL     1      -6.690   1.806 124.548  0.00  0.00    +0.000 A 
ATOM      2  C   UNL     1      -6.766   0.453 124.230  0.00  0.00    +0.000 A 
ATOM      3  C   UNL     1      -6.247  -0.523 125.095  0.00  0.00    +0.000 A 
ATOM      4  C   UNL     1      -5.479  -0.113 126.203  0.00  0.00    +0.000 A 
ATOM      5  C   UNL     1      -5.346   1.235 126.517  0.00  0.00    +0.000 A 
ATOM      6  C   UNL     1      -5.909   2.159 125.643  0.00  0.00    +0.000 A 
ENDROOT
BRANCH   1   8
ATOM      7  C   UNL     1      -6.483   3.700 122.879  0.00  0.00    +0.000 C 
ATOM      8  C   UNL     1      -7.439   2.895 123.779  0.00  0.00    +0.000 C 
ATOM      9  C   UNL     1      -8.510   2.285 122.833  0.00  0.00    +0.000 C 
BRANCH   8  10
ATOM     10  C   UNL     1      -8.096   3.802 124.749  0.00  0.00    +0.000 C 
ATOM     11  N   UNL     1      -8.618   4.503 125.507  0.00  0.00    +0.000 NA
ENDBRANCH   8  10
ENDBRANCH   1   8
BRANCH   3  12
ATOM     12  C   UNL     1      -6.825  -1.946 125.079  0.00  0.00    +0.000 C 
ATOM     13  C   UNL     1      -6.001  -2.931 124.242  0.00  0.00    +0.000 C 
ATOM     14  C   UNL     1      -6.772  -2.357 126.568  0.00  0.00    +0.000 C 
BRANCH  12  15
ATOM     15  C   UNL     1      -8.236  -2.019 124.615  0.00  0.00    +0.000 C 
ATOM     16  N   UNL     1      -9.328  -2.096 124.233  0.00  0.00    +0.000 NA
ENDBRANCH  12  15
ENDBRANCH   3  12
BRANCH   5  17
ATOM     17  C   UNL     1      -4.691   1.654 127.811  0.00  0.00    +0.000 C 
BRANCH  17  18
ATOM     18  N   UNL     1      -3.929   2.892 127.719  0.00  0.00    +0.000 N 
ATOM     19  C   UNL     1      -2.683   3.086 127.189  0.00  0.00    +0.000 A 
ATOM     20  N   UNL     1      -2.313   4.330 127.376  0.00  0.00    +0.000 NA
ATOM     21  C   UNL     1      -3.395   4.875 128.005  0.00  0.00    +0.000 A 
ATOM     22  N   UNL     1      -4.397   4.031 128.259  0.00  0.00    +0.000 NA
ENDBRANCH  17  18
ENDBRANCH   5  17
TORSDOF 6
ENDMDL
MODEL 9
REMARK VINA RESULT:      -6.0      6.998      9.700
REMARK  Name = Anastrozole
REMARK  10 active torsions:
REMARK  status: ('A' for Active; 'I' for Inactive)
REMARK    1  A    between atoms: C_1  and  C_2
REMARK    2  A    between atoms: C_2  and  C_3
REMARK    3  A    between atoms: C_2  and  C_4
REMARK    4  A    between atoms: C_2  and  C_6
REMARK    5  A    between atoms: C_8  and  C_18
REMARK    6  A    between atoms: C_10  and  C_11
REMARK    7  A    between atoms: C_11  and  N_12
REMARK    8  A    between atoms: C_18  and  C_19
REMARK    9  A    between atoms: C_18  and  C_20
REMARK   10  A    between atoms: C_18  and  C_21
REMARK                            x       y       z     vdW  Elec       q    Type
REMARK                         _______ _______ _______ _____ _____    ______ ____
ROOT
ATOM      1  C   UNL     1      -6.903   1.612 124.237  0.00  0.00    +0.000 A 
ATOM      2  C   UNL     1      -7.175   0.387 123.635  0.00  0.00    +0.000 A 
ATOM      3  C   UNL     1      -6.916  -0.820 124.303  0.00  0.00    +0.000 A 
ATOM      4  C   UNL     1      -6.202  -0.787 125.518  0.00  0.00    +0.000 A 
ATOM      5  C   UNL     1      -5.876   0.424 126.119  0.00  0.00    +0.000 A 
ATOM      6  C   UNL     1      -6.185   1.591 125.428  0.00  0.00    +0.000 A 
ENDROOT
BRANCH   1   8
ATOM      7  C   UNL     1      -6.196   3.789 123.155  0.00  0.00    +0.000 C 
ATOM      8  C   UNL     1      -7.380   2.951 123.673  0.00  0.00    +0.000 C 
ATOM      9  C   UNL     1      -8.328   2.749 122.459  0.00  0.00    +0.000 C 
BRANCH   8  10
ATOM     10  C   UNL     1      -8.091   3.696 124.738  0.00  0.00    +0.000 C 
ATOM     11  N   UNL     1      -8.657   4.277 125.563  0.00  0.00    +0.000 NA
ENDBRANCH   8  10
ENDBRANCH   1   8
BRANCH   3  12
ATOM     12  C   UNL     1      -7.720  -2.080 123.950  0.00  0.00    +0.000 C 
ATOM     13  C   UNL     1      -8.262  -2.078 122.516  0.00  0.00    +0.000 C 
ATOM     14  C   UNL     1      -6.680  -3.211 124.113  0.00  0.00    +0.000 C 
BRANCH  12  15
ATOM     15  C   UNL     1      -8.859  -2.345 124.869  0.00  0.00    +0.000 C 
ATOM     16  N   UNL     1      -9.764  -2.534 125.569  0.00  0.00    +0.000 NA
ENDBRANCH  12  15
ENDBRANCH   3  12
BRANCH   5  17
ATOM     17  C   UNL     1      -5.290   0.449 127.510  0.00  0.00    +0.000 C 
BRANCH  17  18
ATOM     18  N   UNL     1      -5.760  -0.625 128.374  0.00  0.00    +0.000 N 
ATOM     19  C   UNL     1      -5.133  -1.800 128.687  0.00  0.00    +0.000 A 
ATOM     20  N   UNL     1      -5.925  -2.538 129.428  0.00  0.00    +0.000 NA
ATOM     21  C   UNL     1      -7.028  -1.747 129.570  0.00  0.00    +0.000 A 
ATOM     22  N   UNL     1      -6.986  -0.580 128.924  0.00  0.00    +0.000 NA
ENDBRANCH  17  18
ENDBRANCH   5  17
TORSDOF 6
ENDMDL
