MODEL 1
REMARK VINA RESULT:      -5.8      0.000      0.000
REMARK  Name = Anethole trithione
REMARK  3 active torsions:
REMARK  status: ('A' for Active; 'I' for Inactive)
REMARK    1  A    between atoms: C_1  and  O_2
REMARK    2  A    between atoms: O_2  and  C_3
REMARK    3  A    between atoms: C_6  and  C_9
REMARK                            x       y       z     vdW  Elec       q    Type
REMARK                         _______ _______ _______ _____ _____    ______ ____
ROOT
ATOM      1  C   UNL     1     -12.501   8.761 129.487  0.00  0.00    +0.000 A 
ATOM      2  C   UNL     1     -13.010   8.176 130.647  0.00  0.00    +0.000 A 
ATOM      3  C   UNL     1     -12.292   7.177 131.313  0.00  0.00    +0.000 A 
ATOM      4  C   UNL     1     -11.076   6.708 130.797  0.00  0.00    +0.000 A 
ATOM      5  C   UNL     1     -10.563   7.316 129.641  0.00  0.00    +0.000 A 
ATOM      6  C   UNL     1     -11.268   8.340 128.996  0.00  0.00    +0.000 A 
ENDROOT
BRANCH   4   7
ATOM      7  C   UNL     1     -10.370   5.582 131.425  0.00  0.00    +0.000 A 
ATOM      8  C   UNL     1      -9.703   5.689 132.583  0.00  0.00    +0.000 A 
ATOM      9  C   UNL     1      -9.027   4.467 133.068  0.00  0.00    +0.000 A 
ATOM     10  S   UNL     1      -8.166   4.359 134.495  0.00  0.00    +0.000 S 
ATOM     11  S   UNL     1      -9.221   3.112 131.965  0.00  0.00    +0.000 S 
ATOM     12  S   UNL     1     -10.385   4.068 130.589  0.00  0.00    +0.000 S 
ENDBRANCH   4   7
BRANCH   1  14
ATOM     13  C   UNL     1     -13.497  10.873 129.868  0.00  0.00    +0.000 C 
ATOM     14  O   UNL     1     -13.232   9.796 128.974  0.00  0.00    +0.000 OA
ENDBRANCH   1  14
TORSDOF 2
ENDMDL
MODEL 2
REMARK VINA RESULT:      -5.7      1.637      2.094
REMARK  Name = Anethole trithione
REMARK  3 active torsions:
REMARK  status: ('A' for Active; 'I' for Inactive)
REMARK    1  A    between atoms: C_1  and  O_2
REMARK    2  A    between atoms: O_2  and  C_3
REMARK    3  A    between atoms: C_6  and  C_9
REMARK                            x       y       z     vdW  Elec       q    Type
REMARK                         _______ _______ _______ _____ _____    ______ ____
ROOT
ATOM      1  C   UNL     1     -12.638   8.911 129.113  0.00  0.00    +0.000 A 
ATOM      2  C   UNL     1     -11.466   8.740 128.375  0.00  0.00    +0.000 A 
ATOM      3  C   UNL     1     -10.473   7.857 128.812  0.00  0.00    +0.000 A 
ATOM      4  C   UNL     1     -10.613   7.170 130.026  0.00  0.00    +0.000 A 
ATOM      5  C   UNL     1     -11.803   7.333 130.751  0.00  0.00    +0.000 A 
ATOM      6  C   UNL     1     -12.811   8.192 130.293  0.00  0.00    +0.000 A 
ENDROOT
BRANCH   4   7
ATOM      7  C   UNL     1      -9.527   6.329 130.550  0.00  0.00    +0.000 A 
ATOM      8  C   UNL     1      -8.337   6.819 130.927  0.00  0.00    +0.000 A 
ATOM      9  C   UNL     1      -7.345   5.836 131.410  0.00  0.00    +0.000 A 
ATOM     10  S   UNL     1      -5.814   6.219 131.958  0.00  0.00    +0.000 S 
ATOM     11  S   UNL     1      -7.949   4.187 131.343  0.00  0.00    +0.000 S 
ATOM     12  S   UNL     1      -9.811   4.625 130.635  0.00  0.00    +0.000 S 
ENDBRANCH   4   7
BRANCH   1  14
ATOM     13  C   UNL     1     -13.880  10.919 129.251  0.00  0.00    +0.000 C 
ATOM     14  O   UNL     1     -13.585   9.717 128.546  0.00  0.00    +0.000 OA
ENDBRANCH   1  14
TORSDOF 2
ENDMDL
MODEL 3
REMARK VINA RESULT:      -5.7      9.511     10.556
REMARK  Name = Anethole trithione
REMARK  3 active torsions:
REMARK  status: ('A' for Active; 'I' for Inactive)
REMARK    1  A    between atoms: C_1  and  O_2
REMARK    2  A    between atoms: O_2  and  C_3
REMARK    3  A    between atoms: C_6  and  C_9
REMARK                            x       y       z     vdW  Elec       q    Type
REMARK                         _______ _______ _______ _____ _____    ______ ____
ROOT
ATOM      1  C   UNL     1      -7.101   4.200 119.876  0.00  0.00    +0.000 A 
ATOM      2  C   UNL     1      -8.405   3.926 120.289  0.00  0.00    +0.000 A 
ATOM      3  C   UNL     1      -8.646   3.321 121.528  0.00  0.00    +0.000 A 
ATOM      4  C   UNL     1      -7.580   2.928 122.349  0.00  0.00    +0.000 A 
ATOM      5  C   UNL     1      -6.273   3.225 121.933  0.00  0.00    +0.000 A 
ATOM      6  C   UNL     1      -6.036   3.863 120.709  0.00  0.00    +0.000 A 
ENDROOT
BRANCH   4   7
ATOM      7  C   UNL     1      -7.818   2.190 123.597  0.00  0.00    +0.000 A 
ATOM      8  C   UNL     1      -7.712   0.856 123.691  0.00  0.00    +0.000 A 
ATOM      9  C   UNL     1      -8.008   0.265 125.014  0.00  0.00    +0.000 A 
ATOM     10  S   UNL     1      -7.912  -1.364 125.371  0.00  0.00    +0.000 S 
ATOM     11  S   UNL     1      -8.487   1.474 126.196  0.00  0.00    +0.000 S 
ATOM     12  S   UNL     1      -8.295   3.105 124.985  0.00  0.00    +0.000 S 
ENDBRANCH   4   7
BRANCH   1  14
ATOM     13  C   UNL     1      -5.865   5.764 118.601  0.00  0.00    +0.000 C 
ATOM     14  O   UNL     1      -6.982   4.885 118.699  0.00  0.00    +0.000 OA
ENDBRANCH   1  14
TORSDOF 2
ENDMDL
MODEL 4
REMARK VINA RESULT:      -5.6      2.253      2.928
REMARK  Name = Anethole trithione
REMARK  3 active torsions:
REMARK  status: ('A' for Active; 'I' for Inactive)
REMARK    1  A    between atoms: C_1  and  O_2
REMARK    2  A    between atoms: O_2  and  C_3
REMARK    3  A    between atoms: C_6  and  C_9
REMARK                            x       y       z     vdW  Elec       q    Type
REMARK                         _______ _______ _______ _____ _____    ______ ____
ROOT
ATOM      1  C   UNL     1     -12.292   7.792 129.473  0.00  0.00    +0.000 A 
ATOM      2  C   UNL     1     -11.039   8.082 128.934  0.00  0.00    +0.000 A 
ATOM      3  C   UNL     1      -9.873   7.625 129.559  0.00  0.00    +0.000 A 
ATOM      4  C   UNL     1      -9.942   6.917 130.767  0.00  0.00    +0.000 A 
ATOM      5  C   UNL     1     -11.207   6.615 131.291  0.00  0.00    +0.000 A 
ATOM      6  C   UNL     1     -12.374   7.042 130.645  0.00  0.00    +0.000 A 
ENDROOT
BRANCH   4   7
ATOM      7  C   UNL     1      -8.721   6.533 131.490  0.00  0.00    +0.000 A 
ATOM      8  C   UNL     1      -7.487   6.827 131.053  0.00  0.00    +0.000 A 
ATOM      9  C   UNL     1      -6.364   6.348 131.886  0.00  0.00    +0.000 A 
ATOM     10  S   UNL     1      -4.749   6.622 131.555  0.00  0.00    +0.000 S 
ATOM     11  S   UNL     1      -6.909   5.436 133.285  0.00  0.00    +0.000 S 
ATOM     12  S   UNL     1      -8.912   5.624 132.948  0.00  0.00    +0.000 S 
ENDBRANCH   4   7
BRANCH   1  14
ATOM     13  C   UNL     1     -13.850   7.257 127.775  0.00  0.00    +0.000 C 
ATOM     14  O   UNL     1     -13.367   8.196 128.732  0.00  0.00    +0.000 OA
ENDBRANCH   1  14
TORSDOF 2
ENDMDL
MODEL 5
REMARK VINA RESULT:      -5.5      1.616      2.039
REMARK  Name = Anethole trithione
REMARK  3 active torsions:
REMARK  status: ('A' for Active; 'I' for Inactive)
REMARK    1  A    between atoms: C_1  and  O_2
REMARK    2  A    between atoms: O_2  and  C_3
REMARK    3  A    between atoms: C_6  and  C_9
REMARK                            x       y       z     vdW  Elec       q    Type
REMARK                         _______ _______ _______ _____ _____    ______ ____
ROOT
ATOM      1  C   UNL     1     -12.523   8.811 129.137  0.00  0.00    +0.000 A 
ATOM      2  C   UNL     1     -12.760   8.003 130.250  0.00  0.00    +0.000 A 
ATOM      3  C   UNL     1     -11.786   7.103 130.695  0.00  0.00    +0.000 A 
ATOM      4  C   UNL     1     -10.578   6.958 130.000  0.00  0.00    +0.000 A 
ATOM      5  C   UNL     1     -10.341   7.788 128.895  0.00  0.00    +0.000 A 
ATOM      6  C   UNL     1     -11.303   8.713 128.471  0.00  0.00    +0.000 A 
ENDROOT
BRANCH   4   7
ATOM      7  C   UNL     1      -9.596   5.935 130.392  0.00  0.00    +0.000 A 
ATOM      8  C   UNL     1      -9.747   4.632 130.118  0.00  0.00    +0.000 A 
ATOM      9  C   UNL     1      -8.680   3.731 130.603  0.00  0.00    +0.000 A 
ATOM     10  S   UNL     1      -8.642   2.079 130.353  0.00  0.00    +0.000 S 
ATOM     11  S   UNL     1      -7.432   4.589 131.494  0.00  0.00    +0.000 S 
ATOM     12  S   UNL     1      -8.211   6.463 131.283  0.00  0.00    +0.000 S 
ENDBRANCH   4   7
BRANCH   1  14
ATOM     13  C   UNL     1     -13.520  10.889 129.670  0.00  0.00    +0.000 C 
ATOM     14  O   UNL     1     -13.497   9.725 128.848  0.00  0.00    +0.000 OA
ENDBRANCH   1  14
TORSDOF 2
ENDMDL
MODEL 6
REMARK VINA RESULT:      -5.4      1.707      2.215
REMARK  Name = Anethole trithione
REMARK  3 active torsions:
REMARK  status: ('A' for Active; 'I' for Inactive)
REMARK    1  A    between atoms: C_1  and  O_2
REMARK    2  A    between atoms: O_2  and  C_3
REMARK    3  A    between atoms: C_6  and  C_9
REMARK                            x       y       z     vdW  Elec       q    Type
REMARK                         _______ _______ _______ _____ _____    ______ ____
ROOT
ATOM      1  C   UNL     1     -12.185   8.048 129.452  0.00  0.00    +0.000 A 
ATOM      2  C   UNL     1     -10.874   8.134 128.982  0.00  0.00    +0.000 A 
ATOM      3  C   UNL     1      -9.838   7.458 129.635  0.00  0.00    +0.000 A 
ATOM      4  C   UNL     1     -10.089   6.728 130.805  0.00  0.00    +0.000 A 
ATOM      5  C   UNL     1     -11.413   6.631 131.259  0.00  0.00    +0.000 A 
ATOM      6  C   UNL     1     -12.454   7.280 130.584  0.00  0.00    +0.000 A 
ENDROOT
BRANCH   4   7
ATOM      7  C   UNL     1      -8.991   6.109 131.561  0.00  0.00    +0.000 A 
ATOM      8  C   UNL     1      -8.998   5.988 132.897  0.00  0.00    +0.000 A 
ATOM      9  C   UNL     1      -7.805   5.363 133.506  0.00  0.00    +0.000 A 
ATOM     10  S   UNL     1      -7.608   5.083 135.142  0.00  0.00    +0.000 S 
ATOM     11  S   UNL     1      -6.587   4.940 132.313  0.00  0.00    +0.000 S 
ATOM     12  S   UNL     1      -7.619   5.556 130.665  0.00  0.00    +0.000 S 
ENDBRANCH   4   7
BRANCH   1  14
ATOM     13  C   UNL     1     -13.883   7.808 127.823  0.00  0.00    +0.000 C 
ATOM     14  O   UNL     1     -13.134   8.661 128.684  0.00  0.00    +0.000 OA
ENDBRANCH   1  14
TORSDOF 2
ENDMDL
MODEL 7
REMARK VINA RESULT:      -5.4      9.252     10.131
REMARK  Name = Anethole trithione
REMARK  3 active torsions:
REMARK  status: ('A' for Active; 'I' for Inactive)
REMARK    1  A    between atoms: C_1  and  O_2
REMARK    2  A    between atoms: O_2  and  C_3
REMARK    3  A    between atoms: C_6  and  C_9
REMARK                            x       y       z     vdW  Elec       q    Type
REMARK                         _______ _______ _______ _____ _____    ______ ____
ROOT
ATOM      1  C   UNL     1      -7.530   4.060 120.082  0.00  0.00    +0.000 A 
ATOM      2  C   UNL     1      -8.423   3.601 121.051  0.00  0.00    +0.000 A 
ATOM      3  C   UNL     1      -7.986   3.336 122.353  0.00  0.00    +0.000 A 
ATOM      4  C   UNL     1      -6.633   3.474 122.693  0.00  0.00    +0.000 A 
ATOM      5  C   UNL     1      -5.746   3.954 121.718  0.00  0.00    +0.000 A 
ATOM      6  C   UNL     1      -6.193   4.252 120.425  0.00  0.00    +0.000 A 
ENDROOT
BRANCH   4   7
ATOM      7  C   UNL     1      -6.143   3.089 124.025  0.00  0.00    +0.000 A 
ATOM      8  C   UNL     1      -5.259   3.819 124.719  0.00  0.00    +0.000 A 
ATOM      9  C   UNL     1      -4.851   3.281 126.034  0.00  0.00    +0.000 A 
ATOM     10  S   UNL     1      -3.789   4.032 127.083  0.00  0.00    +0.000 S 
ATOM     11  S   UNL     1      -5.608   1.735 126.389  0.00  0.00    +0.000 S 
ATOM     12  S   UNL     1      -6.722   1.599 124.685  0.00  0.00    +0.000 S 
ENDBRANCH   4   7
BRANCH   1  14
ATOM     13  C   UNL     1      -9.502   4.376 118.815  0.00  0.00    +0.000 C 
ATOM     14  O   UNL     1      -8.079   4.385 118.874  0.00  0.00    +0.000 OA
ENDBRANCH   1  14
TORSDOF 2
ENDMDL
MODEL 8
REMARK VINA RESULT:      -5.3      9.861     10.833
REMARK  Name = Anethole trithione
REMARK  3 active torsions:
REMARK  status: ('A' for Active; 'I' for Inactive)
REMARK    1  A    between atoms: C_1  and  O_2
REMARK    2  A    between atoms: O_2  and  C_3
REMARK    3  A    between atoms: C_6  and  C_9
REMARK                            x       y       z     vdW  Elec       q    Type
REMARK                         _______ _______ _______ _____ _____    ______ ____
ROOT
ATOM      1  C   UNL     1      -9.073  -2.335 125.789  0.00  0.00    +0.000 A 
ATOM      2  C   UNL     1      -8.232  -1.342 126.294  0.00  0.00    +0.000 A 
ATOM      3  C   UNL     1      -7.619  -1.497 127.543  0.00  0.00    +0.000 A 
ATOM      4  C   UNL     1      -7.883  -2.625 128.332  0.00  0.00    +0.000 A 
ATOM      5  C   UNL     1      -8.714  -3.626 127.808  0.00  0.00    +0.000 A 
ATOM      6  C   UNL     1      -9.299  -3.485 126.543  0.00  0.00    +0.000 A 
ENDROOT
BRANCH   4   7
ATOM      7  C   UNL     1      -7.335  -2.743 129.691  0.00  0.00    +0.000 A 
ATOM      8  C   UNL     1      -6.620  -3.800 130.103  0.00  0.00    +0.000 A 
ATOM      9  C   UNL     1      -6.161  -3.775 131.508  0.00  0.00    +0.000 A 
ATOM     10  S   UNL     1      -5.234  -4.963 132.229  0.00  0.00    +0.000 S 
ATOM     11  S   UNL     1      -6.706  -2.340 132.365  0.00  0.00    +0.000 S 
ATOM     12  S   UNL     1      -7.679  -1.463 130.802  0.00  0.00    +0.000 S 
ENDBRANCH   4   7
BRANCH   1  14
ATOM     13  C   UNL     1      -9.432  -3.242 123.635  0.00  0.00    +0.000 C 
ATOM     14  O   UNL     1      -9.537  -2.132 124.520  0.00  0.00    +0.000 OA
ENDBRANCH   1  14
TORSDOF 2
ENDMDL
MODEL 9
REMARK VINA RESULT:      -5.3      3.873      6.403
REMARK  Name = Anethole trithione
REMARK  3 active torsions:
REMARK  status: ('A' for Active; 'I' for Inactive)
REMARK    1  A    between atoms: C_1  and  O_2
REMARK    2  A    between atoms: O_2  and  C_3
REMARK    3  A    between atoms: C_6  and  C_9
REMARK                            x       y       z     vdW  Elec       q    Type
REMARK                         _______ _______ _______ _____ _____    ______ ____
ROOT
ATOM      1  C   UNL     1      -6.671   5.756 133.261  0.00  0.00    +0.000 A 
ATOM      2  C   UNL     1      -6.481   6.320 131.999  0.00  0.00    +0.000 A 
ATOM      3  C   UNL     1      -7.578   6.680 131.209  0.00  0.00    +0.000 A 
ATOM      4  C   UNL     1      -8.886   6.430 131.648  0.00  0.00    +0.000 A 
ATOM      5  C   UNL     1      -9.066   5.881 132.926  0.00  0.00    +0.000 A 
ATOM      6  C   UNL     1      -7.967   5.554 133.729  0.00  0.00    +0.000 A 
ENDROOT
BRANCH   4   7
ATOM      7  C   UNL     1     -10.040   6.700 130.779  0.00  0.00    +0.000 A 
ATOM      8  C   UNL     1      -9.921   7.143 129.519  0.00  0.00    +0.000 A 
ATOM      9  C   UNL     1     -11.182   7.387 128.786  0.00  0.00    +0.000 A 
ATOM     10  S   UNL     1     -11.277   7.910 127.202  0.00  0.00    +0.000 S 
ATOM     11  S   UNL     1     -12.602   7.071 129.773  0.00  0.00    +0.000 S 
ATOM     12  S   UNL     1     -11.615   6.464 131.452  0.00  0.00    +0.000 S 
ENDBRANCH   4   7
BRANCH   1  14
ATOM     13  C   UNL     1      -4.307   5.834 133.335  0.00  0.00    +0.000 C 
ATOM     14  O   UNL     1      -5.536   5.536 133.991  0.00  0.00    +0.000 OA
ENDBRANCH   1  14
TORSDOF 2
ENDMDL
