MODEL 1
REMARK VINA RESULT:      -5.8      0.000      0.000
REMARK  Name = Anethole
REMARK  4 active torsions:
REMARK  status: ('A' for Active; 'I' for Inactive)
REMARK    1  A    between atoms: C_1  and  O_2
REMARK    2  A    between atoms: O_2  and  C_3
REMARK    3  A    between atoms: C_6  and  C_7
REMARK    4  A    between atoms: C_8  and  C_9
REMARK                            x       y       z     vdW  Elec       q    Type
REMARK                         _______ _______ _______ _____ _____    ______ ____
ROOT
ATOM      1  C   UNL     1     -11.884   6.129 129.809  0.00  0.00    +0.000 A 
ATOM      2  C   UNL     1     -12.372   6.852 130.898  0.00  0.00    +0.000 A 
ATOM      3  C   UNL     1     -12.846   8.161 130.735  0.00  0.00    +0.000 A 
ATOM      4  C   UNL     1     -12.787   8.789 129.485  0.00  0.00    +0.000 A 
ATOM      5  C   UNL     1     -12.298   8.047 128.402  0.00  0.00    +0.000 A 
ATOM      6  C   UNL     1     -11.849   6.733 128.558  0.00  0.00    +0.000 A 
ENDROOT
BRANCH   4   7
ATOM      7  C   UNL     1     -13.200  10.198 129.359  0.00  0.00    +0.000 C 
ATOM      8  C   UNL     1     -13.410  11.030 130.397  0.00  0.00    +0.000 C 
ATOM      9  C   UNL     1     -13.886  12.437 130.275  0.00  0.00    +0.000 C 
ENDBRANCH   4   7
BRANCH   1  11
ATOM     10  C   UNL     1     -10.205   4.553 130.379  0.00  0.00    +0.000 C 
ATOM     11  O   UNL     1     -11.565   4.824 130.060  0.00  0.00    +0.000 OA
ENDBRANCH   1  11
TORSDOF 2
ENDMDL
MODEL 2
REMARK VINA RESULT:      -5.3     10.423     13.688
REMARK  Name = Anethole
REMARK  4 active torsions:
REMARK  status: ('A' for Active; 'I' for Inactive)
REMARK    1  A    between atoms: C_1  and  O_2
REMARK    2  A    between atoms: O_2  and  C_3
REMARK    3  A    between atoms: C_6  and  C_7
REMARK    4  A    between atoms: C_8  and  C_9
REMARK                            x       y       z     vdW  Elec       q    Type
REMARK                         _______ _______ _______ _____ _____    ______ ____
ROOT
ATOM      1  C   UNL     1      -9.063  -0.864 123.148  0.00  0.00    +0.000 A 
ATOM      2  C   UNL     1      -9.111  -2.252 123.286  0.00  0.00    +0.000 A 
ATOM      3  C   UNL     1      -7.979  -2.972 123.688  0.00  0.00    +0.000 A 
ATOM      4  C   UNL     1      -6.759  -2.319 123.905  0.00  0.00    +0.000 A 
ATOM      5  C   UNL     1      -6.729  -0.925 123.765  0.00  0.00    +0.000 A 
ATOM      6  C   UNL     1      -7.865  -0.203 123.390  0.00  0.00    +0.000 A 
ENDROOT
BRANCH   4   7
ATOM      7  C   UNL     1      -5.559  -3.109 124.231  0.00  0.00    +0.000 C 
ATOM      8  C   UNL     1      -4.918  -3.920 123.367  0.00  0.00    +0.000 C 
ATOM      9  C   UNL     1      -3.741  -4.767 123.711  0.00  0.00    +0.000 C 
ENDBRANCH   4   7
BRANCH   1  11
ATOM     10  C   UNL     1     -10.243   1.168 122.827  0.00  0.00    +0.000 C 
ATOM     11  O   UNL     1     -10.254  -0.254 122.873  0.00  0.00    +0.000 OA
ENDBRANCH   1  11
TORSDOF 2
ENDMDL
MODEL 3
REMARK VINA RESULT:      -5.2      2.508      4.992
REMARK  Name = Anethole
REMARK  4 active torsions:
REMARK  status: ('A' for Active; 'I' for Inactive)
REMARK    1  A    between atoms: C_1  and  O_2
REMARK    2  A    between atoms: O_2  and  C_3
REMARK    3  A    between atoms: C_6  and  C_7
REMARK    4  A    between atoms: C_8  and  C_9
REMARK                            x       y       z     vdW  Elec       q    Type
REMARK                         _______ _______ _______ _____ _____    ______ ____
ROOT
ATOM      1  C   UNL     1     -12.491   8.612 128.875  0.00  0.00    +0.000 A 
ATOM      2  C   UNL     1     -12.694   7.945 130.083  0.00  0.00    +0.000 A 
ATOM      3  C   UNL     1     -11.635   7.296 130.732  0.00  0.00    +0.000 A 
ATOM      4  C   UNL     1     -10.361   7.257 130.151  0.00  0.00    +0.000 A 
ATOM      5  C   UNL     1     -10.173   7.935 128.939  0.00  0.00    +0.000 A 
ATOM      6  C   UNL     1     -11.223   8.604 128.305  0.00  0.00    +0.000 A 
ENDROOT
BRANCH   4   7
ATOM      7  C   UNL     1      -9.288   6.486 130.803  0.00  0.00    +0.000 C 
ATOM      8  C   UNL     1      -8.037   6.940 131.013  0.00  0.00    +0.000 C 
ATOM      9  C   UNL     1      -6.934   6.141 131.617  0.00  0.00    +0.000 C 
ENDBRANCH   4   7
BRANCH   1  11
ATOM     10  C   UNL     1     -13.795  10.590 128.976  0.00  0.00    +0.000 C 
ATOM     11  O   UNL     1     -13.562   9.312 128.396  0.00  0.00    +0.000 OA
ENDBRANCH   1  11
TORSDOF 2
ENDMDL
MODEL 4
REMARK VINA RESULT:      -5.2      2.678      5.106
REMARK  Name = Anethole
REMARK  4 active torsions:
REMARK  status: ('A' for Active; 'I' for Inactive)
REMARK    1  A    between atoms: C_1  and  O_2
REMARK    2  A    between atoms: O_2  and  C_3
REMARK    3  A    between atoms: C_6  and  C_7
REMARK    4  A    between atoms: C_8  and  C_9
REMARK                            x       y       z     vdW  Elec       q    Type
REMARK                         _______ _______ _______ _____ _____    ______ ____
ROOT
ATOM      1  C   UNL     1     -12.274   7.550 129.753  0.00  0.00    +0.000 A 
ATOM      2  C   UNL     1     -11.058   7.844 129.134  0.00  0.00    +0.000 A 
ATOM      3  C   UNL     1      -9.845   7.439 129.706  0.00  0.00    +0.000 A 
ATOM      4  C   UNL     1      -9.826   6.778 130.941  0.00  0.00    +0.000 A 
ATOM      5  C   UNL     1     -11.056   6.487 131.547  0.00  0.00    +0.000 A 
ATOM      6  C   UNL     1     -12.267   6.868 130.964  0.00  0.00    +0.000 A 
ENDROOT
BRANCH   4   7
ATOM      7  C   UNL     1      -8.535   6.448 131.570  0.00  0.00    +0.000 C 
ATOM      8  C   UNL     1      -7.335   6.857 131.114  0.00  0.00    +0.000 C 
ATOM      9  C   UNL     1      -6.025   6.475 131.713  0.00  0.00    +0.000 C 
ENDBRANCH   4   7
BRANCH   1  11
ATOM     10  C   UNL     1     -13.667   7.108 127.885  0.00  0.00    +0.000 C 
ATOM     11  O   UNL     1     -13.395   7.884 129.046  0.00  0.00    +0.000 OA
ENDBRANCH   1  11
TORSDOF 2
ENDMDL
MODEL 5
REMARK VINA RESULT:      -5.1     11.317     12.846
REMARK  Name = Anethole
REMARK  4 active torsions:
REMARK  status: ('A' for Active; 'I' for Inactive)
REMARK    1  A    between atoms: C_1  and  O_2
REMARK    2  A    between atoms: O_2  and  C_3
REMARK    3  A    between atoms: C_6  and  C_7
REMARK    4  A    between atoms: C_8  and  C_9
REMARK                            x       y       z     vdW  Elec       q    Type
REMARK                         _______ _______ _______ _____ _____    ______ ____
ROOT
ATOM      1  C   UNL     1      -8.938  -2.491 126.209  0.00  0.00    +0.000 A 
ATOM      2  C   UNL     1      -9.279  -3.660 126.890  0.00  0.00    +0.000 A 
ATOM      3  C   UNL     1      -8.773  -3.918 128.170  0.00  0.00    +0.000 A 
ATOM      4  C   UNL     1      -7.869  -3.032 128.771  0.00  0.00    +0.000 A 
ATOM      5  C   UNL     1      -7.541  -1.861 128.075  0.00  0.00    +0.000 A 
ATOM      6  C   UNL     1      -8.066  -1.591 126.809  0.00  0.00    +0.000 A 
ENDROOT
BRANCH   4   7
ATOM      7  C   UNL     1      -7.275  -3.373 130.075  0.00  0.00    +0.000 C 
ATOM      8  C   UNL     1      -6.186  -4.149 130.242  0.00  0.00    +0.000 C 
ATOM      9  C   UNL     1      -5.620  -4.545 131.562  0.00  0.00    +0.000 C 
ENDBRANCH   4   7
BRANCH   1  11
ATOM     10  C   UNL     1      -9.227  -3.143 123.948  0.00  0.00    +0.000 C 
ATOM     11  O   UNL     1      -9.586  -2.285 125.023  0.00  0.00    +0.000 OA
ENDBRANCH   1  11
TORSDOF 2
ENDMDL
MODEL 6
REMARK VINA RESULT:      -5.1      9.730     11.499
REMARK  Name = Anethole
REMARK  4 active torsions:
REMARK  status: ('A' for Active; 'I' for Inactive)
REMARK    1  A    between atoms: C_1  and  O_2
REMARK    2  A    between atoms: O_2  and  C_3
REMARK    3  A    between atoms: C_6  and  C_7
REMARK    4  A    between atoms: C_8  and  C_9
REMARK                            x       y       z     vdW  Elec       q    Type
REMARK                         _______ _______ _______ _____ _____    ______ ____
ROOT
ATOM      1  C   UNL     1      -7.086   4.204 119.828  0.00  0.00    +0.000 A 
ATOM      2  C   UNL     1      -8.419   3.963 120.162  0.00  0.00    +0.000 A 
ATOM      3  C   UNL     1      -8.758   3.411 121.405  0.00  0.00    +0.000 A 
ATOM      4  C   UNL     1      -7.760   3.038 122.315  0.00  0.00    +0.000 A 
ATOM      5  C   UNL     1      -6.427   3.292 121.965  0.00  0.00    +0.000 A 
ATOM      6  C   UNL     1      -6.090   3.866 120.736  0.00  0.00    +0.000 A 
ENDROOT
BRANCH   4   7
ATOM      7  C   UNL     1      -8.136   2.370 123.573  0.00  0.00    +0.000 C 
ATOM      8  C   UNL     1      -9.299   1.721 123.778  0.00  0.00    +0.000 C 
ATOM      9  C   UNL     1      -9.707   1.097 125.068  0.00  0.00    +0.000 C 
ENDBRANCH   4   7
BRANCH   1  11
ATOM     10  C   UNL     1      -5.854   5.842 118.635  0.00  0.00    +0.000 C 
ATOM     11  O   UNL     1      -6.881   4.858 118.645  0.00  0.00    +0.000 OA
ENDBRANCH   1  11
TORSDOF 2
ENDMDL
MODEL 7
REMARK VINA RESULT:      -5.1      2.493      5.389
REMARK  Name = Anethole
REMARK  4 active torsions:
REMARK  status: ('A' for Active; 'I' for Inactive)
REMARK    1  A    between atoms: C_1  and  O_2
REMARK    2  A    between atoms: O_2  and  C_3
REMARK    3  A    between atoms: C_6  and  C_7
REMARK    4  A    between atoms: C_8  and  C_9
REMARK                            x       y       z     vdW  Elec       q    Type
REMARK                         _______ _______ _______ _____ _____    ______ ____
ROOT
ATOM      1  C   UNL     1     -11.494   7.641 129.509  0.00  0.00    +0.000 A 
ATOM      2  C   UNL     1     -12.123   7.086 130.624  0.00  0.00    +0.000 A 
ATOM      3  C   UNL     1     -11.371   6.536 131.671  0.00  0.00    +0.000 A 
ATOM      4  C   UNL     1      -9.973   6.484 131.594  0.00  0.00    +0.000 A 
ATOM      5  C   UNL     1      -9.358   7.049 130.469  0.00  0.00    +0.000 A 
ATOM      6  C   UNL     1     -10.106   7.621 129.436  0.00  0.00    +0.000 A 
ENDROOT
BRANCH   4   7
ATOM      7  C   UNL     1      -9.211   5.814 132.662  0.00  0.00    +0.000 C 
ATOM      8  C   UNL     1      -9.391   4.535 133.046  0.00  0.00    +0.000 C 
ATOM      9  C   UNL     1      -8.664   3.874 134.166  0.00  0.00    +0.000 C 
ENDBRANCH   4   7
BRANCH   1  11
ATOM     10  C   UNL     1     -12.982   9.432 129.059  0.00  0.00    +0.000 C 
ATOM     11  O   UNL     1     -12.318   8.257 128.610  0.00  0.00    +0.000 OA
ENDBRANCH   1  11
TORSDOF 2
ENDMDL
MODEL 8
REMARK VINA RESULT:      -4.9     12.260     12.822
REMARK  Name = Anethole
REMARK  4 active torsions:
REMARK  status: ('A' for Active; 'I' for Inactive)
REMARK    1  A    between atoms: C_1  and  O_2
REMARK    2  A    between atoms: O_2  and  C_3
REMARK    3  A    between atoms: C_6  and  C_7
REMARK    4  A    between atoms: C_8  and  C_9
REMARK                            x       y       z     vdW  Elec       q    Type
REMARK                         _______ _______ _______ _____ _____    ______ ____
ROOT
ATOM      1  C   UNL     1      -6.622  -2.995 129.221  0.00  0.00    +0.000 A 
ATOM      2  C   UNL     1      -6.281  -2.342 128.036  0.00  0.00    +0.000 A 
ATOM      3  C   UNL     1      -7.162  -2.325 126.947  0.00  0.00    +0.000 A 
ATOM      4  C   UNL     1      -8.382  -3.011 127.006  0.00  0.00    +0.000 A 
ATOM      5  C   UNL     1      -8.711  -3.658 128.205  0.00  0.00    +0.000 A 
ATOM      6  C   UNL     1      -7.844  -3.653 129.301  0.00  0.00    +0.000 A 
ENDROOT
BRANCH   4   7
ATOM      7  C   UNL     1      -9.247  -3.061 125.815  0.00  0.00    +0.000 C 
ATOM      8  C   UNL     1      -8.816  -3.322 124.566  0.00  0.00    +0.000 C 
ATOM      9  C   UNL     1      -9.679  -3.313 123.350  0.00  0.00    +0.000 C 
ENDBRANCH   4   7
BRANCH   1  11
ATOM     10  C   UNL     1      -4.693  -3.797 130.342  0.00  0.00    +0.000 C 
ATOM     11  O   UNL     1      -5.744  -2.842 130.256  0.00  0.00    +0.000 OA
ENDBRANCH   1  11
TORSDOF 2
ENDMDL
MODEL 9
REMARK VINA RESULT:      -4.9     10.226     11.346
REMARK  Name = Anethole
REMARK  4 active torsions:
REMARK  status: ('A' for Active; 'I' for Inactive)
REMARK    1  A    between atoms: C_1  and  O_2
REMARK    2  A    between atoms: O_2  and  C_3
REMARK    3  A    between atoms: C_6  and  C_7
REMARK    4  A    between atoms: C_8  and  C_9
REMARK                            x       y       z     vdW  Elec       q    Type
REMARK                         _______ _______ _______ _____ _____    ______ ____
ROOT
ATOM      1  C   UNL     1      -7.517   4.074 120.051  0.00  0.00    +0.000 A 
ATOM      2  C   UNL     1      -8.386   3.593 121.031  0.00  0.00    +0.000 A 
ATOM      3  C   UNL     1      -7.926   3.319 122.325  0.00  0.00    +0.000 A 
ATOM      4  C   UNL     1      -6.570   3.470 122.647  0.00  0.00    +0.000 A 
ATOM      5  C   UNL     1      -5.713   3.957 121.652  0.00  0.00    +0.000 A 
ATOM      6  C   UNL     1      -6.176   4.256 120.368  0.00  0.00    +0.000 A 
ENDROOT
BRANCH   4   7
ATOM      7  C   UNL     1      -6.093   3.082 123.985  0.00  0.00    +0.000 C 
ATOM      8  C   UNL     1      -5.337   3.860 124.784  0.00  0.00    +0.000 C 
ATOM      9  C   UNL     1      -4.802   3.447 126.112  0.00  0.00    +0.000 C 
ENDBRANCH   4   7
BRANCH   1  11
ATOM     10  C   UNL     1      -9.518   4.372 118.813  0.00  0.00    +0.000 C 
ATOM     11  O   UNL     1      -8.097   4.424 118.864  0.00  0.00    +0.000 OA
ENDBRANCH   1  11
TORSDOF 2
ENDMDL
