MODEL 1
REMARK VINA RESULT:      -8.3      0.000      0.000
REMARK  Name = Anileridine
REMARK  9 active torsions:
REMARK  status: ('A' for Active; 'I' for Inactive)
REMARK    1  A    between atoms: C_1  and  C_2
REMARK    2  A    between atoms: C_2  and  O_3
REMARK    3  A    between atoms: O_3  and  C_4
REMARK    4  A    between atoms: C_4  and  C_6
REMARK    5  A    between atoms: C_6  and  C_21
REMARK    6  A    between atoms: N_9  and  C_10
REMARK    7  A    between atoms: C_10  and  C_11
REMARK    8  A    between atoms: C_11  and  C_12
REMARK    9  A    between atoms: C_15  and  N_16
REMARK                            x       y       z     vdW  Elec       q    Type
REMARK                         _______ _______ _______ _____ _____    ______ ____
ROOT
ATOM      1  C   UNL     1      -7.622  -0.833 125.503  0.00  0.00    +0.000 C 
ATOM      2  C   UNL     1      -8.991  -0.156 125.261  0.00  0.00    +0.000 C 
ATOM      3  C   UNL     1      -8.887   1.027 124.317  0.00  0.00    +0.000 C 
ATOM      4  N   UNL     1      -7.925   2.005 124.832  0.00  0.00    +0.000 NA
ATOM      5  C   UNL     1      -6.591   1.409 124.959  0.00  0.00    +0.000 C 
ATOM      6  C   UNL     1      -6.625   0.261 125.950  0.00  0.00    +0.000 C 
ENDROOT
BRANCH   1   7
ATOM      7  C   UNL     1      -7.810  -1.920 126.567  0.00  0.00    +0.000 A 
ATOM      8  C   UNL     1      -8.734  -2.966 126.432  0.00  0.00    +0.000 A 
ATOM      9  C   UNL     1      -8.994  -3.818 127.502  0.00  0.00    +0.000 A 
ATOM     10  C   UNL     1      -8.265  -3.703 128.681  0.00  0.00    +0.000 A 
ATOM     11  C   UNL     1      -7.281  -2.730 128.800  0.00  0.00    +0.000 A 
ATOM     12  C   UNL     1      -7.056  -1.849 127.752  0.00  0.00    +0.000 A 
ENDBRANCH   1   7
BRANCH   1  13
ATOM     13  C   UNL     1      -7.008  -1.457 124.215  0.00  0.00    +0.000 C 
ATOM     14  O   UNL     1      -7.641  -1.643 123.169  0.00  0.00    +0.000 OA
BRANCH  13  15
ATOM     15  O   UNL     1      -5.688  -1.779 124.329  0.00  0.00    +0.000 OA
BRANCH  15  17
ATOM     16  C   UNL     1      -4.782  -3.978 123.950  0.00  0.00    +0.000 C 
ATOM     17  C   UNL     1      -5.241  -2.686 123.307  0.00  0.00    +0.000 C 
ENDBRANCH  15  17
ENDBRANCH  13  15
ENDBRANCH   1  13
BRANCH   4  18
ATOM     18  C   UNL     1      -7.879   3.155 123.923  0.00  0.00    +0.000 C 
BRANCH  18  19
ATOM     19  C   UNL     1      -8.537   2.844 122.572  0.00  0.00    +0.000 C 
BRANCH  19  20
ATOM     20  C   UNL     1      -7.735   3.453 121.468  0.00  0.00    +0.000 A 
ATOM     21  C   UNL     1      -6.377   3.697 121.664  0.00  0.00    +0.000 A 
ATOM     22  C   UNL     1      -5.649   4.370 120.692  0.00  0.00    +0.000 A 
ATOM     23  C   UNL     1      -6.256   4.770 119.499  0.00  0.00    +0.000 A 
ATOM     24  C   UNL     1      -7.617   4.521 119.308  0.00  0.00    +0.000 A 
ATOM     25  C   UNL     1      -8.358   3.862 120.285  0.00  0.00    +0.000 A 
BRANCH  23  26
ATOM     26  N   UNL     1      -5.554   5.547 118.591  0.00  0.00    +0.000 N 
ATOM     27  H   UNL     1      -4.854   5.101 118.011  0.00  0.00    +0.000 HD
ATOM     28  H   UNL     1      -5.976   6.399 118.245  0.00  0.00    +0.000 HD
ENDBRANCH  23  26
ENDBRANCH  19  20
ENDBRANCH  18  19
ENDBRANCH   4  18
TORSDOF 8
ENDMDL
MODEL 2
REMARK VINA RESULT:      -7.9      2.732      8.415
REMARK  Name = Anileridine
REMARK  9 active torsions:
REMARK  status: ('A' for Active; 'I' for Inactive)
REMARK    1  A    between atoms: C_1  and  C_2
REMARK    2  A    between atoms: C_2  and  O_3
REMARK    3  A    between atoms: O_3  and  C_4
REMARK    4  A    between atoms: C_4  and  C_6
REMARK    5  A    between atoms: C_6  and  C_21
REMARK    6  A    between atoms: N_9  and  C_10
REMARK    7  A    between atoms: C_10  and  C_11
REMARK    8  A    between atoms: C_11  and  C_12
REMARK    9  A    between atoms: C_15  and  N_16
REMARK                            x       y       z     vdW  Elec       q    Type
REMARK                         _______ _______ _______ _____ _____    ______ ____
ROOT
ATOM      1  C   UNL     1      -8.028   2.494 123.185  0.00  0.00    +0.000 C 
ATOM      2  C   UNL     1      -9.455   1.904 123.107  0.00  0.00    +0.000 C 
ATOM      3  C   UNL     1      -9.781   1.028 124.302  0.00  0.00    +0.000 C 
ATOM      4  N   UNL     1      -8.796  -0.050 124.425  0.00  0.00    +0.000 NA
ATOM      5  C   UNL     1      -7.447   0.493 124.616  0.00  0.00    +0.000 C 
ATOM      6  C   UNL     1      -7.043   1.323 123.412  0.00  0.00    +0.000 C 
ENDROOT
BRANCH   1   7
ATOM      7  C   UNL     1      -7.749   3.244 121.879  0.00  0.00    +0.000 A 
ATOM      8  C   UNL     1      -8.760   3.600 120.974  0.00  0.00    +0.000 A 
ATOM      9  C   UNL     1      -8.436   4.115 119.722  0.00  0.00    +0.000 A 
ATOM     10  C   UNL     1      -7.109   4.377 119.396  0.00  0.00    +0.000 A 
ATOM     11  C   UNL     1      -6.101   4.116 120.315  0.00  0.00    +0.000 A 
ATOM     12  C   UNL     1      -6.420   3.556 121.544  0.00  0.00    +0.000 A 
ENDBRANCH   1   7
BRANCH   1  13
ATOM     13  C   UNL     1      -7.823   3.452 124.397  0.00  0.00    +0.000 C 
ATOM     14  O   UNL     1      -8.747   4.025 124.986  0.00  0.00    +0.000 OA
BRANCH  13  15
ATOM     15  O   UNL     1      -6.522   3.603 124.771  0.00  0.00    +0.000 OA
BRANCH  15  17
ATOM     16  C   UNL     1      -5.131   4.838 126.301  0.00  0.00    +0.000 C 
ATOM     17  C   UNL     1      -6.228   4.923 125.260  0.00  0.00    +0.000 C 
ENDBRANCH  15  17
ENDBRANCH  13  15
ENDBRANCH   1  13
BRANCH   4  18
ATOM     18  C   UNL     1      -9.161  -0.904 125.560  0.00  0.00    +0.000 C 
BRANCH  18  19
ATOM     19  C   UNL     1      -8.506  -2.289 125.469  0.00  0.00    +0.000 C 
BRANCH  19  20
ATOM     20  C   UNL     1      -7.996  -2.694 126.814  0.00  0.00    +0.000 A 
ATOM     21  C   UNL     1      -8.810  -3.451 127.655  0.00  0.00    +0.000 A 
ATOM     22  C   UNL     1      -8.393  -3.730 128.950  0.00  0.00    +0.000 A 
ATOM     23  C   UNL     1      -7.146  -3.296 129.405  0.00  0.00    +0.000 A 
ATOM     24  C   UNL     1      -6.335  -2.540 128.556  0.00  0.00    +0.000 A 
ATOM     25  C   UNL     1      -6.752  -2.241 127.262  0.00  0.00    +0.000 A 
BRANCH  23  26
ATOM     26  N   UNL     1      -6.794  -3.475 130.733  0.00  0.00    +0.000 N 
ATOM     27  H   UNL     1      -6.332  -4.336 131.000  0.00  0.00    +0.000 HD
ATOM     28  H   UNL     1      -6.640  -2.661 131.313  0.00  0.00    +0.000 HD
ENDBRANCH  23  26
ENDBRANCH  19  20
ENDBRANCH  18  19
ENDBRANCH   4  18
TORSDOF 8
ENDMDL
MODEL 3
REMARK VINA RESULT:      -7.6      8.652     10.332
REMARK  Name = Anileridine
REMARK  9 active torsions:
REMARK  status: ('A' for Active; 'I' for Inactive)
REMARK    1  A    between atoms: C_1  and  C_2
REMARK    2  A    between atoms: C_2  and  O_3
REMARK    3  A    between atoms: O_3  and  C_4
REMARK    4  A    between atoms: C_4  and  C_6
REMARK    5  A    between atoms: C_6  and  C_21
REMARK    6  A    between atoms: N_9  and  C_10
REMARK    7  A    between atoms: C_10  and  C_11
REMARK    8  A    between atoms: C_11  and  C_12
REMARK    9  A    between atoms: C_15  and  N_16
REMARK                            x       y       z     vdW  Elec       q    Type
REMARK                         _______ _______ _______ _____ _____    ______ ____
ROOT
ATOM      1  C   UNL     1      -4.904   5.790 131.185  0.00  0.00    +0.000 C 
ATOM      2  C   UNL     1      -5.668   4.914 132.204  0.00  0.00    +0.000 C 
ATOM      3  C   UNL     1      -7.161   4.889 131.934  0.00  0.00    +0.000 C 
ATOM      4  N   UNL     1      -7.700   6.252 131.936  0.00  0.00    +0.000 NA
ATOM      5  C   UNL     1      -7.065   7.066 130.895  0.00  0.00    +0.000 C 
ATOM      6  C   UNL     1      -5.576   7.182 131.158  0.00  0.00    +0.000 C 
ENDROOT
BRANCH   1   7
ATOM      7  C   UNL     1      -3.437   5.859 131.621  0.00  0.00    +0.000 A 
ATOM      8  C   UNL     1      -2.663   4.718 131.876  0.00  0.00    +0.000 A 
ATOM      9  C   UNL     1      -1.398   4.836 132.445  0.00  0.00    +0.000 A 
ATOM     10  C   UNL     1      -0.848   6.094 132.670  0.00  0.00    +0.000 A 
ATOM     11  C   UNL     1      -1.564   7.238 132.339  0.00  0.00    +0.000 A 
ATOM     12  C   UNL     1      -2.845   7.119 131.818  0.00  0.00    +0.000 A 
ENDBRANCH   1   7
BRANCH   1  13
ATOM     13  C   UNL     1      -4.994   5.255 129.724  0.00  0.00    +0.000 C 
ATOM     14  O   UNL     1      -5.349   4.107 129.431  0.00  0.00    +0.000 OA
BRANCH  13  15
ATOM     15  O   UNL     1      -4.654   6.172 128.775  0.00  0.00    +0.000 OA
BRANCH  15  17
ATOM     16  C   UNL     1      -2.361   6.639 128.209  0.00  0.00    +0.000 C 
ATOM     17  C   UNL     1      -3.556   5.746 127.950  0.00  0.00    +0.000 C 
ENDBRANCH  15  17
ENDBRANCH  13  15
ENDBRANCH   1  13
BRANCH   4  18
ATOM     18  C   UNL     1      -9.150   6.193 131.717  0.00  0.00    +0.000 C 
BRANCH  18  19
ATOM     19  C   UNL     1      -9.497   5.946 130.243  0.00  0.00    +0.000 C 
BRANCH  19  20
ATOM     20  C   UNL     1     -10.550   6.911 129.805  0.00  0.00    +0.000 A 
ATOM     21  C   UNL     1     -10.370   7.633 128.627  0.00  0.00    +0.000 A 
ATOM     22  C   UNL     1     -11.284   8.618 128.274  0.00  0.00    +0.000 A 
ATOM     23  C   UNL     1     -12.407   8.863 129.067  0.00  0.00    +0.000 A 
ATOM     24  C   UNL     1     -12.583   8.134 130.245  0.00  0.00    +0.000 A 
ATOM     25  C   UNL     1     -11.663   7.157 130.616  0.00  0.00    +0.000 A 
BRANCH  23  26
ATOM     26  N   UNL     1     -13.245   9.926 128.771  0.00  0.00    +0.000 N 
ATOM     27  H   UNL     1     -14.243   9.799 128.874  0.00  0.00    +0.000 HD
ATOM     28  H   UNL     1     -12.883  10.868 128.837  0.00  0.00    +0.000 HD
ENDBRANCH  23  26
ENDBRANCH  19  20
ENDBRANCH  18  19
ENDBRANCH   4  18
TORSDOF 8
ENDMDL
MODEL 4
REMARK VINA RESULT:      -7.5      1.687      2.365
REMARK  Name = Anileridine
REMARK  9 active torsions:
REMARK  status: ('A' for Active; 'I' for Inactive)
REMARK    1  A    between atoms: C_1  and  C_2
REMARK    2  A    between atoms: C_2  and  O_3
REMARK    3  A    between atoms: O_3  and  C_4
REMARK    4  A    between atoms: C_4  and  C_6
REMARK    5  A    between atoms: C_6  and  C_21
REMARK    6  A    between atoms: N_9  and  C_10
REMARK    7  A    between atoms: C_10  and  C_11
REMARK    8  A    between atoms: C_11  and  C_12
REMARK    9  A    between atoms: C_15  and  N_16
REMARK                            x       y       z     vdW  Elec       q    Type
REMARK                         _______ _______ _______ _____ _____    ______ ____
ROOT
ATOM      1  C   UNL     1      -7.812  -0.107 126.491  0.00  0.00    +0.000 C 
ATOM      2  C   UNL     1      -8.119   1.360 126.873  0.00  0.00    +0.000 C 
ATOM      3  C   UNL     1      -7.972   2.304 125.694  0.00  0.00    +0.000 C 
ATOM      4  N   UNL     1      -6.624   2.201 125.128  0.00  0.00    +0.000 NA
ATOM      5  C   UNL     1      -6.357   0.840 124.654  0.00  0.00    +0.000 C 
ATOM      6  C   UNL     1      -6.424  -0.138 125.812  0.00  0.00    +0.000 C 
ENDROOT
BRANCH   1   7
ATOM      7  C   UNL     1      -7.856  -0.951 127.769  0.00  0.00    +0.000 A 
ATOM      8  C   UNL     1      -7.680  -0.406 129.048  0.00  0.00    +0.000 A 
ATOM      9  C   UNL     1      -7.546  -1.238 130.156  0.00  0.00    +0.000 A 
ATOM     10  C   UNL     1      -7.687  -2.615 130.018  0.00  0.00    +0.000 A 
ATOM     11  C   UNL     1      -7.952  -3.167 128.771  0.00  0.00    +0.000 A 
ATOM     12  C   UNL     1      -8.036  -2.341 127.659  0.00  0.00    +0.000 A 
ENDBRANCH   1   7
BRANCH   1  13
ATOM     13  C   UNL     1      -8.803  -0.690 125.440  0.00  0.00    +0.000 C 
ATOM     14  O   UNL     1     -10.010  -0.419 125.406  0.00  0.00    +0.000 OA
BRANCH  13  15
ATOM     15  O   UNL     1      -8.224  -1.530 124.537  0.00  0.00    +0.000 OA
BRANCH  15  17
ATOM     16  C   UNL     1      -9.470  -3.292 123.468  0.00  0.00    +0.000 C 
ATOM     17  C   UNL     1      -9.079  -1.830 123.420  0.00  0.00    +0.000 C 
ENDBRANCH  15  17
ENDBRANCH  13  15
ENDBRANCH   1  13
BRANCH   4  18
ATOM     18  C   UNL     1      -6.497   3.155 124.020  0.00  0.00    +0.000 C 
BRANCH  18  19
ATOM     19  C   UNL     1      -6.885   2.526 122.676  0.00  0.00    +0.000 C 
BRANCH  19  20
ATOM     20  C   UNL     1      -6.605   3.491 121.569  0.00  0.00    +0.000 A 
ATOM     21  C   UNL     1      -7.559   3.684 120.572  0.00  0.00    +0.000 A 
ATOM     22  C   UNL     1      -7.261   4.486 119.478  0.00  0.00    +0.000 A 
ATOM     23  C   UNL     1      -6.028   5.136 119.387  0.00  0.00    +0.000 A 
ATOM     24  C   UNL     1      -5.077   4.939 120.391  0.00  0.00    +0.000 A 
ATOM     25  C   UNL     1      -5.361   4.124 121.483  0.00  0.00    +0.000 A 
BRANCH  23  26
ATOM     26  N   UNL     1      -5.696   5.833 118.237  0.00  0.00    +0.000 N 
ATOM     27  H   UNL     1      -4.912   6.473 118.267  0.00  0.00    +0.000 HD
ATOM     28  H   UNL     1      -5.949   5.444 117.338  0.00  0.00    +0.000 HD
ENDBRANCH  23  26
ENDBRANCH  19  20
ENDBRANCH  18  19
ENDBRANCH   4  18
TORSDOF 8
ENDMDL
MODEL 5
REMARK VINA RESULT:      -7.3      1.633      2.489
REMARK  Name = Anileridine
REMARK  9 active torsions:
REMARK  status: ('A' for Active; 'I' for Inactive)
REMARK    1  A    between atoms: C_1  and  C_2
REMARK    2  A    between atoms: C_2  and  O_3
REMARK    3  A    between atoms: O_3  and  C_4
REMARK    4  A    between atoms: C_4  and  C_6
REMARK    5  A    between atoms: C_6  and  C_21
REMARK    6  A    between atoms: N_9  and  C_10
REMARK    7  A    between atoms: C_10  and  C_11
REMARK    8  A    between atoms: C_11  and  C_12
REMARK    9  A    between atoms: C_15  and  N_16
REMARK                            x       y       z     vdW  Elec       q    Type
REMARK                         _______ _______ _______ _____ _____    ______ ____
ROOT
ATOM      1  C   UNL     1      -6.719  -1.346 126.839  0.00  0.00    +0.000 C 
ATOM      2  C   UNL     1      -7.883  -0.428 127.277  0.00  0.00    +0.000 C 
ATOM      3  C   UNL     1      -8.194   0.640 126.244  0.00  0.00    +0.000 C 
ATOM      4  N   UNL     1      -6.997   1.440 125.966  0.00  0.00    +0.000 NA
ATOM      5  C   UNL     1      -5.917   0.600 125.440  0.00  0.00    +0.000 C 
ATOM      6  C   UNL     1      -5.520  -0.445 126.465  0.00  0.00    +0.000 C 
ENDROOT
BRANCH   1   7
ATOM      7  C   UNL     1      -6.397  -2.294 127.998  0.00  0.00    +0.000 A 
ATOM      8  C   UNL     1      -7.388  -2.907 128.778  0.00  0.00    +0.000 A 
ATOM      9  C   UNL     1      -7.044  -3.611 129.929  0.00  0.00    +0.000 A 
ATOM     10  C   UNL     1      -5.705  -3.799 130.260  0.00  0.00    +0.000 A 
ATOM     11  C   UNL     1      -4.707  -3.275 129.449  0.00  0.00    +0.000 A 
ATOM     12  C   UNL     1      -5.051  -2.532 128.329  0.00  0.00    +0.000 A 
ENDBRANCH   1   7
BRANCH   1  13
ATOM     13  C   UNL     1      -7.036  -2.171 125.556  0.00  0.00    +0.000 C 
ATOM     14  O   UNL     1      -6.171  -2.649 124.812  0.00  0.00    +0.000 OA
BRANCH  13  15
ATOM     15  O   UNL     1      -8.367  -2.338 125.318  0.00  0.00    +0.000 OA
BRANCH  15  17
ATOM     16  C   UNL     1      -9.543  -3.362 123.482  0.00  0.00    +0.000 C 
ATOM     17  C   UNL     1      -8.715  -2.176 123.932  0.00  0.00    +0.000 C 
ENDBRANCH  15  17
ENDBRANCH  13  15
ENDBRANCH   1  13
BRANCH   4  18
ATOM     18  C   UNL     1      -7.338   2.489 125.000  0.00  0.00    +0.000 C 
BRANCH  18  19
ATOM     19  C   UNL     1      -6.109   2.966 124.215  0.00  0.00    +0.000 C 
BRANCH  19  20
ATOM     20  C   UNL     1      -6.526   3.423 122.855  0.00  0.00    +0.000 A 
ATOM     21  C   UNL     1      -7.845   3.237 122.445  0.00  0.00    +0.000 A 
ATOM     22  C   UNL     1      -8.214   3.548 121.143  0.00  0.00    +0.000 A 
ATOM     23  C   UNL     1      -7.285   4.087 120.250  0.00  0.00    +0.000 A 
ATOM     24  C   UNL     1      -5.965   4.273 120.668  0.00  0.00    +0.000 A 
ATOM     25  C   UNL     1      -5.582   3.948 121.966  0.00  0.00    +0.000 A 
BRANCH  23  26
ATOM     26  N   UNL     1      -7.631   4.279 118.922  0.00  0.00    +0.000 N 
ATOM     27  H   UNL     1      -8.141   5.117 118.671  0.00  0.00    +0.000 HD
ATOM     28  H   UNL     1      -7.079   3.833 118.202  0.00  0.00    +0.000 HD
ENDBRANCH  23  26
ENDBRANCH  19  20
ENDBRANCH  18  19
ENDBRANCH   4  18
TORSDOF 8
ENDMDL
MODEL 6
REMARK VINA RESULT:      -7.2      7.876     11.249
REMARK  Name = Anileridine
REMARK  9 active torsions:
REMARK  status: ('A' for Active; 'I' for Inactive)
REMARK    1  A    between atoms: C_1  and  C_2
REMARK    2  A    between atoms: C_2  and  O_3
REMARK    3  A    between atoms: O_3  and  C_4
REMARK    4  A    between atoms: C_4  and  C_6
REMARK    5  A    between atoms: C_6  and  C_21
REMARK    6  A    between atoms: N_9  and  C_10
REMARK    7  A    between atoms: C_10  and  C_11
REMARK    8  A    between atoms: C_11  and  C_12
REMARK    9  A    between atoms: C_15  and  N_16
REMARK                            x       y       z     vdW  Elec       q    Type
REMARK                         _______ _______ _______ _____ _____    ______ ____
ROOT
ATOM      1  C   UNL     1     -10.278   6.250 130.578  0.00  0.00    +0.000 C 
ATOM      2  C   UNL     1      -8.883   6.910 130.671  0.00  0.00    +0.000 C 
ATOM      3  C   UNL     1      -7.986   6.218 131.680  0.00  0.00    +0.000 C 
ATOM      4  N   UNL     1      -8.625   6.200 132.999  0.00  0.00    +0.000 NA
ATOM      5  C   UNL     1      -9.899   5.475 132.953  0.00  0.00    +0.000 C 
ATOM      6  C   UNL     1     -10.861   6.169 132.008  0.00  0.00    +0.000 C 
ENDROOT
BRANCH   1   7
ATOM      7  C   UNL     1     -11.145   7.098 129.642  0.00  0.00    +0.000 A 
ATOM      8  C   UNL     1     -12.542   7.163 129.749  0.00  0.00    +0.000 A 
ATOM      9  C   UNL     1     -13.295   7.799 128.765  0.00  0.00    +0.000 A 
ATOM     10  C   UNL     1     -12.661   8.463 127.719  0.00  0.00    +0.000 A 
ATOM     11  C   UNL     1     -11.274   8.485 127.646  0.00  0.00    +0.000 A 
ATOM     12  C   UNL     1     -10.525   7.810 128.600  0.00  0.00    +0.000 A 
ENDBRANCH   1   7
BRANCH   1  13
ATOM     13  C   UNL     1     -10.230   4.780 130.064  0.00  0.00    +0.000 C 
ATOM     14  O   UNL     1     -11.071   3.921 130.353  0.00  0.00    +0.000 OA
BRANCH  13  15
ATOM     15  O   UNL     1      -9.173   4.512 129.247  0.00  0.00    +0.000 OA
BRANCH  15  17
ATOM     16  C   UNL     1      -7.151   3.268 129.651  0.00  0.00    +0.000 C 
ATOM     17  C   UNL     1      -8.646   3.186 129.425  0.00  0.00    +0.000 C 
ENDBRANCH  15  17
ENDBRANCH  13  15
ENDBRANCH   1  13
BRANCH   4  18
ATOM     18  C   UNL     1      -7.717   5.566 133.961  0.00  0.00    +0.000 C 
BRANCH  18  19
ATOM     19  C   UNL     1      -8.299   4.261 134.523  0.00  0.00    +0.000 C 
BRANCH  19  20
ATOM     20  C   UNL     1      -7.588   3.093 133.921  0.00  0.00    +0.000 A 
ATOM     21  C   UNL     1      -8.281   2.234 133.070  0.00  0.00    +0.000 A 
ATOM     22  C   UNL     1      -7.665   1.081 132.602  0.00  0.00    +0.000 A 
ATOM     23  C   UNL     1      -6.341   0.794 132.940  0.00  0.00    +0.000 A 
ATOM     24  C   UNL     1      -5.651   1.661 133.791  0.00  0.00    +0.000 A 
ATOM     25  C   UNL     1      -6.266   2.810 134.280  0.00  0.00    +0.000 A 
BRANCH  23  26
ATOM     26  N   UNL     1      -5.777  -0.415 132.568  0.00  0.00    +0.000 N 
ATOM     27  H   UNL     1      -6.390  -1.166 132.277  0.00  0.00    +0.000 HD
ATOM     28  H   UNL     1      -4.825  -0.428 132.226  0.00  0.00    +0.000 HD
ENDBRANCH  23  26
ENDBRANCH  19  20
ENDBRANCH  18  19
ENDBRANCH   4  18
TORSDOF 8
ENDMDL
MODEL 7
REMARK VINA RESULT:      -7.2      9.867     12.647
REMARK  Name = Anileridine
REMARK  9 active torsions:
REMARK  status: ('A' for Active; 'I' for Inactive)
REMARK    1  A    between atoms: C_1  and  C_2
REMARK    2  A    between atoms: C_2  and  O_3
REMARK    3  A    between atoms: O_3  and  C_4
REMARK    4  A    between atoms: C_4  and  C_6
REMARK    5  A    between atoms: C_6  and  C_21
REMARK    6  A    between atoms: N_9  and  C_10
REMARK    7  A    between atoms: C_10  and  C_11
REMARK    8  A    between atoms: C_11  and  C_12
REMARK    9  A    between atoms: C_15  and  N_16
REMARK                            x       y       z     vdW  Elec       q    Type
REMARK                         _______ _______ _______ _____ _____    ______ ____
ROOT
ATOM      1  C   UNL     1      -9.892   6.287 130.796  0.00  0.00    +0.000 C 
ATOM      2  C   UNL     1      -8.467   6.887 130.813  0.00  0.00    +0.000 C 
ATOM      3  C   UNL     1      -7.507   6.062 131.650  0.00  0.00    +0.000 C 
ATOM      4  N   UNL     1      -8.014   5.927 133.018  0.00  0.00    +0.000 NA
ATOM      5  C   UNL     1      -9.317   5.255 133.030  0.00  0.00    +0.000 C 
ATOM      6  C   UNL     1     -10.335   6.077 132.262  0.00  0.00    +0.000 C 
ENDROOT
BRANCH   1   7
ATOM      7  C   UNL     1     -10.809   7.258 130.044  0.00  0.00    +0.000 A 
ATOM      8  C   UNL     1     -12.088   7.605 130.500  0.00  0.00    +0.000 A 
ATOM      9  C   UNL     1     -12.948   8.343 129.691  0.00  0.00    +0.000 A 
ATOM     10  C   UNL     1     -12.508   8.829 128.463  0.00  0.00    +0.000 A 
ATOM     11  C   UNL     1     -11.212   8.572 128.035  0.00  0.00    +0.000 A 
ATOM     12  C   UNL     1     -10.372   7.794 128.819  0.00  0.00    +0.000 A 
ENDBRANCH   1   7
BRANCH   1  13
ATOM     13  C   UNL     1      -9.960   4.879 130.134  0.00  0.00    +0.000 C 
ATOM     14  O   UNL     1     -10.972   4.169 130.125  0.00  0.00    +0.000 OA
BRANCH  13  15
ATOM     15  O   UNL     1      -8.795   4.486 129.544  0.00  0.00    +0.000 OA
BRANCH  15  17
ATOM     16  C   UNL     1      -7.956   2.559 130.720  0.00  0.00    +0.000 C 
ATOM     17  C   UNL     1      -8.656   3.056 129.473  0.00  0.00    +0.000 C 
ENDBRANCH  15  17
ENDBRANCH  13  15
ENDBRANCH   1  13
BRANCH   4  18
ATOM     18  C   UNL     1      -7.045   5.165 133.813  0.00  0.00    +0.000 C 
BRANCH  18  19
ATOM     19  C   UNL     1      -7.565   4.878 135.228  0.00  0.00    +0.000 C 
BRANCH  19  20
ATOM     20  C   UNL     1      -7.112   5.956 136.159  0.00  0.00    +0.000 A 
ATOM     21  C   UNL     1      -8.041   6.573 136.996  0.00  0.00    +0.000 A 
ATOM     22  C   UNL     1      -7.655   7.654 137.776  0.00  0.00    +0.000 A 
ATOM     23  C   UNL     1      -6.332   8.104 137.764  0.00  0.00    +0.000 A 
ATOM     24  C   UNL     1      -5.406   7.479 136.926  0.00  0.00    +0.000 A 
ATOM     25  C   UNL     1      -5.788   6.406 136.127  0.00  0.00    +0.000 A 
BRANCH  23  26
ATOM     26  N   UNL     1      -5.987   9.256 138.452  0.00  0.00    +0.000 N 
ATOM     27  H   UNL     1      -5.042   9.609 138.363  0.00  0.00    +0.000 HD
ATOM     28  H   UNL     1      -6.712   9.916 138.698  0.00  0.00    +0.000 HD
ENDBRANCH  23  26
ENDBRANCH  19  20
ENDBRANCH  18  19
ENDBRANCH   4  18
TORSDOF 8
ENDMDL
MODEL 8
REMARK VINA RESULT:      -7.2      7.899      9.995
REMARK  Name = Anileridine
REMARK  9 active torsions:
REMARK  status: ('A' for Active; 'I' for Inactive)
REMARK    1  A    between atoms: C_1  and  C_2
REMARK    2  A    between atoms: C_2  and  O_3
REMARK    3  A    between atoms: O_3  and  C_4
REMARK    4  A    between atoms: C_4  and  C_6
REMARK    5  A    between atoms: C_6  and  C_21
REMARK    6  A    between atoms: N_9  and  C_10
REMARK    7  A    between atoms: C_10  and  C_11
REMARK    8  A    between atoms: C_11  and  C_12
REMARK    9  A    between atoms: C_15  and  N_16
REMARK                            x       y       z     vdW  Elec       q    Type
REMARK                         _______ _______ _______ _____ _____    ______ ____
ROOT
ATOM      1  C   UNL     1      -9.113   6.198 130.720  0.00  0.00    +0.000 C 
ATOM      2  C   UNL     1      -8.036   7.305 130.671  0.00  0.00    +0.000 C 
ATOM      3  C   UNL     1      -6.651   6.774 130.992  0.00  0.00    +0.000 C 
ATOM      4  N   UNL     1      -6.648   6.127 132.307  0.00  0.00    +0.000 NA
ATOM      5  C   UNL     1      -7.584   4.998 132.336  0.00  0.00    +0.000 C 
ATOM      6  C   UNL     1      -8.999   5.486 132.088  0.00  0.00    +0.000 C 
ENDROOT
BRANCH   1   7
ATOM      7  C   UNL     1     -10.482   6.855 130.517  0.00  0.00    +0.000 A 
ATOM      8  C   UNL     1     -10.763   7.715 129.446  0.00  0.00    +0.000 A 
ATOM      9  C   UNL     1     -11.958   8.427 129.409  0.00  0.00    +0.000 A 
ATOM     10  C   UNL     1     -12.929   8.215 130.382  0.00  0.00    +0.000 A 
ATOM     11  C   UNL     1     -12.706   7.298 131.402  0.00  0.00    +0.000 A 
ATOM     12  C   UNL     1     -11.494   6.625 131.466  0.00  0.00    +0.000 A 
ENDBRANCH   1   7
BRANCH   1  13
ATOM     13  C   UNL     1      -8.900   5.083 129.652  0.00  0.00    +0.000 C 
ATOM     14  O   UNL     1      -8.077   5.157 128.733  0.00  0.00    +0.000 OA
BRANCH  13  15
ATOM     15  O   UNL     1      -9.702   3.994 129.819  0.00  0.00    +0.000 OA
BRANCH  15  17
ATOM     16  C   UNL     1      -8.945   1.911 130.761  0.00  0.00    +0.000 C 
ATOM     17  C   UNL     1      -9.040   2.756 129.508  0.00  0.00    +0.000 C 
ENDBRANCH  15  17
ENDBRANCH  13  15
ENDBRANCH   1  13
BRANCH   4  18
ATOM     18  C   UNL     1      -5.290   5.664 132.609  0.00  0.00    +0.000 C 
BRANCH  18  19
ATOM     19  C   UNL     1      -4.223   6.605 132.035  0.00  0.00    +0.000 C 
BRANCH  19  20
ATOM     20  C   UNL     1      -3.581   5.972 130.844  0.00  0.00    +0.000 A 
ATOM     21  C   UNL     1      -2.849   6.762 129.959  0.00  0.00    +0.000 A 
ATOM     22  C   UNL     1      -2.350   6.206 128.789  0.00  0.00    +0.000 A 
ATOM     23  C   UNL     1      -2.537   4.851 128.508  0.00  0.00    +0.000 A 
ATOM     24  C   UNL     1      -3.270   4.064 129.399  0.00  0.00    +0.000 A 
ATOM     25  C   UNL     1      -3.789   4.617 130.567  0.00  0.00    +0.000 A 
BRANCH  23  26
ATOM     26  N   UNL     1      -2.142   4.336 127.283  0.00  0.00    +0.000 N 
ATOM     27  H   UNL     1      -1.267   4.652 126.885  0.00  0.00    +0.000 HD
ATOM     28  H   UNL     1      -2.486   3.429 126.999  0.00  0.00    +0.000 HD
ENDBRANCH  23  26
ENDBRANCH  19  20
ENDBRANCH  18  19
ENDBRANCH   4  18
TORSDOF 8
ENDMDL
MODEL 9
REMARK VINA RESULT:      -7.1      8.847     11.161
REMARK  Name = Anileridine
REMARK  9 active torsions:
REMARK  status: ('A' for Active; 'I' for Inactive)
REMARK    1  A    between atoms: C_1  and  C_2
REMARK    2  A    between atoms: C_2  and  O_3
REMARK    3  A    between atoms: O_3  and  C_4
REMARK    4  A    between atoms: C_4  and  C_6
REMARK    5  A    between atoms: C_6  and  C_21
REMARK    6  A    between atoms: N_9  and  C_10
REMARK    7  A    between atoms: C_10  and  C_11
REMARK    8  A    between atoms: C_11  and  C_12
REMARK    9  A    between atoms: C_15  and  N_16
REMARK                            x       y       z     vdW  Elec       q    Type
REMARK                         _______ _______ _______ _____ _____    ______ ____
ROOT
ATOM      1  C   UNL     1      -9.524   6.244 130.834  0.00  0.00    +0.000 C 
ATOM      2  C   UNL     1      -8.257   7.090 130.569  0.00  0.00    +0.000 C 
ATOM      3  C   UNL     1      -7.007   6.448 131.142  0.00  0.00    +0.000 C 
ATOM      4  N   UNL     1      -7.169   6.219 132.581  0.00  0.00    +0.000 NA
ATOM      5  C   UNL     1      -8.300   5.323 132.844  0.00  0.00    +0.000 C 
ATOM      6  C   UNL     1      -9.589   5.951 132.350  0.00  0.00    +0.000 C 
ENDROOT
BRANCH   1   7
ATOM      7  C   UNL     1     -10.739   7.037 130.340  0.00  0.00    +0.000 A 
ATOM      8  C   UNL     1     -10.729   7.785 129.154  0.00  0.00    +0.000 A 
ATOM      9  C   UNL     1     -11.791   8.631 128.846  0.00  0.00    +0.000 A 
ATOM     10  C   UNL     1     -12.918   8.663 129.661  0.00  0.00    +0.000 A 
ATOM     11  C   UNL     1     -12.984   7.860 130.792  0.00  0.00    +0.000 A 
ATOM     12  C   UNL     1     -11.904   7.054 131.126  0.00  0.00    +0.000 A 
ENDBRANCH   1   7
BRANCH   1  13
ATOM     13  C   UNL     1      -9.488   4.849 130.141  0.00  0.00    +0.000 C 
ATOM     14  O   UNL     1      -8.825   4.599 129.128  0.00  0.00    +0.000 OA
BRANCH  13  15
ATOM     15  O   UNL     1     -10.253   3.904 130.757  0.00  0.00    +0.000 OA
BRANCH  15  17
ATOM     16  C   UNL     1      -9.817   1.909 132.034  0.00  0.00    +0.000 C 
ATOM     17  C   UNL     1      -9.682   2.586 130.686  0.00  0.00    +0.000 C 
ENDBRANCH  15  17
ENDBRANCH  13  15
ENDBRANCH   1  13
BRANCH   4  18
ATOM     18  C   UNL     1      -5.932   5.640 133.114  0.00  0.00    +0.000 C 
BRANCH  18  19
ATOM     19  C   UNL     1      -5.033   5.085 132.002  0.00  0.00    +0.000 C 
BRANCH  19  20
ATOM     20  C   UNL     1      -3.670   5.689 132.107  0.00  0.00    +0.000 A 
ATOM     21  C   UNL     1      -2.549   4.863 132.048  0.00  0.00    +0.000 A 
ATOM     22  C   UNL     1      -1.286   5.397 132.264  0.00  0.00    +0.000 A 
ATOM     23  C   UNL     1      -1.123   6.765 132.497  0.00  0.00    +0.000 A 
ATOM     24  C   UNL     1      -2.250   7.587 132.552  0.00  0.00    +0.000 A 
ATOM     25  C   UNL     1      -3.522   7.057 132.354  0.00  0.00    +0.000 A 
BRANCH  23  26
ATOM     26  N   UNL     1       0.125   7.266 132.831  0.00  0.00    +0.000 N 
ATOM     27  H   UNL     1       0.824   7.352 132.103  0.00  0.00    +0.000 HD
ATOM     28  H   UNL     1       0.211   7.872 133.637  0.00  0.00    +0.000 HD
ENDBRANCH  23  26
ENDBRANCH  19  20
ENDBRANCH  18  19
ENDBRANCH   4  18
TORSDOF 8
ENDMDL
