MODEL 1
REMARK VINA RESULT:      -7.7      0.000      0.000
REMARK  Name = Anisindione
REMARK  3 active torsions:
REMARK  status: ('A' for Active; 'I' for Inactive)
REMARK    1  A    between atoms: C_1  and  O_2
REMARK    2  A    between atoms: O_2  and  C_3
REMARK    3  A    between atoms: C_6  and  C_9
REMARK                            x       y       z     vdW  Elec       q    Type
REMARK                         _______ _______ _______ _____ _____    ______ ____
ROOT
ATOM      1  C   UNL     1      -9.959   5.854 130.852  0.00  0.00    +0.000 C 
ATOM      2  C   UNL     1     -10.343   4.429 130.520  0.00  0.00    +0.000 C 
ATOM      3  O   UNL     1     -11.294   3.910 129.991  0.00  0.00    +0.000 OA
ATOM      4  C   UNL     1      -9.486   3.537 131.217  0.00  0.00    +0.000 A 
ATOM      5  C   UNL     1      -9.340   2.247 130.730  0.00  0.00    +0.000 A 
ATOM      6  C   UNL     1      -8.825   1.303 131.570  0.00  0.00    +0.000 A 
ATOM      7  C   UNL     1      -8.429   1.722 132.847  0.00  0.00    +0.000 A 
ATOM      8  C   UNL     1      -8.570   3.096 133.297  0.00  0.00    +0.000 A 
ATOM      9  C   UNL     1      -9.114   4.063 132.435  0.00  0.00    +0.000 A 
ATOM     10  C   UNL     1      -9.489   5.590 132.329  0.00  0.00    +0.000 C 
ATOM     11  O   UNL     1      -9.331   6.448 133.177  0.00  0.00    +0.000 OA
ENDROOT
BRANCH   1  15
ATOM     12  C   UNL     1     -12.700   9.003 129.400  0.00  0.00    +0.000 A 
ATOM     13  C   UNL     1     -13.006   8.281 130.561  0.00  0.00    +0.000 A 
ATOM     14  C   UNL     1     -12.145   7.262 131.061  0.00  0.00    +0.000 A 
ATOM     15  C   UNL     1     -10.996   6.878 130.354  0.00  0.00    +0.000 A 
ATOM     16  C   UNL     1     -10.720   7.682 129.226  0.00  0.00    +0.000 A 
ATOM     17  C   UNL     1     -11.536   8.696 128.742  0.00  0.00    +0.000 A 
BRANCH  12  19
ATOM     18  C   UNL     1     -13.535  11.150 129.940  0.00  0.00    +0.000 C 
ATOM     19  O   UNL     1     -13.510  10.042 129.033  0.00  0.00    +0.000 OA
ENDBRANCH  12  19
ENDBRANCH   1  15
TORSDOF 2
ENDMDL
MODEL 2
REMARK VINA RESULT:      -7.5      2.159      6.682
REMARK  Name = Anisindione
REMARK  3 active torsions:
REMARK  status: ('A' for Active; 'I' for Inactive)
REMARK    1  A    between atoms: C_1  and  O_2
REMARK    2  A    between atoms: O_2  and  C_3
REMARK    3  A    between atoms: C_6  and  C_9
REMARK                            x       y       z     vdW  Elec       q    Type
REMARK                         _______ _______ _______ _____ _____    ______ ____
ROOT
ATOM      1  C   UNL     1      -9.892   5.983 131.282  0.00  0.00    +0.000 C 
ATOM      2  C   UNL     1     -11.020   5.517 130.389  0.00  0.00    +0.000 C 
ATOM      3  O   UNL     1     -11.447   4.440 130.057  0.00  0.00    +0.000 OA
ATOM      4  C   UNL     1     -11.483   6.609 129.608  0.00  0.00    +0.000 A 
ATOM      5  C   UNL     1     -12.766   6.548 129.085  0.00  0.00    +0.000 A 
ATOM      6  C   UNL     1     -13.077   7.398 128.063  0.00  0.00    +0.000 A 
ATOM      7  C   UNL     1     -12.094   8.310 127.659  0.00  0.00    +0.000 A 
ATOM      8  C   UNL     1     -10.776   8.358 128.266  0.00  0.00    +0.000 A 
ATOM      9  C   UNL     1     -10.452   7.471 129.308  0.00  0.00    +0.000 A 
ATOM     10  C   UNL     1      -9.300   7.062 130.303  0.00  0.00    +0.000 C 
ATOM     11  O   UNL     1      -8.196   7.562 130.398  0.00  0.00    +0.000 OA
ENDROOT
BRANCH   1  15
ATOM     12  C   UNL     1      -7.905   2.438 133.021  0.00  0.00    +0.000 A 
ATOM     13  C   UNL     1      -8.645   3.303 133.837  0.00  0.00    +0.000 A 
ATOM     14  C   UNL     1      -9.303   4.453 133.312  0.00  0.00    +0.000 A 
ATOM     15  C   UNL     1      -9.156   4.815 131.964  0.00  0.00    +0.000 A 
ATOM     16  C   UNL     1      -8.444   3.871 131.191  0.00  0.00    +0.000 A 
ATOM     17  C   UNL     1      -7.821   2.732 131.684  0.00  0.00    +0.000 A 
BRANCH  12  19
ATOM     18  C   UNL     1      -7.167   0.222 132.640  0.00  0.00    +0.000 C 
ATOM     19  O   UNL     1      -7.391   1.293 133.564  0.00  0.00    +0.000 OA
ENDBRANCH  12  19
ENDBRANCH   1  15
TORSDOF 2
ENDMDL
MODEL 3
REMARK VINA RESULT:      -7.2      1.153      2.163
REMARK  Name = Anisindione
REMARK  3 active torsions:
REMARK  status: ('A' for Active; 'I' for Inactive)
REMARK    1  A    between atoms: C_1  and  O_2
REMARK    2  A    between atoms: O_2  and  C_3
REMARK    3  A    between atoms: C_6  and  C_9
REMARK                            x       y       z     vdW  Elec       q    Type
REMARK                         _______ _______ _______ _____ _____    ______ ____
ROOT
ATOM      1  C   UNL     1     -10.618   5.241 130.921  0.00  0.00    +0.000 C 
ATOM      2  C   UNL     1      -9.992   5.476 132.277  0.00  0.00    +0.000 C 
ATOM      3  O   UNL     1      -9.936   6.414 133.033  0.00  0.00    +0.000 OA
ATOM      4  C   UNL     1      -9.086   4.422 132.566  0.00  0.00    +0.000 A 
ATOM      5  C   UNL     1      -8.762   4.174 133.891  0.00  0.00    +0.000 A 
ATOM      6  C   UNL     1      -7.648   3.429 134.146  0.00  0.00    +0.000 A 
ATOM      7  C   UNL     1      -6.946   2.920 133.047  0.00  0.00    +0.000 A 
ATOM      8  C   UNL     1      -7.349   3.177 131.675  0.00  0.00    +0.000 A 
ATOM      9  C   UNL     1      -8.488   3.958 131.415  0.00  0.00    +0.000 A 
ATOM     10  C   UNL     1      -9.378   4.542 130.253  0.00  0.00    +0.000 C 
ATOM     11  O   UNL     1      -9.225   4.384 129.056  0.00  0.00    +0.000 OA
ENDROOT
BRANCH   1  15
ATOM     12  C   UNL     1     -12.608   8.909 129.463  0.00  0.00    +0.000 A 
ATOM     13  C   UNL     1     -13.118   8.223 130.573  0.00  0.00    +0.000 A 
ATOM     14  C   UNL     1     -12.502   7.040 131.074  0.00  0.00    +0.000 A 
ATOM     15  C   UNL     1     -11.406   6.463 130.414  0.00  0.00    +0.000 A 
ATOM     16  C   UNL     1     -10.912   7.235 129.339  0.00  0.00    +0.000 A 
ATOM     17  C   UNL     1     -11.487   8.404 128.857  0.00  0.00    +0.000 A 
BRANCH  12  19
ATOM     18  C   UNL     1     -13.424  11.014 130.171  0.00  0.00    +0.000 C 
ATOM     19  O   UNL     1     -13.179  10.097 129.099  0.00  0.00    +0.000 OA
ENDBRANCH  12  19
ENDBRANCH   1  15
TORSDOF 2
ENDMDL
MODEL 4
REMARK VINA RESULT:      -6.9      9.528     11.523
REMARK  Name = Anisindione
REMARK  3 active torsions:
REMARK  status: ('A' for Active; 'I' for Inactive)
REMARK    1  A    between atoms: C_1  and  O_2
REMARK    2  A    between atoms: O_2  and  C_3
REMARK    3  A    between atoms: C_6  and  C_9
REMARK                            x       y       z     vdW  Elec       q    Type
REMARK                         _______ _______ _______ _____ _____    ______ ____
ROOT
ATOM      1  C   UNL     1      -7.340  -2.385 128.326  0.00  0.00    +0.000 C 
ATOM      2  C   UNL     1      -8.323  -3.250 127.571  0.00  0.00    +0.000 C 
ATOM      3  O   UNL     1      -8.919  -4.269 127.818  0.00  0.00    +0.000 OA
ATOM      4  C   UNL     1      -8.322  -2.877 126.201  0.00  0.00    +0.000 A 
ATOM      5  C   UNL     1      -9.433  -3.187 125.432  0.00  0.00    +0.000 A 
ATOM      6  C   UNL     1      -9.296  -3.162 124.074  0.00  0.00    +0.000 A 
ATOM      7  C   UNL     1      -8.055  -2.768 123.558  0.00  0.00    +0.000 A 
ATOM      8  C   UNL     1      -6.931  -2.416 124.408  0.00  0.00    +0.000 A 
ATOM      9  C   UNL     1      -7.071  -2.458 125.806  0.00  0.00    +0.000 A 
ATOM     10  C   UNL     1      -6.302  -2.205 127.159  0.00  0.00    +0.000 C 
ATOM     11  O   UNL     1      -5.157  -1.817 127.294  0.00  0.00    +0.000 OA
ENDROOT
BRANCH   1  15
ATOM     12  C   UNL     1      -6.520  -3.549 132.511  0.00  0.00    +0.000 A 
ATOM     13  C   UNL     1      -5.939  -4.261 131.454  0.00  0.00    +0.000 A 
ATOM     14  C   UNL     1      -6.177  -3.913 130.092  0.00  0.00    +0.000 A 
ATOM     15  C   UNL     1      -7.081  -2.894 129.756  0.00  0.00    +0.000 A 
ATOM     16  C   UNL     1      -7.585  -2.184 130.869  0.00  0.00    +0.000 A 
ATOM     17  C   UNL     1      -7.340  -2.495 132.200  0.00  0.00    +0.000 A 
BRANCH  12  19
ATOM     18  C   UNL     1      -5.990  -5.258 134.060  0.00  0.00    +0.000 C 
ATOM     19  O   UNL     1      -6.165  -3.862 133.794  0.00  0.00    +0.000 OA
ENDBRANCH  12  19
ENDBRANCH   1  15
TORSDOF 2
ENDMDL
MODEL 5
REMARK VINA RESULT:      -6.8      7.905     10.245
REMARK  Name = Anisindione
REMARK  3 active torsions:
REMARK  status: ('A' for Active; 'I' for Inactive)
REMARK    1  A    between atoms: C_1  and  O_2
REMARK    2  A    between atoms: O_2  and  C_3
REMARK    3  A    between atoms: C_6  and  C_9
REMARK                            x       y       z     vdW  Elec       q    Type
REMARK                         _______ _______ _______ _____ _____    ______ ____
ROOT
ATOM      1  C   UNL     1      -6.803   2.539 123.827  0.00  0.00    +0.000 C 
ATOM      2  C   UNL     1      -6.122   3.543 122.925  0.00  0.00    +0.000 C 
ATOM      3  O   UNL     1      -5.324   4.431 123.097  0.00  0.00    +0.000 OA
ATOM      4  C   UNL     1      -6.777   3.565 121.665  0.00  0.00    +0.000 A 
ATOM      5  C   UNL     1      -6.076   4.035 120.565  0.00  0.00    +0.000 A 
ATOM      6  C   UNL     1      -6.792   4.392 119.459  0.00  0.00    +0.000 A 
ATOM      7  C   UNL     1      -8.178   4.201 119.498  0.00  0.00    +0.000 A 
ATOM      8  C   UNL     1      -8.861   3.669 120.664  0.00  0.00    +0.000 A 
ATOM      9  C   UNL     1      -8.124   3.316 121.807  0.00  0.00    +0.000 A 
ATOM     10  C   UNL     1      -8.259   2.727 123.263  0.00  0.00    +0.000 C 
ATOM     11  O   UNL     1      -9.277   2.358 123.817  0.00  0.00    +0.000 OA
ENDROOT
BRANCH   1  15
ATOM     12  C   UNL     1      -5.429   3.144 127.984  0.00  0.00    +0.000 A 
ATOM     13  C   UNL     1      -4.801   2.198 127.164  0.00  0.00    +0.000 A 
ATOM     14  C   UNL     1      -5.214   1.977 125.818  0.00  0.00    +0.000 A 
ATOM     15  C   UNL     1      -6.331   2.640 125.289  0.00  0.00    +0.000 A 
ATOM     16  C   UNL     1      -6.880   3.617 126.150  0.00  0.00    +0.000 A 
ATOM     17  C   UNL     1      -6.471   3.861 127.454  0.00  0.00    +0.000 A 
BRANCH  12  19
ATOM     18  C   UNL     1      -3.630   4.016 129.250  0.00  0.00    +0.000 C 
ATOM     19  O   UNL     1      -4.916   3.387 129.228  0.00  0.00    +0.000 OA
ENDBRANCH  12  19
ENDBRANCH   1  15
TORSDOF 2
ENDMDL
MODEL 6
REMARK VINA RESULT:      -6.8      7.898     10.709
REMARK  Name = Anisindione
REMARK  3 active torsions:
REMARK  status: ('A' for Active; 'I' for Inactive)
REMARK    1  A    between atoms: C_1  and  O_2
REMARK    2  A    between atoms: O_2  and  C_3
REMARK    3  A    between atoms: C_6  and  C_9
REMARK                            x       y       z     vdW  Elec       q    Type
REMARK                         _______ _______ _______ _____ _____    ______ ____
ROOT
ATOM      1  C   UNL     1      -7.728  -2.698 126.927  0.00  0.00    +0.000 C 
ATOM      2  C   UNL     1      -6.337  -2.507 126.364  0.00  0.00    +0.000 C 
ATOM      3  O   UNL     1      -5.287  -2.123 126.814  0.00  0.00    +0.000 OA
ATOM      4  C   UNL     1      -6.390  -2.576 124.947  0.00  0.00    +0.000 A 
ATOM      5  C   UNL     1      -5.229  -2.891 124.257  0.00  0.00    +0.000 A 
ATOM      6  C   UNL     1      -5.184  -2.608 122.923  0.00  0.00    +0.000 A 
ATOM      7  C   UNL     1      -6.337  -2.072 122.337  0.00  0.00    +0.000 A 
ATOM      8  C   UNL     1      -7.543  -1.794 123.097  0.00  0.00    +0.000 A 
ATOM      9  C   UNL     1      -7.582  -2.072 124.474  0.00  0.00    +0.000 A 
ATOM     10  C   UNL     1      -8.511  -2.016 125.747  0.00  0.00    +0.000 C 
ATOM     11  O   UNL     1      -9.666  -1.638 125.799  0.00  0.00    +0.000 OA
ENDROOT
BRANCH   1  15
ATOM     12  C   UNL     1      -7.723  -1.562 131.198  0.00  0.00    +0.000 A 
ATOM     13  C   UNL     1      -7.652  -2.911 130.827  0.00  0.00    +0.000 A 
ATOM     14  C   UNL     1      -7.648  -3.315 129.460  0.00  0.00    +0.000 A 
ATOM     15  C   UNL     1      -7.807  -2.376 128.430  0.00  0.00    +0.000 A 
ATOM     16  C   UNL     1      -7.817  -1.034 128.873  0.00  0.00    +0.000 A 
ATOM     17  C   UNL     1      -7.795  -0.625 130.200  0.00  0.00    +0.000 A 
BRANCH  12  19
ATOM     18  C   UNL     1      -7.035   0.051 132.788  0.00  0.00    +0.000 C 
ATOM     19  O   UNL     1      -7.612  -1.232 132.521  0.00  0.00    +0.000 OA
ENDBRANCH  12  19
ENDBRANCH   1  15
TORSDOF 2
ENDMDL
MODEL 7
REMARK VINA RESULT:      -6.6      9.216     10.013
REMARK  Name = Anisindione
REMARK  3 active torsions:
REMARK  status: ('A' for Active; 'I' for Inactive)
REMARK    1  A    between atoms: C_1  and  O_2
REMARK    2  A    between atoms: O_2  and  C_3
REMARK    3  A    between atoms: C_6  and  C_9
REMARK                            x       y       z     vdW  Elec       q    Type
REMARK                         _______ _______ _______ _____ _____    ______ ____
ROOT
ATOM      1  C   UNL     1      -7.448  -2.075 127.789  0.00  0.00    +0.000 C 
ATOM      2  C   UNL     1      -5.956  -2.324 127.802  0.00  0.00    +0.000 C 
ATOM      3  O   UNL     1      -5.105  -2.410 126.952  0.00  0.00    +0.000 OA
ATOM      4  C   UNL     1      -5.569  -2.791 129.086  0.00  0.00    +0.000 A 
ATOM      5  C   UNL     1      -4.244  -2.641 129.470  0.00  0.00    +0.000 A 
ATOM      6  C   UNL     1      -3.797  -3.392 130.518  0.00  0.00    +0.000 A 
ATOM      7  C   UNL     1      -4.725  -4.217 131.165  0.00  0.00    +0.000 A 
ATOM      8  C   UNL     1      -6.113  -4.309 130.746  0.00  0.00    +0.000 A 
ATOM      9  C   UNL     1      -6.568  -3.546 129.657  0.00  0.00    +0.000 A 
ATOM     10  C   UNL     1      -7.845  -3.219 128.793  0.00  0.00    +0.000 C 
ATOM     11  O   UNL     1      -8.969  -3.661 128.940  0.00  0.00    +0.000 OA
ENDROOT
BRANCH   1  15
ATOM     12  C   UNL     1      -9.216  -1.145 123.847  0.00  0.00    +0.000 A 
ATOM     13  C   UNL     1      -9.088  -2.475 124.266  0.00  0.00    +0.000 A 
ATOM     14  C   UNL     1      -8.527  -2.814 125.532  0.00  0.00    +0.000 A 
ATOM     15  C   UNL     1      -7.994  -1.824 126.372  0.00  0.00    +0.000 A 
ATOM     16  C   UNL     1      -8.207  -0.505 125.911  0.00  0.00    +0.000 A 
ATOM     17  C   UNL     1      -8.777  -0.160 124.693  0.00  0.00    +0.000 A 
BRANCH  12  19
ATOM     18  C   UNL     1     -10.242   0.485 122.471  0.00  0.00    +0.000 C 
ATOM     19  O   UNL     1      -9.864  -0.881 122.671  0.00  0.00    +0.000 OA
ENDBRANCH  12  19
ENDBRANCH   1  15
TORSDOF 2
ENDMDL
MODEL 8
REMARK VINA RESULT:      -6.6      3.589      4.502
REMARK  Name = Anisindione
REMARK  3 active torsions:
REMARK  status: ('A' for Active; 'I' for Inactive)
REMARK    1  A    between atoms: C_1  and  O_2
REMARK    2  A    between atoms: O_2  and  C_3
REMARK    3  A    between atoms: C_6  and  C_9
REMARK                            x       y       z     vdW  Elec       q    Type
REMARK                         _______ _______ _______ _____ _____    ______ ____
ROOT
ATOM      1  C   UNL     1      -7.650   6.110 131.910  0.00  0.00    +0.000 C 
ATOM      2  C   UNL     1      -6.553   6.900 131.233  0.00  0.00    +0.000 C 
ATOM      3  O   UNL     1      -6.526   7.756 130.385  0.00  0.00    +0.000 OA
ATOM      4  C   UNL     1      -5.298   6.297 131.513  0.00  0.00    +0.000 A 
ATOM      5  C   UNL     1      -4.154   7.073 131.404  0.00  0.00    +0.000 A 
ATOM      6  C   UNL     1      -2.954   6.429 131.316  0.00  0.00    +0.000 A 
ATOM      7  C   UNL     1      -2.963   5.031 131.401  0.00  0.00    +0.000 A 
ATOM      8  C   UNL     1      -4.188   4.266 131.552  0.00  0.00    +0.000 A 
ATOM      9  C   UNL     1      -5.424   4.930 131.628  0.00  0.00    +0.000 A 
ATOM     10  C   UNL     1      -6.974   4.695 131.790  0.00  0.00    +0.000 C 
ATOM     11  O   UNL     1      -7.548   3.632 131.929  0.00  0.00    +0.000 OA
ENDROOT
BRANCH   1  15
ATOM     12  C   UNL     1     -11.781   7.027 130.633  0.00  0.00    +0.000 A 
ATOM     13  C   UNL     1     -10.697   7.370 129.815  0.00  0.00    +0.000 A 
ATOM     14  C   UNL     1      -9.352   7.088 130.192  0.00  0.00    +0.000 A 
ATOM     15  C   UNL     1      -9.056   6.533 131.446  0.00  0.00    +0.000 A 
ATOM     16  C   UNL     1     -10.197   6.162 132.193  0.00  0.00    +0.000 A 
ATOM     17  C   UNL     1     -11.513   6.407 131.826  0.00  0.00    +0.000 A 
BRANCH  12  19
ATOM     18  C   UNL     1     -13.256   6.903 128.786  0.00  0.00    +0.000 C 
ATOM     19  O   UNL     1     -13.051   7.224 130.167  0.00  0.00    +0.000 OA
ENDBRANCH  12  19
ENDBRANCH   1  15
TORSDOF 2
ENDMDL
MODEL 9
REMARK VINA RESULT:      -6.5      8.271     10.751
REMARK  Name = Anisindione
REMARK  3 active torsions:
REMARK  status: ('A' for Active; 'I' for Inactive)
REMARK    1  A    between atoms: C_1  and  O_2
REMARK    2  A    between atoms: O_2  and  C_3
REMARK    3  A    between atoms: C_6  and  C_9
REMARK                            x       y       z     vdW  Elec       q    Type
REMARK                         _______ _______ _______ _____ _____    ______ ____
ROOT
ATOM      1  C   UNL     1      -7.545  -3.075 128.223  0.00  0.00    +0.000 C 
ATOM      2  C   UNL     1      -7.104  -2.061 127.192  0.00  0.00    +0.000 C 
ATOM      3  O   UNL     1      -6.729  -0.916 127.237  0.00  0.00    +0.000 OA
ATOM      4  C   UNL     1      -7.458  -2.523 125.897  0.00  0.00    +0.000 A 
ATOM      5  C   UNL     1      -6.769  -2.018 124.805  0.00  0.00    +0.000 A 
ATOM      6  C   UNL     1      -7.329  -2.174 123.570  0.00  0.00    +0.000 A 
ATOM      7  C   UNL     1      -8.533  -2.884 123.492  0.00  0.00    +0.000 A 
ATOM      8  C   UNL     1      -9.198  -3.426 124.665  0.00  0.00    +0.000 A 
ATOM      9  C   UNL     1      -8.626  -3.251 125.937  0.00  0.00    +0.000 A 
ATOM     10  C   UNL     1      -8.828  -3.578 127.466  0.00  0.00    +0.000 C 
ATOM     11  O   UNL     1      -9.735  -4.212 127.970  0.00  0.00    +0.000 OA
ENDROOT
BRANCH   1  15
ATOM     12  C   UNL     1      -7.364  -1.812 132.455  0.00  0.00    +0.000 A 
ATOM     13  C   UNL     1      -7.986  -0.996 131.501  0.00  0.00    +0.000 A 
ATOM     14  C   UNL     1      -8.067  -1.372 130.129  0.00  0.00    +0.000 A 
ATOM     15  C   UNL     1      -7.443  -2.538 129.663  0.00  0.00    +0.000 A 
ATOM     16  C   UNL     1      -6.884  -3.338 130.685  0.00  0.00    +0.000 A 
ATOM     17  C   UNL     1      -6.821  -2.997 132.029  0.00  0.00    +0.000 A 
BRANCH  12  19
ATOM     18  C   UNL     1      -6.593  -2.219 134.655  0.00  0.00    +0.000 C 
ATOM     19  O   UNL     1      -7.417  -1.449 133.772  0.00  0.00    +0.000 OA
ENDBRANCH  12  19
ENDBRANCH   1  15
TORSDOF 2
ENDMDL
