MODEL 1
REMARK VINA RESULT:      -7.0      0.000      0.000
REMARK  Name = Antazoline
REMARK  5 active torsions:
REMARK  status: ('A' for Active; 'I' for Inactive)
REMARK    1  A    between atoms: C_1  and  N_2
REMARK    2  A    between atoms: C_1  and  C_16
REMARK    3  A    between atoms: N_2  and  C_3
REMARK    4  A    between atoms: N_2  and  C_10
REMARK    5  A    between atoms: C_3  and  C_4
REMARK                            x       y       z     vdW  Elec       q    Type
REMARK                         _______ _______ _______ _____ _____    ______ ____
ROOT
ATOM      1  N   UNL     1      -8.963  -1.353 125.554  0.00  0.00    +0.000 N 
ENDROOT
BRANCH   1   2
ATOM      2  C   UNL     1      -8.561  -2.018 126.769  0.00  0.00    +0.000 A 
ATOM      3  C   UNL     1      -9.035  -3.311 127.087  0.00  0.00    +0.000 A 
ATOM      4  C   UNL     1      -8.785  -3.932 128.332  0.00  0.00    +0.000 A 
ATOM      5  C   UNL     1      -7.982  -3.308 129.278  0.00  0.00    +0.000 A 
ATOM      6  C   UNL     1      -7.474  -2.044 128.992  0.00  0.00    +0.000 A 
ATOM      7  C   UNL     1      -7.762  -1.407 127.758  0.00  0.00    +0.000 A 
ENDBRANCH   1   2
BRANCH   1   8
ATOM      8  C   UNL     1      -9.517   0.078 125.717  0.00  0.00    +0.000 C 
BRANCH   8   9
ATOM      9  C   UNL     1      -8.699   1.336 125.170  0.00  0.00    +0.000 C 
ATOM     10  N   UNL     1      -9.039   2.601 125.202  0.00  0.00    +0.000 NA
ATOM     11  C   UNL     1      -8.097   3.327 124.235  0.00  0.00    +0.000 C 
ATOM     12  C   UNL     1      -7.072   2.266 123.843  0.00  0.00    +0.000 C 
ATOM     13  N   UNL     1      -7.484   1.079 124.534  0.00  0.00    +0.000 N 
ATOM     14  H   UNL     1      -7.672   0.346 123.884  0.00  0.00    +0.000 HD
ENDBRANCH   8   9
ENDBRANCH   1   8
BRANCH   1  15
ATOM     15  C   UNL     1      -8.967  -2.312 124.359  0.00  0.00    +0.000 C 
BRANCH  15  16
ATOM     16  C   UNL     1      -7.632  -2.803 123.723  0.00  0.00    +0.000 A 
ATOM     17  C   UNL     1      -6.776  -3.826 124.262  0.00  0.00    +0.000 A 
ATOM     18  C   UNL     1      -5.368  -3.876 124.007  0.00  0.00    +0.000 A 
ATOM     19  C   UNL     1      -4.817  -2.963 123.111  0.00  0.00    +0.000 A 
ATOM     20  C   UNL     1      -5.714  -2.052 122.513  0.00  0.00    +0.000 A 
ATOM     21  C   UNL     1      -7.098  -2.026 122.717  0.00  0.00    +0.000 A 
ENDBRANCH  15  16
ENDBRANCH   1  15
TORSDOF 5
ENDMDL
MODEL 2
REMARK VINA RESULT:      -6.9      2.102      3.088
REMARK  Name = Antazoline
REMARK  5 active torsions:
REMARK  status: ('A' for Active; 'I' for Inactive)
REMARK    1  A    between atoms: C_1  and  N_2
REMARK    2  A    between atoms: C_1  and  C_16
REMARK    3  A    between atoms: N_2  and  C_3
REMARK    4  A    between atoms: N_2  and  C_10
REMARK    5  A    between atoms: C_3  and  C_4
REMARK                            x       y       z     vdW  Elec       q    Type
REMARK                         _______ _______ _______ _____ _____    ______ ____
ROOT
ATOM      1  N   UNL     1      -8.635   0.658 123.642  0.00  0.00    +0.000 N 
ENDROOT
BRANCH   1   2
ATOM      2  C   UNL     1      -7.975   0.455 124.909  0.00  0.00    +0.000 A 
ATOM      3  C   UNL     1      -6.592   0.705 125.062  0.00  0.00    +0.000 A 
ATOM      4  C   UNL     1      -5.881   0.377 126.239  0.00  0.00    +0.000 A 
ATOM      5  C   UNL     1      -6.550  -0.145 127.339  0.00  0.00    +0.000 A 
ATOM      6  C   UNL     1      -7.918  -0.382 127.237  0.00  0.00    +0.000 A 
ATOM      7  C   UNL     1      -8.619  -0.090 126.039  0.00  0.00    +0.000 A 
ENDBRANCH   1   2
BRANCH   1   8
ATOM      8  C   UNL     1      -9.098   2.099 123.344  0.00  0.00    +0.000 C 
BRANCH   8   9
ATOM      9  C   UNL     1      -8.336   2.992 122.261  0.00  0.00    +0.000 C 
ATOM     10  N   UNL     1      -8.816   3.515 121.159  0.00  0.00    +0.000 NA
ATOM     11  C   UNL     1      -7.606   3.947 120.324  0.00  0.00    +0.000 C 
ATOM     12  C   UNL     1      -6.415   3.749 121.257  0.00  0.00    +0.000 C 
ATOM     13  N   UNL     1      -6.976   3.222 122.467  0.00  0.00    +0.000 N 
ATOM     14  H   UNL     1      -6.582   2.329 122.673  0.00  0.00    +0.000 HD
ENDBRANCH   8   9
ENDBRANCH   1   8
BRANCH   1  15
ATOM     15  C   UNL     1      -8.944  -0.672 122.947  0.00  0.00    +0.000 C 
BRANCH  15  16
ATOM     16  C   UNL     1      -7.985  -1.892 123.090  0.00  0.00    +0.000 A 
ATOM     17  C   UNL     1      -8.210  -3.037 123.932  0.00  0.00    +0.000 A 
ATOM     18  C   UNL     1      -7.144  -3.830 124.466  0.00  0.00    +0.000 A 
ATOM     19  C   UNL     1      -5.838  -3.555 124.066  0.00  0.00    +0.000 A 
ATOM     20  C   UNL     1      -5.675  -2.497 123.145  0.00  0.00    +0.000 A 
ATOM     21  C   UNL     1      -6.713  -1.748 122.580  0.00  0.00    +0.000 A 
ENDBRANCH  15  16
ENDBRANCH   1  15
TORSDOF 5
ENDMDL
MODEL 3
REMARK VINA RESULT:      -6.7      1.705      2.971
REMARK  Name = Antazoline
REMARK  5 active torsions:
REMARK  status: ('A' for Active; 'I' for Inactive)
REMARK    1  A    between atoms: C_1  and  N_2
REMARK    2  A    between atoms: C_1  and  C_16
REMARK    3  A    between atoms: N_2  and  C_3
REMARK    4  A    between atoms: N_2  and  C_10
REMARK    5  A    between atoms: C_3  and  C_4
REMARK                            x       y       z     vdW  Elec       q    Type
REMARK                         _______ _______ _______ _____ _____    ______ ____
ROOT
ATOM      1  N   UNL     1      -5.911  -1.536 126.644  0.00  0.00    +0.000 N 
ENDROOT
BRANCH   1   2
ATOM      2  C   UNL     1      -6.055  -2.263 127.881  0.00  0.00    +0.000 A 
ATOM      3  C   UNL     1      -4.925  -2.697 128.610  0.00  0.00    +0.000 A 
ATOM      4  C   UNL     1      -5.021  -3.538 129.742  0.00  0.00    +0.000 A 
ATOM      5  C   UNL     1      -6.266  -3.913 130.233  0.00  0.00    +0.000 A 
ATOM      6  C   UNL     1      -7.405  -3.484 129.557  0.00  0.00    +0.000 A 
ATOM      7  C   UNL     1      -7.301  -2.675 128.397  0.00  0.00    +0.000 A 
ENDBRANCH   1   2
BRANCH   1   8
ATOM      8  C   UNL     1      -6.261  -0.033 126.697  0.00  0.00    +0.000 C 
BRANCH   8   9
ATOM      9  C   UNL     1      -7.481   0.550 125.847  0.00  0.00    +0.000 C 
ATOM     10  N   UNL     1      -7.507   1.625 125.098  0.00  0.00    +0.000 NA
ATOM     11  C   UNL     1      -8.984   1.922 124.820  0.00  0.00    +0.000 C 
ATOM     12  C   UNL     1      -9.723   0.708 125.376  0.00  0.00    +0.000 C 
ATOM     13  N   UNL     1      -8.697  -0.129 125.929  0.00  0.00    +0.000 N 
ATOM     14  H   UNL     1      -8.856  -0.276 126.903  0.00  0.00    +0.000 HD
ENDBRANCH   8   9
ENDBRANCH   1   8
BRANCH   1  15
ATOM     15  C   UNL     1      -5.655  -2.476 125.462  0.00  0.00    +0.000 C 
BRANCH  15  16
ATOM     16  C   UNL     1      -6.782  -2.793 124.433  0.00  0.00    +0.000 A 
ATOM     17  C   UNL     1      -7.020  -2.077 123.208  0.00  0.00    +0.000 A 
ATOM     18  C   UNL     1      -8.310  -2.004 122.588  0.00  0.00    +0.000 A 
ATOM     19  C   UNL     1      -9.356  -2.748 123.129  0.00  0.00    +0.000 A 
ATOM     20  C   UNL     1      -9.048  -3.531 124.262  0.00  0.00    +0.000 A 
ATOM     21  C   UNL     1      -7.781  -3.647 124.847  0.00  0.00    +0.000 A 
ENDBRANCH  15  16
ENDBRANCH   1  15
TORSDOF 5
ENDMDL
MODEL 4
REMARK VINA RESULT:      -6.5      2.919      5.511
REMARK  Name = Antazoline
REMARK  5 active torsions:
REMARK  status: ('A' for Active; 'I' for Inactive)
REMARK    1  A    between atoms: C_1  and  N_2
REMARK    2  A    between atoms: C_1  and  C_16
REMARK    3  A    between atoms: N_2  and  C_3
REMARK    4  A    between atoms: N_2  and  C_10
REMARK    5  A    between atoms: C_3  and  C_4
REMARK                            x       y       z     vdW  Elec       q    Type
REMARK                         _______ _______ _______ _____ _____    ______ ____
ROOT
ATOM      1  N   UNL     1      -7.294   1.597 124.407  0.00  0.00    +0.000 N 
ENDROOT
BRANCH   1   2
ATOM      2  C   UNL     1      -6.822   0.248 124.214  0.00  0.00    +0.000 A 
ATOM      3  C   UNL     1      -6.077  -0.416 125.215  0.00  0.00    +0.000 A 
ATOM      4  C   UNL     1      -5.470  -1.676 125.008  0.00  0.00    +0.000 A 
ATOM      5  C   UNL     1      -5.654  -2.354 123.809  0.00  0.00    +0.000 A 
ATOM      6  C   UNL     1      -6.403  -1.744 122.807  0.00  0.00    +0.000 A 
ATOM      7  C   UNL     1      -6.975  -0.461 123.005  0.00  0.00    +0.000 A 
ENDBRANCH   1   2
BRANCH   1   8
ATOM      8  C   UNL     1      -7.225   2.140 125.850  0.00  0.00    +0.000 C 
BRANCH   8   9
ATOM      9  C   UNL     1      -6.095   3.186 126.273  0.00  0.00    +0.000 C 
ATOM     10  N   UNL     1      -6.248   4.416 126.699  0.00  0.00    +0.000 NA
ATOM     11  C   UNL     1      -4.870   5.080 126.607  0.00  0.00    +0.000 C 
ATOM     12  C   UNL     1      -3.925   3.935 126.253  0.00  0.00    +0.000 C 
ATOM     13  N   UNL     1      -4.767   2.780 126.140  0.00  0.00    +0.000 N 
ATOM     14  H   UNL     1      -4.698   2.387 125.226  0.00  0.00    +0.000 HD
ENDBRANCH   8   9
ENDBRANCH   1   8
BRANCH   1  15
ATOM     15  C   UNL     1      -7.990   2.136 123.152  0.00  0.00    +0.000 C 
BRANCH  15  16
ATOM     16  C   UNL     1      -7.315   3.229 122.271  0.00  0.00    +0.000 A 
ATOM     17  C   UNL     1      -7.753   3.634 120.961  0.00  0.00    +0.000 A 
ATOM     18  C   UNL     1      -6.867   4.187 119.981  0.00  0.00    +0.000 A 
ATOM     19  C   UNL     1      -5.548   4.451 120.344  0.00  0.00    +0.000 A 
ATOM     20  C   UNL     1      -5.192   4.148 121.675  0.00  0.00    +0.000 A 
ATOM     21  C   UNL     1      -6.061   3.654 122.654  0.00  0.00    +0.000 A 
ENDBRANCH  15  16
ENDBRANCH   1  15
TORSDOF 5
ENDMDL
MODEL 5
REMARK VINA RESULT:      -6.5      2.908      5.901
REMARK  Name = Antazoline
REMARK  5 active torsions:
REMARK  status: ('A' for Active; 'I' for Inactive)
REMARK    1  A    between atoms: C_1  and  N_2
REMARK    2  A    between atoms: C_1  and  C_16
REMARK    3  A    between atoms: N_2  and  C_3
REMARK    4  A    between atoms: N_2  and  C_10
REMARK    5  A    between atoms: C_3  and  C_4
REMARK                            x       y       z     vdW  Elec       q    Type
REMARK                         _______ _______ _______ _____ _____    ______ ____
ROOT
ATOM      1  N   UNL     1      -8.563   2.728 123.716  0.00  0.00    +0.000 N 
ENDROOT
BRANCH   1   2
ATOM      2  C   UNL     1      -7.875   3.226 122.551  0.00  0.00    +0.000 A 
ATOM      3  C   UNL     1      -8.582   3.591 121.383  0.00  0.00    +0.000 A 
ATOM      4  C   UNL     1      -7.937   3.939 120.174  0.00  0.00    +0.000 A 
ATOM      5  C   UNL     1      -6.551   4.008 120.115  0.00  0.00    +0.000 A 
ATOM      6  C   UNL     1      -5.818   3.681 121.252  0.00  0.00    +0.000 A 
ATOM      7  C   UNL     1      -6.470   3.292 122.450  0.00  0.00    +0.000 A 
ENDBRANCH   1   2
BRANCH   1   8
ATOM      8  C   UNL     1      -8.264   3.459 125.042  0.00  0.00    +0.000 C 
BRANCH   8   9
ATOM      9  C   UNL     1      -8.009   2.636 126.387  0.00  0.00    +0.000 C 
ATOM     10  N   UNL     1      -8.831   1.828 127.012  0.00  0.00    +0.000 NA
ATOM     11  C   UNL     1      -8.238   1.603 128.407  0.00  0.00    +0.000 C 
ATOM     12  C   UNL     1      -6.864   2.263 128.341  0.00  0.00    +0.000 C 
ATOM     13  N   UNL     1      -6.779   2.814 127.020  0.00  0.00    +0.000 N 
ATOM     14  H   UNL     1      -6.640   3.801 127.062  0.00  0.00    +0.000 HD
ENDBRANCH   8   9
ENDBRANCH   1   8
BRANCH   1  15
ATOM     15  C   UNL     1      -9.285   1.408 123.426  0.00  0.00    +0.000 C 
BRANCH  15  16
ATOM     16  C   UNL     1      -8.550   0.043 123.581  0.00  0.00    +0.000 A 
ATOM     17  C   UNL     1      -7.205  -0.132 124.062  0.00  0.00    +0.000 A 
ATOM     18  C   UNL     1      -6.386  -1.246 123.691  0.00  0.00    +0.000 A 
ATOM     19  C   UNL     1      -6.947  -2.264 122.923  0.00  0.00    +0.000 A 
ATOM     20  C   UNL     1      -8.305  -2.109 122.574  0.00  0.00    +0.000 A 
ATOM     21  C   UNL     1      -9.128  -1.049 122.971  0.00  0.00    +0.000 A 
ENDBRANCH  15  16
ENDBRANCH   1  15
TORSDOF 5
ENDMDL
MODEL 6
REMARK VINA RESULT:      -6.5      2.894      5.972
REMARK  Name = Antazoline
REMARK  5 active torsions:
REMARK  status: ('A' for Active; 'I' for Inactive)
REMARK    1  A    between atoms: C_1  and  N_2
REMARK    2  A    between atoms: C_1  and  C_16
REMARK    3  A    between atoms: N_2  and  C_3
REMARK    4  A    between atoms: N_2  and  C_10
REMARK    5  A    between atoms: C_3  and  C_4
REMARK                            x       y       z     vdW  Elec       q    Type
REMARK                         _______ _______ _______ _____ _____    ______ ____
ROOT
ATOM      1  N   UNL     1      -8.086   2.397 123.644  0.00  0.00    +0.000 N 
ENDROOT
BRANCH   1   2
ATOM      2  C   UNL     1      -7.677   3.016 122.407  0.00  0.00    +0.000 A 
ATOM      3  C   UNL     1      -8.628   3.476 121.469  0.00  0.00    +0.000 A 
ATOM      4  C   UNL     1      -8.272   3.949 120.186  0.00  0.00    +0.000 A 
ATOM      5  C   UNL     1      -6.934   4.051 119.823  0.00  0.00    +0.000 A 
ATOM      6  C   UNL     1      -5.964   3.631 120.730  0.00  0.00    +0.000 A 
ATOM      7  C   UNL     1      -6.330   3.118 122.000  0.00  0.00    +0.000 A 
ENDBRANCH   1   2
BRANCH   1   8
ATOM      8  C   UNL     1      -8.061   3.301 124.894  0.00  0.00    +0.000 C 
BRANCH   8   9
ATOM      9  C   UNL     1      -6.711   3.510 125.721  0.00  0.00    +0.000 C 
ATOM     10  N   UNL     1      -5.483   3.239 125.351  0.00  0.00    +0.000 NA
ATOM     11  C   UNL     1      -4.630   3.278 126.624  0.00  0.00    +0.000 C 
ATOM     12  C   UNL     1      -5.576   3.816 127.693  0.00  0.00    +0.000 C 
ATOM     13  N   UNL     1      -6.829   4.003 127.021  0.00  0.00    +0.000 N 
ATOM     14  H   UNL     1      -7.541   3.453 127.452  0.00  0.00    +0.000 HD
ENDBRANCH   8   9
ENDBRANCH   1   8
BRANCH   1  15
ATOM     15  C   UNL     1      -8.244   0.880 123.492  0.00  0.00    +0.000 C 
BRANCH  15  16
ATOM     16  C   UNL     1      -7.023  -0.072 123.661  0.00  0.00    +0.000 A 
ATOM     17  C   UNL     1      -6.638  -1.109 122.740  0.00  0.00    +0.000 A 
ATOM     18  C   UNL     1      -5.912  -2.276 123.143  0.00  0.00    +0.000 A 
ATOM     19  C   UNL     1      -5.461  -2.364 124.458  0.00  0.00    +0.000 A 
ATOM     20  C   UNL     1      -5.759  -1.270 125.297  0.00  0.00    +0.000 A 
ATOM     21  C   UNL     1      -6.424  -0.103 124.902  0.00  0.00    +0.000 A 
ENDBRANCH  15  16
ENDBRANCH   1  15
TORSDOF 5
ENDMDL
MODEL 7
REMARK VINA RESULT:      -6.5      7.520     10.088
REMARK  Name = Antazoline
REMARK  5 active torsions:
REMARK  status: ('A' for Active; 'I' for Inactive)
REMARK    1  A    between atoms: C_1  and  N_2
REMARK    2  A    between atoms: C_1  and  C_16
REMARK    3  A    between atoms: N_2  and  C_3
REMARK    4  A    between atoms: N_2  and  C_10
REMARK    5  A    between atoms: C_3  and  C_4
REMARK                            x       y       z     vdW  Elec       q    Type
REMARK                         _______ _______ _______ _____ _____    ______ ____
ROOT
ATOM      1  N   UNL     1     -11.076   5.510 130.996  0.00  0.00    +0.000 N 
ENDROOT
BRANCH   1   2
ATOM      2  C   UNL     1     -11.428   6.488 129.996  0.00  0.00    +0.000 A 
ATOM      3  C   UNL     1     -10.434   7.184 129.271  0.00  0.00    +0.000 A 
ATOM      4  C   UNL     1     -10.732   8.252 128.395  0.00  0.00    +0.000 A 
ATOM      5  C   UNL     1     -12.051   8.614 128.154  0.00  0.00    +0.000 A 
ATOM      6  C   UNL     1     -13.062   7.935 128.830  0.00  0.00    +0.000 A 
ATOM      7  C   UNL     1     -12.754   6.891 129.740  0.00  0.00    +0.000 A 
ENDBRANCH   1   2
BRANCH   1   8
ATOM      8  C   UNL     1     -10.582   6.069 132.346  0.00  0.00    +0.000 C 
BRANCH   8   9
ATOM      9  C   UNL     1      -9.035   6.004 132.737  0.00  0.00    +0.000 C 
ATOM     10  N   UNL     1      -7.995   6.221 131.969  0.00  0.00    +0.000 NA
ATOM     11  C   UNL     1      -6.778   5.675 132.725  0.00  0.00    +0.000 C 
ATOM     12  C   UNL     1      -7.323   5.319 134.105  0.00  0.00    +0.000 C 
ATOM     13  N   UNL     1      -8.721   5.629 134.044  0.00  0.00    +0.000 N 
ATOM     14  H   UNL     1      -9.267   4.815 134.226  0.00  0.00    +0.000 HD
ENDBRANCH   8   9
ENDBRANCH   1   8
BRANCH   1  15
ATOM     15  C   UNL     1     -11.053   4.092 130.415  0.00  0.00    +0.000 C 
BRANCH  15  16
ATOM     16  C   UNL     1      -9.922   3.090 130.796  0.00  0.00    +0.000 A 
ATOM     17  C   UNL     1      -9.825   2.373 132.040  0.00  0.00    +0.000 A 
ATOM     18  C   UNL     1      -8.578   1.925 132.584  0.00  0.00    +0.000 A 
ATOM     19  C   UNL     1      -7.420   2.088 131.827  0.00  0.00    +0.000 A 
ATOM     20  C   UNL     1      -7.578   2.689 130.561  0.00  0.00    +0.000 A 
ATOM     21  C   UNL     1      -8.797   3.087 129.999  0.00  0.00    +0.000 A 
ENDBRANCH  15  16
ENDBRANCH   1  15
TORSDOF 5
ENDMDL
MODEL 8
REMARK VINA RESULT:      -6.2      2.285      4.879
REMARK  Name = Antazoline
REMARK  5 active torsions:
REMARK  status: ('A' for Active; 'I' for Inactive)
REMARK    1  A    between atoms: C_1  and  N_2
REMARK    2  A    between atoms: C_1  and  C_16
REMARK    3  A    between atoms: N_2  and  C_3
REMARK    4  A    between atoms: N_2  and  C_10
REMARK    5  A    between atoms: C_3  and  C_4
REMARK                            x       y       z     vdW  Elec       q    Type
REMARK                         _______ _______ _______ _____ _____    ______ ____
ROOT
ATOM      1  N   UNL     1      -8.137  -2.275 127.067  0.00  0.00    +0.000 N 
ENDROOT
BRANCH   1   2
ATOM      2  C   UNL     1      -7.967  -0.965 126.490  0.00  0.00    +0.000 A 
ATOM      3  C   UNL     1      -9.075  -0.221 126.021  0.00  0.00    +0.000 A 
ATOM      4  C   UNL     1      -8.937   0.996 125.316  0.00  0.00    +0.000 A 
ATOM      5  C   UNL     1      -7.679   1.554 125.121  0.00  0.00    +0.000 A 
ATOM      6  C   UNL     1      -6.565   0.865 125.590  0.00  0.00    +0.000 A 
ATOM      7  C   UNL     1      -6.706  -0.377 126.261  0.00  0.00    +0.000 A 
ENDBRANCH   1   2
BRANCH   1   8
ATOM      8  C   UNL     1      -7.910  -2.379 128.590  0.00  0.00    +0.000 C 
BRANCH   8   9
ATOM      9  C   UNL     1      -6.504  -2.863 129.172  0.00  0.00    +0.000 C 
ATOM     10  N   UNL     1      -5.301  -2.533 128.768  0.00  0.00    +0.000 NA
ATOM     11  C   UNL     1      -4.339  -3.541 129.405  0.00  0.00    +0.000 C 
ATOM     12  C   UNL     1      -5.212  -4.333 130.374  0.00  0.00    +0.000 C 
ATOM     13  N   UNL     1      -6.530  -3.789 130.215  0.00  0.00    +0.000 N 
ATOM     14  H   UNL     1      -7.167  -4.500 129.926  0.00  0.00    +0.000 HD
ENDBRANCH   8   9
ENDBRANCH   1   8
BRANCH   1  15
ATOM     15  C   UNL     1      -8.289  -3.353 125.989  0.00  0.00    +0.000 C 
BRANCH  15  16
ATOM     16  C   UNL     1      -7.564  -3.218 124.616  0.00  0.00    +0.000 A 
ATOM     17  C   UNL     1      -6.145  -3.329 124.405  0.00  0.00    +0.000 A 
ATOM     18  C   UNL     1      -5.467  -2.683 123.322  0.00  0.00    +0.000 A 
ATOM     19  C   UNL     1      -6.223  -2.011 122.364  0.00  0.00    +0.000 A 
ATOM     20  C   UNL     1      -7.622  -2.028 122.545  0.00  0.00    +0.000 A 
ATOM     21  C   UNL     1      -8.298  -2.696 123.572  0.00  0.00    +0.000 A 
ENDBRANCH  15  16
ENDBRANCH   1  15
TORSDOF 5
ENDMDL
MODEL 9
REMARK VINA RESULT:      -6.2      2.642      5.717
REMARK  Name = Antazoline
REMARK  5 active torsions:
REMARK  status: ('A' for Active; 'I' for Inactive)
REMARK    1  A    between atoms: C_1  and  N_2
REMARK    2  A    between atoms: C_1  and  C_16
REMARK    3  A    between atoms: N_2  and  C_3
REMARK    4  A    between atoms: N_2  and  C_10
REMARK    5  A    between atoms: C_3  and  C_4
REMARK                            x       y       z     vdW  Elec       q    Type
REMARK                         _______ _______ _______ _____ _____    ______ ____
ROOT
ATOM      1  N   UNL     1      -7.636   1.549 123.735  0.00  0.00    +0.000 N 
ENDROOT
BRANCH   1   2
ATOM      2  C   UNL     1      -7.830   0.134 123.539  0.00  0.00    +0.000 A 
ATOM      3  C   UNL     1      -6.738  -0.763 123.540  0.00  0.00    +0.000 A 
ATOM      4  C   UNL     1      -6.868  -2.129 123.204  0.00  0.00    +0.000 A 
ATOM      5  C   UNL     1      -8.119  -2.666 122.928  0.00  0.00    +0.000 A 
ATOM      6  C   UNL     1      -9.225  -1.821 122.942  0.00  0.00    +0.000 A 
ATOM      7  C   UNL     1      -9.082  -0.442 123.239  0.00  0.00    +0.000 A 
ENDBRANCH   1   2
BRANCH   1   8
ATOM      8  C   UNL     1      -6.685   1.950 124.882  0.00  0.00    +0.000 C 
BRANCH   8   9
ATOM      9  C   UNL     1      -7.073   1.654 126.403  0.00  0.00    +0.000 C 
ATOM     10  N   UNL     1      -6.510   0.810 127.233  0.00  0.00    +0.000 NA
ATOM     11  C   UNL     1      -7.479   0.652 128.411  0.00  0.00    +0.000 C 
ATOM     12  C   UNL     1      -8.551   1.708 128.159  0.00  0.00    +0.000 C 
ATOM     13  N   UNL     1      -8.173   2.334 126.925  0.00  0.00    +0.000 N 
ATOM     14  H   UNL     1      -8.897   2.231 126.247  0.00  0.00    +0.000 HD
ENDBRANCH   8   9
ENDBRANCH   1   8
BRANCH   1  15
ATOM     15  C   UNL     1      -8.612   2.376 122.891  0.00  0.00    +0.000 C 
BRANCH  15  16
ATOM     16  C   UNL     1      -8.093   3.346 121.788  0.00  0.00    +0.000 A 
ATOM     17  C   UNL     1      -8.861   3.828 120.670  0.00  0.00    +0.000 A 
ATOM     18  C   UNL     1      -8.263   4.230 119.432  0.00  0.00    +0.000 A 
ATOM     19  C   UNL     1      -6.873   4.266 119.340  0.00  0.00    +0.000 A 
ATOM     20  C   UNL     1      -6.158   3.899 120.500  0.00  0.00    +0.000 A 
ATOM     21  C   UNL     1      -6.731   3.551 121.729  0.00  0.00    +0.000 A 
ENDBRANCH  15  16
ENDBRANCH   1  15
TORSDOF 5
ENDMDL
