MODEL 1
REMARK VINA RESULT:      -7.2      0.000      0.000
REMARK  Name = Anthralin
REMARK  2 active torsions:
REMARK  status: ('A' for Active; 'I' for Inactive)
REMARK    1  A    between atoms: O_1  and  C_2
REMARK    2  A    between atoms: C_11  and  O_12
REMARK                            x       y       z     vdW  Elec       q    Type
REMARK                         _______ _______ _______ _____ _____    ______ ____
ROOT
ATOM      1  C   UNL     1      -8.206   5.578 130.558  0.00  0.00    +0.000 A 
ATOM      2  C   UNL     1      -7.780   5.404 131.867  0.00  0.00    +0.000 A 
ATOM      3  C   UNL     1      -8.649   5.698 132.920  0.00  0.00    +0.000 A 
ATOM      4  C   UNL     1      -9.942   6.164 132.666  0.00  0.00    +0.000 A 
ATOM      5  C   UNL     1     -10.383   6.346 131.347  0.00  0.00    +0.000 A 
ATOM      6  C   UNL     1      -9.499   6.046 130.295  0.00  0.00    +0.000 A 
ATOM      7  C   UNL     1      -9.935   6.228 128.900  0.00  0.00    +0.000 C 
ATOM      8  O   UNL     1      -9.203   5.984 127.939  0.00  0.00    +0.000 OA
ATOM      9  C   UNL     1     -11.285   6.715 128.612  0.00  0.00    +0.000 A 
ATOM     10  C   UNL     1     -11.671   6.876 127.274  0.00  0.00    +0.000 A 
ATOM     11  C   UNL     1     -12.938   7.336 126.965  0.00  0.00    +0.000 A 
ATOM     12  C   UNL     1     -13.828   7.639 127.992  0.00  0.00    +0.000 A 
ATOM     13  C   UNL     1     -13.451   7.482 129.329  0.00  0.00    +0.000 A 
ATOM     14  C   UNL     1     -12.169   7.017 129.656  0.00  0.00    +0.000 A 
ATOM     15  C   UNL     1     -11.777   6.868 131.102  0.00  0.00    +0.000 C 
ENDROOT
BRANCH   1  16
ATOM     16  O   UNL     1      -7.357   5.290 129.528  0.00  0.00    +0.000 OA
ATOM     17  H   UNL     1      -6.446   5.548 129.721  0.00  0.00    +0.000 HD
ENDBRANCH   1  16
BRANCH  10  18
ATOM     18  O   UNL     1     -10.846   6.599 126.215  0.00  0.00    +0.000 OA
ATOM     19  H   UNL     1      -9.929   6.512 126.573  0.00  0.00    +0.000 HD
ENDBRANCH  10  18
TORSDOF 2
ENDMDL
MODEL 2
REMARK VINA RESULT:      -7.2      0.059      4.811
REMARK  Name = Anthralin
REMARK  2 active torsions:
REMARK  status: ('A' for Active; 'I' for Inactive)
REMARK    1  A    between atoms: O_1  and  C_2
REMARK    2  A    between atoms: C_11  and  O_12
REMARK                            x       y       z     vdW  Elec       q    Type
REMARK                         _______ _______ _______ _____ _____    ______ ____
ROOT
ATOM      1  C   UNL     1     -11.674   6.845 127.242  0.00  0.00    +0.000 A 
ATOM      2  C   UNL     1     -12.944   7.306 126.925  0.00  0.00    +0.000 A 
ATOM      3  C   UNL     1     -13.837   7.625 127.948  0.00  0.00    +0.000 A 
ATOM      4  C   UNL     1     -13.464   7.485 129.288  0.00  0.00    +0.000 A 
ATOM      5  C   UNL     1     -12.184   7.017 129.621  0.00  0.00    +0.000 A 
ATOM      6  C   UNL     1     -11.293   6.699 128.582  0.00  0.00    +0.000 A 
ATOM      7  C   UNL     1      -9.943   6.206 128.902  0.00  0.00    +0.000 C 
ATOM      8  O   UNL     1      -9.121   5.910 128.033  0.00  0.00    +0.000 OA
ATOM      9  C   UNL     1      -9.531   6.052 130.299  0.00  0.00    +0.000 A 
ATOM     10  C   UNL     1      -8.239   5.582 130.571  0.00  0.00    +0.000 A 
ATOM     11  C   UNL     1      -7.817   5.422 131.879  0.00  0.00    +0.000 A 
ATOM     12  C   UNL     1      -8.685   5.731 132.923  0.00  0.00    +0.000 A 
ATOM     13  C   UNL     1      -9.975   6.200 132.660  0.00  0.00    +0.000 A 
ATOM     14  C   UNL     1     -10.416   6.366 131.338  0.00  0.00    +0.000 A 
ATOM     15  C   UNL     1     -11.814   6.858 131.075  0.00  0.00    +0.000 C 
ENDROOT
BRANCH   1  16
ATOM     16  O   UNL     1     -10.799   6.532 126.241  0.00  0.00    +0.000 OA
ATOM     17  H   UNL     1     -10.558   5.597 126.243  0.00  0.00    +0.000 HD
ENDBRANCH   1  16
BRANCH  10  18
ATOM     18  O   UNL     1      -7.334   5.257 129.593  0.00  0.00    +0.000 OA
ATOM     19  H   UNL     1      -6.956   6.104 129.252  0.00  0.00    +0.000 HD
ENDBRANCH  10  18
TORSDOF 2
ENDMDL
MODEL 3
REMARK VINA RESULT:      -7.1      7.761     10.022
REMARK  Name = Anthralin
REMARK  2 active torsions:
REMARK  status: ('A' for Active; 'I' for Inactive)
REMARK    1  A    between atoms: O_1  and  C_2
REMARK    2  A    between atoms: C_11  and  O_12
REMARK                            x       y       z     vdW  Elec       q    Type
REMARK                         _______ _______ _______ _____ _____    ______ ____
ROOT
ATOM      1  C   UNL     1      -7.939   4.176 119.537  0.00  0.00    +0.000 A 
ATOM      2  C   UNL     1      -7.184   4.784 118.543  0.00  0.00    +0.000 A 
ATOM      3  C   UNL     1      -5.867   5.158 118.809  0.00  0.00    +0.000 A 
ATOM      4  C   UNL     1      -5.302   4.927 120.067  0.00  0.00    +0.000 A 
ATOM      5  C   UNL     1      -6.056   4.317 121.080  0.00  0.00    +0.000 A 
ATOM      6  C   UNL     1      -7.381   3.943 120.800  0.00  0.00    +0.000 A 
ATOM      7  C   UNL     1      -8.196   3.301 121.844  0.00  0.00    +0.000 C 
ATOM      8  O   UNL     1      -9.364   2.955 121.656  0.00  0.00    +0.000 OA
ATOM      9  C   UNL     1      -7.624   3.049 123.169  0.00  0.00    +0.000 A 
ATOM     10  C   UNL     1      -8.425   2.434 124.142  0.00  0.00    +0.000 A 
ATOM     11  C   UNL     1      -7.918   2.183 125.404  0.00  0.00    +0.000 A 
ATOM     12  C   UNL     1      -6.607   2.546 125.702  0.00  0.00    +0.000 A 
ATOM     13  C   UNL     1      -5.802   3.159 124.738  0.00  0.00    +0.000 A 
ATOM     14  C   UNL     1      -6.304   3.421 123.454  0.00  0.00    +0.000 A 
ATOM     15  C   UNL     1      -5.427   4.096 122.434  0.00  0.00    +0.000 C 
ENDROOT
BRANCH   1  16
ATOM     16  O   UNL     1      -9.228   3.810 119.277  0.00  0.00    +0.000 OA
ATOM     17  H   UNL     1      -9.736   3.653 120.084  0.00  0.00    +0.000 HD
ENDBRANCH   1  16
BRANCH  10  18
ATOM     18  O   UNL     1      -9.723   2.053 123.917  0.00  0.00    +0.000 OA
ATOM     19  H   UNL     1      -9.701   1.305 123.271  0.00  0.00    +0.000 HD
ENDBRANCH  10  18
TORSDOF 2
ENDMDL
MODEL 4
REMARK VINA RESULT:      -7.1      9.950     10.191
REMARK  Name = Anthralin
REMARK  2 active torsions:
REMARK  status: ('A' for Active; 'I' for Inactive)
REMARK    1  A    between atoms: O_1  and  C_2
REMARK    2  A    between atoms: C_11  and  O_12
REMARK                            x       y       z     vdW  Elec       q    Type
REMARK                         _______ _______ _______ _____ _____    ______ ____
ROOT
ATOM      1  C   UNL     1      -5.832  -2.139 128.683  0.00  0.00    +0.000 A 
ATOM      2  C   UNL     1      -6.086  -2.462 130.009  0.00  0.00    +0.000 A 
ATOM      3  C   UNL     1      -7.279  -3.102 130.346  0.00  0.00    +0.000 A 
ATOM      4  C   UNL     1      -8.218  -3.422 129.361  0.00  0.00    +0.000 A 
ATOM      5  C   UNL     1      -7.974  -3.099 128.019  0.00  0.00    +0.000 A 
ATOM      6  C   UNL     1      -6.768  -2.454 127.691  0.00  0.00    +0.000 A 
ATOM      7  C   UNL     1      -6.485  -2.103 126.289  0.00  0.00    +0.000 C 
ATOM      8  O   UNL     1      -5.447  -1.536 125.944  0.00  0.00    +0.000 OA
ATOM      9  C   UNL     1      -7.455  -2.429 125.242  0.00  0.00    +0.000 A 
ATOM     10  C   UNL     1      -7.155  -2.083 123.916  0.00  0.00    +0.000 A 
ATOM     11  C   UNL     1      -8.049  -2.374 122.902  0.00  0.00    +0.000 A 
ATOM     12  C   UNL     1      -9.249  -3.012 123.206  0.00  0.00    +0.000 A 
ATOM     13  C   UNL     1      -9.555  -3.360 124.525  0.00  0.00    +0.000 A 
ATOM     14  C   UNL     1      -8.658  -3.070 125.563  0.00  0.00    +0.000 A 
ATOM     15  C   UNL     1      -9.013  -3.439 126.979  0.00  0.00    +0.000 C 
ENDROOT
BRANCH   1  16
ATOM     16  O   UNL     1      -4.665  -1.512 128.353  0.00  0.00    +0.000 OA
ATOM     17  H   UNL     1      -4.803  -0.777 127.741  0.00  0.00    +0.000 HD
ENDBRANCH   1  16
BRANCH  10  18
ATOM     18  O   UNL     1      -5.995  -1.453 123.547  0.00  0.00    +0.000 OA
ATOM     19  H   UNL     1      -5.311  -2.154 123.413  0.00  0.00    +0.000 HD
ENDBRANCH  10  18
TORSDOF 2
ENDMDL
MODEL 5
REMARK VINA RESULT:      -7.1      9.923     11.062
REMARK  Name = Anthralin
REMARK  2 active torsions:
REMARK  status: ('A' for Active; 'I' for Inactive)
REMARK    1  A    between atoms: O_1  and  C_2
REMARK    2  A    between atoms: C_11  and  O_12
REMARK                            x       y       z     vdW  Elec       q    Type
REMARK                         _______ _______ _______ _____ _____    ______ ____
ROOT
ATOM      1  C   UNL     1      -7.188  -2.029 123.923  0.00  0.00    +0.000 A 
ATOM      2  C   UNL     1      -8.098  -2.322 122.917  0.00  0.00    +0.000 A 
ATOM      3  C   UNL     1      -9.294  -2.966 123.235  0.00  0.00    +0.000 A 
ATOM      4  C   UNL     1      -9.583  -3.318 124.556  0.00  0.00    +0.000 A 
ATOM      5  C   UNL     1      -8.670  -3.030 125.581  0.00  0.00    +0.000 A 
ATOM      6  C   UNL     1      -7.469  -2.380 125.249  0.00  0.00    +0.000 A 
ATOM      7  C   UNL     1      -6.492  -2.065 126.304  0.00  0.00    +0.000 C 
ATOM      8  O   UNL     1      -5.422  -1.499 126.071  0.00  0.00    +0.000 OA
ATOM      9  C   UNL     1      -6.774  -2.425 127.696  0.00  0.00    +0.000 A 
ATOM     10  C   UNL     1      -5.825  -2.110 128.678  0.00  0.00    +0.000 A 
ATOM     11  C   UNL     1      -6.058  -2.438 130.002  0.00  0.00    +0.000 A 
ATOM     12  C   UNL     1      -7.242  -3.082 130.352  0.00  0.00    +0.000 A 
ATOM     13  C   UNL     1      -8.193  -3.400 129.378  0.00  0.00    +0.000 A 
ATOM     14  C   UNL     1      -7.969  -3.074 128.032  0.00  0.00    +0.000 A 
ATOM     15  C   UNL     1      -8.999  -3.438 126.996  0.00  0.00    +0.000 C 
ENDROOT
BRANCH   1  16
ATOM     16  O   UNL     1      -6.018  -1.398 123.612  0.00  0.00    +0.000 OA
ATOM     17  H   UNL     1      -5.419  -1.963 123.106  0.00  0.00    +0.000 HD
ENDBRANCH   1  16
BRANCH  10  18
ATOM     18  O   UNL     1      -4.639  -1.479 128.404  0.00  0.00    +0.000 OA
ATOM     19  H   UNL     1      -4.523  -1.490 127.422  0.00  0.00    +0.000 HD
ENDBRANCH  10  18
TORSDOF 2
ENDMDL
MODEL 6
REMARK VINA RESULT:      -7.0      2.467      3.083
REMARK  Name = Anthralin
REMARK  2 active torsions:
REMARK  status: ('A' for Active; 'I' for Inactive)
REMARK    1  A    between atoms: O_1  and  C_2
REMARK    2  A    between atoms: C_11  and  O_12
REMARK                            x       y       z     vdW  Elec       q    Type
REMARK                         _______ _______ _______ _____ _____    ______ ____
ROOT
ATOM      1  C   UNL     1      -8.936   5.526 132.882  0.00  0.00    +0.000 A 
ATOM      2  C   UNL     1      -7.584   5.349 133.143  0.00  0.00    +0.000 A 
ATOM      3  C   UNL     1      -6.638   5.921 132.292  0.00  0.00    +0.000 A 
ATOM      4  C   UNL     1      -7.039   6.669 131.182  0.00  0.00    +0.000 A 
ATOM      5  C   UNL     1      -8.402   6.853 130.906  0.00  0.00    +0.000 A 
ATOM      6  C   UNL     1      -9.346   6.272 131.771  0.00  0.00    +0.000 A 
ATOM      7  C   UNL     1     -10.785   6.448 131.507  0.00  0.00    +0.000 C 
ATOM      8  O   UNL     1     -11.656   5.961 132.229  0.00  0.00    +0.000 OA
ATOM      9  C   UNL     1     -11.227   7.229 130.350  0.00  0.00    +0.000 A 
ATOM     10  C   UNL     1     -12.603   7.380 130.126  0.00  0.00    +0.000 A 
ATOM     11  C   UNL     1     -13.056   8.108 129.042  0.00  0.00    +0.000 A 
ATOM     12  C   UNL     1     -12.137   8.691 128.173  0.00  0.00    +0.000 A 
ATOM     13  C   UNL     1     -10.763   8.545 128.389  0.00  0.00    +0.000 A 
ATOM     14  C   UNL     1     -10.290   7.808 129.484  0.00  0.00    +0.000 A 
ATOM     15  C   UNL     1      -8.808   7.650 129.691  0.00  0.00    +0.000 C 
ENDROOT
BRANCH   1  16
ATOM     16  O   UNL     1      -9.863   4.966 133.715  0.00  0.00    +0.000 OA
ATOM     17  H   UNL     1     -10.632   5.537 133.845  0.00  0.00    +0.000 HD
ENDBRANCH   1  16
BRANCH  10  18
ATOM     18  O   UNL     1     -13.561   6.832 130.939  0.00  0.00    +0.000 OA
ATOM     19  H   UNL     1     -14.392   7.350 130.802  0.00  0.00    +0.000 HD
ENDBRANCH  10  18
TORSDOF 2
ENDMDL
MODEL 7
REMARK VINA RESULT:      -7.0      7.552      8.980
REMARK  Name = Anthralin
REMARK  2 active torsions:
REMARK  status: ('A' for Active; 'I' for Inactive)
REMARK    1  A    between atoms: O_1  and  C_2
REMARK    2  A    between atoms: C_11  and  O_12
REMARK                            x       y       z     vdW  Elec       q    Type
REMARK                         _______ _______ _______ _____ _____    ______ ____
ROOT
ATOM      1  C   UNL     1      -7.939   2.634 124.717  0.00  0.00    +0.000 A 
ATOM      2  C   UNL     1      -7.269   2.501 125.926  0.00  0.00    +0.000 A 
ATOM      3  C   UNL     1      -5.943   2.921 126.028  0.00  0.00    +0.000 A 
ATOM      4  C   UNL     1      -5.285   3.475 124.926  0.00  0.00    +0.000 A 
ATOM      5  C   UNL     1      -5.950   3.611 123.699  0.00  0.00    +0.000 A 
ATOM      6  C   UNL     1      -7.286   3.185 123.608  0.00  0.00    +0.000 A 
ATOM      7  C   UNL     1      -8.011   3.317 122.333  0.00  0.00    +0.000 C 
ATOM      8  O   UNL     1      -9.181   2.958 122.194  0.00  0.00    +0.000 OA
ATOM      9  C   UNL     1      -7.340   3.893 121.165  0.00  0.00    +0.000 A 
ATOM     10  C   UNL     1      -8.057   4.007 119.966  0.00  0.00    +0.000 A 
ATOM     11  C   UNL     1      -7.454   4.545 118.843  0.00  0.00    +0.000 A 
ATOM     12  C   UNL     1      -6.131   4.973 118.913  0.00  0.00    +0.000 A 
ATOM     13  C   UNL     1      -5.409   4.863 120.105  0.00  0.00    +0.000 A 
ATOM     14  C   UNL     1      -6.008   4.319 121.251  0.00  0.00    +0.000 A 
ATOM     15  C   UNL     1      -5.210   4.195 122.521  0.00  0.00    +0.000 C 
ENDROOT
BRANCH   1  16
ATOM     16  O   UNL     1      -9.237   2.223 124.617  0.00  0.00    +0.000 OA
ATOM     17  H   UNL     1      -9.858   2.963 124.617  0.00  0.00    +0.000 HD
ENDBRANCH   1  16
BRANCH  10  18
ATOM     18  O   UNL     1      -9.360   3.604 119.827  0.00  0.00    +0.000 OA
ATOM     19  H   UNL     1      -9.421   3.097 118.981  0.00  0.00    +0.000 HD
ENDBRANCH  10  18
TORSDOF 2
ENDMDL
MODEL 8
REMARK VINA RESULT:      -6.9     10.229     10.556
REMARK  Name = Anthralin
REMARK  2 active torsions:
REMARK  status: ('A' for Active; 'I' for Inactive)
REMARK    1  A    between atoms: O_1  and  C_2
REMARK    2  A    between atoms: C_11  and  O_12
REMARK                            x       y       z     vdW  Elec       q    Type
REMARK                         _______ _______ _______ _____ _____    ______ ____
ROOT
ATOM      1  C   UNL     1      -8.110  -3.335 128.749  0.00  0.00    +0.000 A 
ATOM      2  C   UNL     1      -7.339  -3.251 129.901  0.00  0.00    +0.000 A 
ATOM      3  C   UNL     1      -6.045  -2.735 129.829  0.00  0.00    +0.000 A 
ATOM      4  C   UNL     1      -5.519  -2.302 128.608  0.00  0.00    +0.000 A 
ATOM      5  C   UNL     1      -6.286  -2.384 127.437  0.00  0.00    +0.000 A 
ATOM      6  C   UNL     1      -7.589  -2.906 127.522  0.00  0.00    +0.000 A 
ATOM      7  C   UNL     1      -8.418  -3.004 126.309  0.00  0.00    +0.000 C 
ATOM      8  O   UNL     1      -9.565  -3.455 126.324  0.00  0.00    +0.000 OA
ATOM      9  C   UNL     1      -7.886  -2.556 125.020  0.00  0.00    +0.000 A 
ATOM     10  C   UNL     1      -8.700  -2.661 123.884  0.00  0.00    +0.000 A 
ATOM     11  C   UNL     1      -8.230  -2.249 122.650  0.00  0.00    +0.000 A 
ATOM     12  C   UNL     1      -6.942  -1.730 122.544  0.00  0.00    +0.000 A 
ATOM     13  C   UNL     1      -6.124  -1.622 123.673  0.00  0.00    +0.000 A 
ATOM     14  C   UNL     1      -6.588  -2.037 124.930  0.00  0.00    +0.000 A 
ATOM     15  C   UNL     1      -5.687  -1.927 126.130  0.00  0.00    +0.000 C 
ENDROOT
BRANCH   1  16
ATOM     16  O   UNL     1      -9.376  -3.841 128.819  0.00  0.00    +0.000 OA
ATOM     17  H   UNL     1      -9.398  -4.722 129.214  0.00  0.00    +0.000 HD
ENDBRANCH   1  16
BRANCH  10  18
ATOM     18  O   UNL     1      -9.975  -3.164 123.915  0.00  0.00    +0.000 OA
ATOM     19  H   UNL     1     -10.368  -2.910 124.787  0.00  0.00    +0.000 HD
ENDBRANCH  10  18
TORSDOF 2
ENDMDL
MODEL 9
REMARK VINA RESULT:      -6.9      7.586      9.077
REMARK  Name = Anthralin
REMARK  2 active torsions:
REMARK  status: ('A' for Active; 'I' for Inactive)
REMARK    1  A    between atoms: O_1  and  C_2
REMARK    2  A    between atoms: C_11  and  O_12
REMARK                            x       y       z     vdW  Elec       q    Type
REMARK                         _______ _______ _______ _____ _____    ______ ____
ROOT
ATOM      1  C   UNL     1      -7.567   2.263 124.954  0.00  0.00    +0.000 A 
ATOM      2  C   UNL     1      -8.658   1.600 125.500  0.00  0.00    +0.000 A 
ATOM      3  C   UNL     1      -9.798   1.393 124.722  0.00  0.00    +0.000 A 
ATOM      4  C   UNL     1      -9.850   1.846 123.401  0.00  0.00    +0.000 A 
ATOM      5  C   UNL     1      -8.756   2.519 122.840  0.00  0.00    +0.000 A 
ATOM      6  C   UNL     1      -7.612   2.722 123.632  0.00  0.00    +0.000 A 
ATOM      7  C   UNL     1      -6.448   3.425 123.069  0.00  0.00    +0.000 C 
ATOM      8  O   UNL     1      -5.421   3.633 123.717  0.00  0.00    +0.000 OA
ATOM      9  C   UNL     1      -6.482   3.909 121.687  0.00  0.00    +0.000 A 
ATOM     10  C   UNL     1      -5.356   4.573 121.179  0.00  0.00    +0.000 A 
ATOM     11  C   UNL     1      -5.354   5.045 119.879  0.00  0.00    +0.000 A 
ATOM     12  C   UNL     1      -6.477   4.854 119.077  0.00  0.00    +0.000 A 
ATOM     13  C   UNL     1      -7.603   4.193 119.576  0.00  0.00    +0.000 A 
ATOM     14  C   UNL     1      -7.619   3.710 120.894  0.00  0.00    +0.000 A 
ATOM     15  C   UNL     1      -8.846   3.014 121.417  0.00  0.00    +0.000 C 
ENDROOT
BRANCH   1  16
ATOM     16  O   UNL     1      -6.451   2.466 125.714  0.00  0.00    +0.000 OA
ATOM     17  H   UNL     1      -5.884   3.161 125.356  0.00  0.00    +0.000 HD
ENDBRANCH   1  16
BRANCH  10  18
ATOM     18  O   UNL     1      -4.220   4.796 121.912  0.00  0.00    +0.000 OA
ATOM     19  H   UNL     1      -3.658   5.426 121.397  0.00  0.00    +0.000 HD
ENDBRANCH  10  18
TORSDOF 2
ENDMDL
