MODEL 1
REMARK VINA RESULT:      -5.9      0.000      0.000
REMARK  Name = Antipyrine
REMARK  3 active torsions:
REMARK  status: ('A' for Active; 'I' for Inactive)
REMARK    1  A    between atoms: C_1  and  N_2
REMARK    2  A    between atoms: N_3  and  C_9
REMARK    3  A    between atoms: C_7  and  C_8
REMARK                            x       y       z     vdW  Elec       q    Type
REMARK                         _______ _______ _______ _____ _____    ______ ____
ROOT
ATOM      1  C   UNL     1     -10.419   8.414 128.125  0.00  0.00    +0.000 C 
ATOM      2  N   UNL     1     -11.193   8.070 129.298  0.00  0.00    +0.000 N 
ATOM      3  N   UNL     1     -10.777   7.169 130.286  0.00  0.00    +0.000 N 
ATOM      4  C   UNL     1     -11.849   6.907 131.130  0.00  0.00    +0.000 A 
ATOM      5  O   UNL     1     -11.921   6.177 132.109  0.00  0.00    +0.000 OA
ATOM      6  C   UNL     1     -12.970   7.752 130.652  0.00  0.00    +0.000 A 
ATOM      7  C   UNL     1     -12.519   8.375 129.553  0.00  0.00    +0.000 A 
ATOM      8  C   UNL     1     -13.299   9.312 128.698  0.00  0.00    +0.000 C 
ENDROOT
BRANCH   3   9
ATOM      9  C   UNL     1      -9.551   6.503 130.269  0.00  0.00    +0.000 A 
ATOM     10  C   UNL     1      -9.434   5.284 129.595  0.00  0.00    +0.000 A 
ATOM     11  C   UNL     1      -8.244   4.565 129.657  0.00  0.00    +0.000 A 
ATOM     12  C   UNL     1      -7.145   5.102 130.327  0.00  0.00    +0.000 A 
ATOM     13  C   UNL     1      -7.247   6.337 130.970  0.00  0.00    +0.000 A 
ATOM     14  C   UNL     1      -8.448   7.043 130.935  0.00  0.00    +0.000 A 
ENDBRANCH   3   9
TORSDOF 1
ENDMDL
MODEL 2
REMARK VINA RESULT:      -5.9      1.946      2.815
REMARK  Name = Antipyrine
REMARK  3 active torsions:
REMARK  status: ('A' for Active; 'I' for Inactive)
REMARK    1  A    between atoms: C_1  and  N_2
REMARK    2  A    between atoms: N_3  and  C_9
REMARK    3  A    between atoms: C_7  and  C_8
REMARK                            x       y       z     vdW  Elec       q    Type
REMARK                         _______ _______ _______ _____ _____    ______ ____
ROOT
ATOM      1  C   UNL     1     -12.695   7.751 131.077  0.00  0.00    +0.000 C 
ATOM      2  N   UNL     1     -12.117   7.632 129.756  0.00  0.00    +0.000 N 
ATOM      3  N   UNL     1     -11.038   6.799 129.433  0.00  0.00    +0.000 N 
ATOM      4  C   UNL     1     -10.605   7.107 128.150  0.00  0.00    +0.000 A 
ATOM      5  O   UNL     1      -9.693   6.629 127.490  0.00  0.00    +0.000 OA
ATOM      6  C   UNL     1     -11.522   8.157 127.643  0.00  0.00    +0.000 A 
ATOM      7  C   UNL     1     -12.356   8.438 128.656  0.00  0.00    +0.000 A 
ATOM      8  C   UNL     1     -13.441   9.458 128.637  0.00  0.00    +0.000 C 
ENDROOT
BRANCH   3   9
ATOM      9  C   UNL     1     -10.397   5.963 130.348  0.00  0.00    +0.000 A 
ATOM     10  C   UNL     1      -9.438   6.493 131.217  0.00  0.00    +0.000 A 
ATOM     11  C   UNL     1      -8.723   5.649 132.062  0.00  0.00    +0.000 A 
ATOM     12  C   UNL     1      -9.022   4.288 132.095  0.00  0.00    +0.000 A 
ATOM     13  C   UNL     1     -10.005   3.761 131.256  0.00  0.00    +0.000 A 
ATOM     14  C   UNL     1     -10.700   4.600 130.387  0.00  0.00    +0.000 A 
ENDBRANCH   3   9
TORSDOF 1
ENDMDL
MODEL 3
REMARK VINA RESULT:      -5.9      9.048     10.091
REMARK  Name = Antipyrine
REMARK  3 active torsions:
REMARK  status: ('A' for Active; 'I' for Inactive)
REMARK    1  A    between atoms: C_1  and  N_2
REMARK    2  A    between atoms: N_3  and  C_9
REMARK    3  A    between atoms: C_7  and  C_8
REMARK                            x       y       z     vdW  Elec       q    Type
REMARK                         _______ _______ _______ _____ _____    ______ ____
ROOT
ATOM      1  C   UNL     1      -6.516   0.778 124.511  0.00  0.00    +0.000 C 
ATOM      2  N   UNL     1      -7.782   1.107 123.894  0.00  0.00    +0.000 N 
ATOM      3  N   UNL     1      -8.868   0.228 123.796  0.00  0.00    +0.000 N 
ATOM      4  C   UNL     1      -9.820   0.788 122.952  0.00  0.00    +0.000 A 
ATOM      5  O   UNL     1     -10.905   0.355 122.592  0.00  0.00    +0.000 OA
ATOM      6  C   UNL     1      -9.297   2.119 122.562  0.00  0.00    +0.000 A 
ATOM      7  C   UNL     1      -8.082   2.217 123.123  0.00  0.00    +0.000 A 
ATOM      8  C   UNL     1      -7.147   3.368 122.989  0.00  0.00    +0.000 C 
ENDROOT
BRANCH   3   9
ATOM      9  C   UNL     1      -8.869  -1.073 124.300  0.00  0.00    +0.000 A 
ATOM     10  C   UNL     1      -9.135  -1.291 125.656  0.00  0.00    +0.000 A 
ATOM     11  C   UNL     1      -9.038  -2.573 126.186  0.00  0.00    +0.000 A 
ATOM     12  C   UNL     1      -8.754  -3.650 125.347  0.00  0.00    +0.000 A 
ATOM     13  C   UNL     1      -8.525  -3.441 123.987  0.00  0.00    +0.000 A 
ATOM     14  C   UNL     1      -8.590  -2.153 123.459  0.00  0.00    +0.000 A 
ENDBRANCH   3   9
TORSDOF 1
ENDMDL
MODEL 4
REMARK VINA RESULT:      -5.8      2.027      4.954
REMARK  Name = Antipyrine
REMARK  3 active torsions:
REMARK  status: ('A' for Active; 'I' for Inactive)
REMARK    1  A    between atoms: C_1  and  N_2
REMARK    2  A    between atoms: N_3  and  C_9
REMARK    3  A    between atoms: C_7  and  C_8
REMARK                            x       y       z     vdW  Elec       q    Type
REMARK                         _______ _______ _______ _____ _____    ______ ____
ROOT
ATOM      1  C   UNL     1     -11.371   6.409 132.243  0.00  0.00    +0.000 C 
ATOM      2  N   UNL     1     -10.370   6.078 131.252  0.00  0.00    +0.000 N 
ATOM      3  N   UNL     1     -10.478   6.370 129.887  0.00  0.00    +0.000 N 
ATOM      4  C   UNL     1      -9.459   5.713 129.208  0.00  0.00    +0.000 A 
ATOM      5  O   UNL     1      -9.195   5.690 128.014  0.00  0.00    +0.000 OA
ATOM      6  C   UNL     1      -8.648   5.026 130.242  0.00  0.00    +0.000 A 
ATOM      7  C   UNL     1      -9.267   5.256 131.410  0.00  0.00    +0.000 A 
ATOM      8  C   UNL     1      -8.842   4.741 132.741  0.00  0.00    +0.000 C 
ENDROOT
BRANCH   3   9
ATOM      9  C   UNL     1     -11.563   7.035 129.314  0.00  0.00    +0.000 A 
ATOM     10  C   UNL     1     -12.675   6.304 128.883  0.00  0.00    +0.000 A 
ATOM     11  C   UNL     1     -13.716   6.948 128.221  0.00  0.00    +0.000 A 
ATOM     12  C   UNL     1     -13.683   8.332 128.060  0.00  0.00    +0.000 A 
ATOM     13  C   UNL     1     -12.593   9.070 128.523  0.00  0.00    +0.000 A 
ATOM     14  C   UNL     1     -11.535   8.423 129.158  0.00  0.00    +0.000 A 
ENDBRANCH   3   9
TORSDOF 1
ENDMDL
MODEL 5
REMARK VINA RESULT:      -5.6      9.606     10.873
REMARK  Name = Antipyrine
REMARK  3 active torsions:
REMARK  status: ('A' for Active; 'I' for Inactive)
REMARK    1  A    between atoms: C_1  and  N_2
REMARK    2  A    between atoms: N_3  and  C_9
REMARK    3  A    between atoms: C_7  and  C_8
REMARK                            x       y       z     vdW  Elec       q    Type
REMARK                         _______ _______ _______ _____ _____    ______ ____
ROOT
ATOM      1  C   UNL     1      -5.707  -2.971 125.079  0.00  0.00    +0.000 C 
ATOM      2  N   UNL     1      -6.758  -2.059 124.683  0.00  0.00    +0.000 N 
ATOM      3  N   UNL     1      -7.848  -1.707 125.489  0.00  0.00    +0.000 N 
ATOM      4  C   UNL     1      -8.767  -1.007 124.716  0.00  0.00    +0.000 A 
ATOM      5  O   UNL     1      -9.849  -0.528 125.021  0.00  0.00    +0.000 OA
ATOM      6  C   UNL     1      -8.162  -0.879 123.368  0.00  0.00    +0.000 A 
ATOM      7  C   UNL     1      -7.004  -1.554 123.418  0.00  0.00    +0.000 A 
ATOM      8  C   UNL     1      -6.050  -1.737 122.289  0.00  0.00    +0.000 C 
ENDROOT
BRANCH   3   9
ATOM      9  C   UNL     1      -8.045  -2.181 126.787  0.00  0.00    +0.000 A 
ATOM     10  C   UNL     1      -7.525  -1.468 127.871  0.00  0.00    +0.000 A 
ATOM     11  C   UNL     1      -7.631  -1.984 129.159  0.00  0.00    +0.000 A 
ATOM     12  C   UNL     1      -8.324  -3.175 129.372  0.00  0.00    +0.000 A 
ATOM     13  C   UNL     1      -8.877  -3.871 128.297  0.00  0.00    +0.000 A 
ATOM     14  C   UNL     1      -8.745  -3.370 127.002  0.00  0.00    +0.000 A 
ENDBRANCH   3   9
TORSDOF 1
ENDMDL
MODEL 6
REMARK VINA RESULT:      -5.5      9.382     10.770
REMARK  Name = Antipyrine
REMARK  3 active torsions:
REMARK  status: ('A' for Active; 'I' for Inactive)
REMARK    1  A    between atoms: C_1  and  N_2
REMARK    2  A    between atoms: N_3  and  C_9
REMARK    3  A    between atoms: C_7  and  C_8
REMARK                            x       y       z     vdW  Elec       q    Type
REMARK                         _______ _______ _______ _____ _____    ______ ____
ROOT
ATOM      1  C   UNL     1      -9.379  -0.181 125.823  0.00  0.00    +0.000 C 
ATOM      2  N   UNL     1      -8.918  -1.242 124.953  0.00  0.00    +0.000 N 
ATOM      3  N   UNL     1      -8.223  -2.377 125.386  0.00  0.00    +0.000 N 
ATOM      4  C   UNL     1      -7.741  -3.057 124.274  0.00  0.00    +0.000 A 
ATOM      5  O   UNL     1      -7.082  -4.084 124.203  0.00  0.00    +0.000 OA
ATOM      6  C   UNL     1      -8.230  -2.311 123.089  0.00  0.00    +0.000 A 
ATOM      7  C   UNL     1      -8.879  -1.240 123.569  0.00  0.00    +0.000 A 
ATOM      8  C   UNL     1      -9.522  -0.171 122.756  0.00  0.00    +0.000 C 
ENDROOT
BRANCH   3   9
ATOM      9  C   UNL     1      -7.903  -2.635 126.720  0.00  0.00    +0.000 A 
ATOM     10  C   UNL     1      -8.771  -3.399 127.506  0.00  0.00    +0.000 A 
ATOM     11  C   UNL     1      -8.509  -3.577 128.861  0.00  0.00    +0.000 A 
ATOM     12  C   UNL     1      -7.339  -3.058 129.413  0.00  0.00    +0.000 A 
ATOM     13  C   UNL     1      -6.451  -2.327 128.623  0.00  0.00    +0.000 A 
ATOM     14  C   UNL     1      -6.727  -2.122 127.273  0.00  0.00    +0.000 A 
ENDBRANCH   3   9
TORSDOF 1
ENDMDL
MODEL 7
REMARK VINA RESULT:      -5.5      8.077      9.938
REMARK  Name = Antipyrine
REMARK  3 active torsions:
REMARK  status: ('A' for Active; 'I' for Inactive)
REMARK    1  A    between atoms: C_1  and  N_2
REMARK    2  A    between atoms: N_3  and  C_9
REMARK    3  A    between atoms: C_7  and  C_8
REMARK                            x       y       z     vdW  Elec       q    Type
REMARK                         _______ _______ _______ _____ _____    ______ ____
ROOT
ATOM      1  C   UNL     1      -7.060   0.325 123.130  0.00  0.00    +0.000 C 
ATOM      2  N   UNL     1      -6.775   1.457 123.985  0.00  0.00    +0.000 N 
ATOM      3  N   UNL     1      -6.803   2.793 123.568  0.00  0.00    +0.000 N 
ATOM      4  C   UNL     1      -6.258   3.585 124.571  0.00  0.00    +0.000 A 
ATOM      5  O   UNL     1      -6.088   4.795 124.615  0.00  0.00    +0.000 OA
ATOM      6  C   UNL     1      -5.934   2.670 125.692  0.00  0.00    +0.000 A 
ATOM      7  C   UNL     1      -6.230   1.435 125.257  0.00  0.00    +0.000 A 
ATOM      8  C   UNL     1      -6.044   0.172 126.022  0.00  0.00    +0.000 C 
ENDROOT
BRANCH   3   9
ATOM      9  C   UNL     1      -7.129   3.201 122.274  0.00  0.00    +0.000 A 
ATOM     10  C   UNL     1      -6.111   3.506 121.366  0.00  0.00    +0.000 A 
ATOM     11  C   UNL     1      -6.428   4.008 120.107  0.00  0.00    +0.000 A 
ATOM     12  C   UNL     1      -7.764   4.130 119.728  0.00  0.00    +0.000 A 
ATOM     13  C   UNL     1      -8.783   3.791 120.618  0.00  0.00    +0.000 A 
ATOM     14  C   UNL     1      -8.467   3.318 121.890  0.00  0.00    +0.000 A 
ENDBRANCH   3   9
TORSDOF 1
ENDMDL
MODEL 8
REMARK VINA RESULT:      -5.5      2.589      5.064
REMARK  Name = Antipyrine
REMARK  3 active torsions:
REMARK  status: ('A' for Active; 'I' for Inactive)
REMARK    1  A    between atoms: C_1  and  N_2
REMARK    2  A    between atoms: N_3  and  C_9
REMARK    3  A    between atoms: C_7  and  C_8
REMARK                            x       y       z     vdW  Elec       q    Type
REMARK                         _______ _______ _______ _____ _____    ______ ____
ROOT
ATOM      1  C   UNL     1     -10.254   3.297 130.358  0.00  0.00    +0.000 C 
ATOM      2  N   UNL     1      -9.771   3.810 131.621  0.00  0.00    +0.000 N 
ATOM      3  N   UNL     1      -9.859   5.150 132.019  0.00  0.00    +0.000 N 
ATOM      4  C   UNL     1      -9.099   5.324 133.169  0.00  0.00    +0.000 A 
ATOM      5  O   UNL     1      -8.898   6.330 133.835  0.00  0.00    +0.000 OA
ATOM      6  C   UNL     1      -8.565   3.986 133.520  0.00  0.00    +0.000 A 
ATOM      7  C   UNL     1      -8.971   3.160 132.545  0.00  0.00    +0.000 A 
ATOM      8  C   UNL     1      -8.655   1.708 132.441  0.00  0.00    +0.000 C 
ENDROOT
BRANCH   3   9
ATOM      9  C   UNL     1     -10.442   6.156 131.248  0.00  0.00    +0.000 A 
ATOM     10  C   UNL     1     -11.784   6.492 131.448  0.00  0.00    +0.000 A 
ATOM     11  C   UNL     1     -12.400   7.424 130.617  0.00  0.00    +0.000 A 
ATOM     12  C   UNL     1     -11.653   8.078 129.638  0.00  0.00    +0.000 A 
ATOM     13  C   UNL     1     -10.303   7.773 129.461  0.00  0.00    +0.000 A 
ATOM     14  C   UNL     1      -9.693   6.817 130.271  0.00  0.00    +0.000 A 
ENDBRANCH   3   9
TORSDOF 1
ENDMDL
MODEL 9
REMARK VINA RESULT:      -5.4      8.552     10.090
REMARK  Name = Antipyrine
REMARK  3 active torsions:
REMARK  status: ('A' for Active; 'I' for Inactive)
REMARK    1  A    between atoms: C_1  and  N_2
REMARK    2  A    between atoms: N_3  and  C_9
REMARK    3  A    between atoms: C_7  and  C_8
REMARK                            x       y       z     vdW  Elec       q    Type
REMARK                         _______ _______ _______ _____ _____    ______ ____
ROOT
ATOM      1  C   UNL     1      -6.582   1.178 125.388  0.00  0.00    +0.000 C 
ATOM      2  N   UNL     1      -7.834   1.106 124.666  0.00  0.00    +0.000 N 
ATOM      3  N   UNL     1      -8.301  -0.035 124.001  0.00  0.00    +0.000 N 
ATOM      4  C   UNL     1      -9.404   0.317 123.234  0.00  0.00    +0.000 A 
ATOM      5  O   UNL     1     -10.104  -0.367 122.500  0.00  0.00    +0.000 OA
ATOM      6  C   UNL     1      -9.654   1.754 123.501  0.00  0.00    +0.000 A 
ATOM      7  C   UNL     1      -8.669   2.153 124.319  0.00  0.00    +0.000 A 
ATOM      8  C   UNL     1      -8.474   3.533 124.843  0.00  0.00    +0.000 C 
ENDROOT
BRANCH   3   9
ATOM      9  C   UNL     1      -7.620  -1.253 123.968  0.00  0.00    +0.000 A 
ATOM     10  C   UNL     1      -8.106  -2.338 124.705  0.00  0.00    +0.000 A 
ATOM     11  C   UNL     1      -7.380  -3.524 124.756  0.00  0.00    +0.000 A 
ATOM     12  C   UNL     1      -6.210  -3.653 124.009  0.00  0.00    +0.000 A 
ATOM     13  C   UNL     1      -5.743  -2.585 123.242  0.00  0.00    +0.000 A 
ATOM     14  C   UNL     1      -6.452  -1.385 123.214  0.00  0.00    +0.000 A 
ENDBRANCH   3   9
TORSDOF 1
ENDMDL
