MODEL 1
REMARK VINA RESULT:     -11.4      0.000      0.000
REMARK  Name = Antrafenine
REMARK  10 active torsions:
REMARK  status: ('A' for Active; 'I' for Inactive)
REMARK    1  A    between atoms: C_2  and  C_5
REMARK    2  A    between atoms: C_7  and  N_11
REMARK    3  A    between atoms: N_14  and  C_15
REMARK    4  A    between atoms: C_15  and  C_16
REMARK    5  A    between atoms: C_16  and  O_17
REMARK    6  A    between atoms: O_17  and  C_18
REMARK    7  A    between atoms: C_18  and  C_20
REMARK    8  A    between atoms: C_25  and  N_26
REMARK    9  A    between atoms: N_26  and  C_27
REMARK   10  A    between atoms: C_31  and  C_37
REMARK                            x       y       z     vdW  Elec       q    Type
REMARK                         _______ _______ _______ _____ _____    ______ ____
ROOT
ATOM      1  C   UNL     1      -6.941  -2.942 132.302  0.00  0.00    +0.000 A 
ATOM      2  C   UNL     1      -5.908  -3.721 132.858  0.00  0.00    +0.000 A 
ATOM      3  C   UNL     1      -5.118  -4.584 132.084  0.00  0.00    +0.000 A 
ATOM      4  C   UNL     1      -5.376  -4.791 130.738  0.00  0.00    +0.000 A 
ATOM      5  C   UNL     1      -6.394  -4.090 130.133  0.00  0.00    +0.000 A 
ATOM      6  C   UNL     1      -7.186  -3.162 130.850  0.00  0.00    +0.000 A 
ENDROOT
BRANCH   1   7
ATOM      7  C   UNL     1      -7.288  -1.765 133.364  0.00  0.00    +0.000 C 
ATOM      8  O   UNL     1      -6.904  -1.929 134.524  0.00  0.00    +0.000 OA
BRANCH   7   9
ATOM      9  O   UNL     1      -7.885  -0.560 132.965  0.00  0.00    +0.000 OA
BRANCH   9  10
ATOM     10  C   UNL     1      -7.049   0.654 132.337  0.00  0.00    +0.000 C 
BRANCH  10  11
ATOM     11  C   UNL     1      -7.972   2.128 131.965  0.00  0.00    +0.000 C 
BRANCH  11  15
ATOM     12  N   UNL     1      -9.334   4.843 131.405  0.00  0.00    +0.000 N 
ATOM     13  C   UNL     1      -8.678   4.810 132.710  0.00  0.00    +0.000 C 
ATOM     14  C   UNL     1      -9.203   3.599 133.497  0.00  0.00    +0.000 C 
ATOM     15  N   UNL     1      -9.236   2.322 132.683  0.00  0.00    +0.000 NA
ATOM     16  C   UNL     1     -10.093   2.477 131.523  0.00  0.00    +0.000 C 
ATOM     17  C   UNL     1      -9.564   3.622 130.623  0.00  0.00    +0.000 C 
BRANCH  12  20
ATOM     18  C   UNL     1     -10.922   7.434 129.494  0.00  0.00    +0.000 A 
ATOM     19  C   UNL     1      -9.921   6.627 130.004  0.00  0.00    +0.000 A 
ATOM     20  C   UNL     1     -10.161   5.899 131.160  0.00  0.00    +0.000 A 
ATOM     21  C   UNL     1     -11.287   6.141 131.940  0.00  0.00    +0.000 A 
ATOM     22  C   UNL     1     -12.256   7.014 131.485  0.00  0.00    +0.000 A 
ATOM     23  C   UNL     1     -12.082   7.641 130.254  0.00  0.00    +0.000 A 
BRANCH  18  25
ATOM     24  F   UNL     1     -11.985   8.339 127.572  0.00  0.00    +0.000 F 
ATOM     25  C   UNL     1     -10.786   8.005 128.117  0.00  0.00    +0.000 C 
ATOM     26  F   UNL     1     -10.201   7.130 127.254  0.00  0.00    +0.000 F 
ATOM     27  F   UNL     1     -10.021   9.134 128.072  0.00  0.00    +0.000 F 
ENDBRANCH  18  25
ENDBRANCH  12  20
ENDBRANCH  11  15
ENDBRANCH  10  11
ENDBRANCH   9  10
ENDBRANCH   7   9
ENDBRANCH   1   7
BRANCH   6  28
ATOM     28  N   UNL     1      -8.071  -2.523 129.912  0.00  0.00    +0.000 N 
ATOM     29  H   UNL     1      -9.064  -2.510 130.105  0.00  0.00    +0.000 HD
BRANCH  28  30
ATOM     30  C   UNL     1      -7.752  -2.030 128.700  0.00  0.00    +0.000 A 
ATOM     31  C   UNL     1      -8.172  -2.264 127.384  0.00  0.00    +0.000 A 
ATOM     32  C   UNL     1      -8.878  -3.328 126.929  0.00  0.00    +0.000 A 
ATOM     33  C   UNL     1      -9.013  -3.397 125.551  0.00  0.00    +0.000 A 
ATOM     34  C   UNL     1      -8.721  -2.326 124.661  0.00  0.00    +0.000 A 
ATOM     35  C   UNL     1      -8.096  -1.210 125.127  0.00  0.00    +0.000 A 
ATOM     36  C   UNL     1      -7.853  -1.265 126.450  0.00  0.00    +0.000 A 
ATOM     37  N   UNL     1      -7.444  -0.174 126.970  0.00  0.00    +0.000 NA
ATOM     38  C   UNL     1      -7.863  -0.139 128.178  0.00  0.00    +0.000 A 
ATOM     39  C   UNL     1      -7.036  -0.938 128.746  0.00  0.00    +0.000 A 
BRANCH  34  40
ATOM     40  C   UNL     1      -9.093  -2.411 123.227  0.00  0.00    +0.000 C 
ATOM     41  F   UNL     1      -7.998  -2.629 122.461  0.00  0.00    +0.000 F 
ATOM     42  F   UNL     1      -9.947  -3.444 123.012  0.00  0.00    +0.000 F 
ATOM     43  F   UNL     1      -9.709  -1.303 122.730  0.00  0.00    +0.000 F 
ENDBRANCH  34  40
ENDBRANCH  28  30
ENDBRANCH   6  28
TORSDOF 10
ENDMDL
MODEL 2
REMARK VINA RESULT:     -11.3      3.789      5.040
REMARK  Name = Antrafenine
REMARK  10 active torsions:
REMARK  status: ('A' for Active; 'I' for Inactive)
REMARK    1  A    between atoms: C_2  and  C_5
REMARK    2  A    between atoms: C_7  and  N_11
REMARK    3  A    between atoms: N_14  and  C_15
REMARK    4  A    between atoms: C_15  and  C_16
REMARK    5  A    between atoms: C_16  and  O_17
REMARK    6  A    between atoms: O_17  and  C_18
REMARK    7  A    between atoms: C_18  and  C_20
REMARK    8  A    between atoms: C_25  and  N_26
REMARK    9  A    between atoms: N_26  and  C_27
REMARK   10  A    between atoms: C_31  and  C_37
REMARK                            x       y       z     vdW  Elec       q    Type
REMARK                         _______ _______ _______ _____ _____    ______ ____
ROOT
ATOM      1  C   UNL     1      -6.802  -2.776 131.956  0.00  0.00    +0.000 A 
ATOM      2  C   UNL     1      -6.760  -3.646 133.062  0.00  0.00    +0.000 A 
ATOM      3  C   UNL     1      -5.998  -4.824 133.063  0.00  0.00    +0.000 A 
ATOM      4  C   UNL     1      -5.316  -5.248 131.933  0.00  0.00    +0.000 A 
ATOM      5  C   UNL     1      -5.341  -4.466 130.801  0.00  0.00    +0.000 A 
ATOM      6  C   UNL     1      -6.044  -3.238 130.759  0.00  0.00    +0.000 A 
ENDROOT
BRANCH   1   7
ATOM      7  C   UNL     1      -7.367  -1.348 132.479  0.00  0.00    +0.000 C 
ATOM      8  O   UNL     1      -7.516  -1.221 133.697  0.00  0.00    +0.000 OA
BRANCH   7   9
ATOM      9  O   UNL     1      -7.561  -0.264 131.611  0.00  0.00    +0.000 OA
BRANCH   9  10
ATOM     10  C   UNL     1      -6.347   0.569 130.981  0.00  0.00    +0.000 C 
BRANCH  10  11
ATOM     11  C   UNL     1      -6.540   1.072 129.286  0.00  0.00    +0.000 C 
BRANCH  11  15
ATOM     12  N   UNL     1      -7.470   1.606 126.390  0.00  0.00    +0.000 N 
ATOM     13  C   UNL     1      -6.144   2.157 126.657  0.00  0.00    +0.000 C 
ATOM     14  C   UNL     1      -6.226   3.068 127.892  0.00  0.00    +0.000 C 
ATOM     15  N   UNL     1      -6.987   2.447 129.045  0.00  0.00    +0.000 NA
ATOM     16  C   UNL     1      -8.349   2.140 128.654  0.00  0.00    +0.000 C 
ATOM     17  C   UNL     1      -8.348   1.140 127.471  0.00  0.00    +0.000 C 
BRANCH  12  20
ATOM     18  C   UNL     1      -7.698   2.837 123.025  0.00  0.00    +0.000 A 
ATOM     19  C   UNL     1      -7.314   2.751 124.352  0.00  0.00    +0.000 A 
ATOM     20  C   UNL     1      -8.072   1.988 125.227  0.00  0.00    +0.000 A 
ATOM     21  C   UNL     1      -9.325   1.508 124.862  0.00  0.00    +0.000 A 
ATOM     22  C   UNL     1      -9.761   1.664 123.561  0.00  0.00    +0.000 A 
ATOM     23  C   UNL     1      -8.938   2.308 122.641  0.00  0.00    +0.000 A 
BRANCH  18  25
ATOM     24  F   UNL     1      -5.947   4.370 122.546  0.00  0.00    +0.000 F 
ATOM     25  C   UNL     1      -6.757   3.417 122.016  0.00  0.00    +0.000 C 
ATOM     26  F   UNL     1      -7.415   4.005 120.979  0.00  0.00    +0.000 F 
ATOM     27  F   UNL     1      -5.933   2.489 121.449  0.00  0.00    +0.000 F 
ENDBRANCH  18  25
ENDBRANCH  12  20
ENDBRANCH  11  15
ENDBRANCH  10  11
ENDBRANCH   9  10
ENDBRANCH   7   9
ENDBRANCH   1   7
BRANCH   6  28
ATOM     28  N   UNL     1      -5.775  -2.620 129.488  0.00  0.00    +0.000 N 
ATOM     29  H   UNL     1      -4.854  -2.241 129.312  0.00  0.00    +0.000 HD
BRANCH  28  30
ATOM     30  C   UNL     1      -6.662  -2.355 128.509  0.00  0.00    +0.000 A 
ATOM     31  C   UNL     1      -6.584  -2.090 127.136  0.00  0.00    +0.000 A 
ATOM     32  C   UNL     1      -5.480  -1.738 126.433  0.00  0.00    +0.000 A 
ATOM     33  C   UNL     1      -5.715  -1.367 125.118  0.00  0.00    +0.000 A 
ATOM     34  C   UNL     1      -6.935  -1.600 124.423  0.00  0.00    +0.000 A 
ATOM     35  C   UNL     1      -8.026  -2.046 125.104  0.00  0.00    +0.000 A 
ATOM     36  C   UNL     1      -7.778  -2.244 126.412  0.00  0.00    +0.000 A 
ATOM     37  N   UNL     1      -8.707  -2.838 127.055  0.00  0.00    +0.000 NA
ATOM     38  C   UNL     1      -8.158  -3.517 127.990  0.00  0.00    +0.000 A 
ATOM     39  C   UNL     1      -7.903  -2.595 128.843  0.00  0.00    +0.000 A 
BRANCH  34  40
ATOM     40  C   UNL     1      -7.031  -1.365 122.962  0.00  0.00    +0.000 C 
ATOM     41  F   UNL     1      -6.710  -0.084 122.661  0.00  0.00    +0.000 F 
ATOM     42  F   UNL     1      -6.165  -2.165 122.288  0.00  0.00    +0.000 F 
ATOM     43  F   UNL     1      -8.259  -1.601 122.424  0.00  0.00    +0.000 F 
ENDBRANCH  34  40
ENDBRANCH  28  30
ENDBRANCH   6  28
TORSDOF 10
ENDMDL
MODEL 3
REMARK VINA RESULT:     -11.2      1.842      9.580
REMARK  Name = Antrafenine
REMARK  10 active torsions:
REMARK  status: ('A' for Active; 'I' for Inactive)
REMARK    1  A    between atoms: C_2  and  C_5
REMARK    2  A    between atoms: C_7  and  N_11
REMARK    3  A    between atoms: N_14  and  C_15
REMARK    4  A    between atoms: C_15  and  C_16
REMARK    5  A    between atoms: C_16  and  O_17
REMARK    6  A    between atoms: O_17  and  C_18
REMARK    7  A    between atoms: C_18  and  C_20
REMARK    8  A    between atoms: C_25  and  N_26
REMARK    9  A    between atoms: N_26  and  C_27
REMARK   10  A    between atoms: C_31  and  C_37
REMARK                            x       y       z     vdW  Elec       q    Type
REMARK                         _______ _______ _______ _____ _____    ______ ____
ROOT
ATOM      1  C   UNL     1      -7.279   2.833 133.422  0.00  0.00    +0.000 A 
ATOM      2  C   UNL     1      -6.338   3.267 134.374  0.00  0.00    +0.000 A 
ATOM      3  C   UNL     1      -6.594   4.330 135.254  0.00  0.00    +0.000 A 
ATOM      4  C   UNL     1      -7.759   5.077 135.169  0.00  0.00    +0.000 A 
ATOM      5  C   UNL     1      -8.711   4.733 134.237  0.00  0.00    +0.000 A 
ATOM      6  C   UNL     1      -8.533   3.635 133.362  0.00  0.00    +0.000 A 
ENDROOT
BRANCH   1   7
ATOM      7  C   UNL     1      -6.840   1.346 132.945  0.00  0.00    +0.000 C 
ATOM      8  O   UNL     1      -5.696   1.219 132.501  0.00  0.00    +0.000 OA
BRANCH   7   9
ATOM      9  O   UNL     1      -7.667   0.230 133.140  0.00  0.00    +0.000 OA
BRANCH   9  10
ATOM     10  C   UNL     1      -7.308  -1.223 132.570  0.00  0.00    +0.000 C 
BRANCH  10  11
ATOM     11  C   UNL     1      -7.512  -1.447 130.817  0.00  0.00    +0.000 C 
BRANCH  11  15
ATOM     12  N   UNL     1      -8.179  -2.113 127.876  0.00  0.00    +0.000 N 
ATOM     13  C   UNL     1      -8.284  -3.281 128.747  0.00  0.00    +0.000 C 
ATOM     14  C   UNL     1      -6.960  -3.450 129.509  0.00  0.00    +0.000 C 
ATOM     15  N   UNL     1      -6.443  -2.158 130.107  0.00  0.00    +0.000 NA
ATOM     16  C   UNL     1      -6.212  -1.171 129.071  0.00  0.00    +0.000 C 
ATOM     17  C   UNL     1      -7.534  -0.871 128.320  0.00  0.00    +0.000 C 
BRANCH  12  20
ATOM     18  C   UNL     1      -6.895  -2.740 124.582  0.00  0.00    +0.000 A 
ATOM     19  C   UNL     1      -7.035  -2.163 125.832  0.00  0.00    +0.000 A 
ATOM     20  C   UNL     1      -8.218  -2.342 126.532  0.00  0.00    +0.000 A 
ATOM     21  C   UNL     1      -9.343  -2.880 125.916  0.00  0.00    +0.000 A 
ATOM     22  C   UNL     1      -9.242  -3.381 124.634  0.00  0.00    +0.000 A 
ATOM     23  C   UNL     1      -8.014  -3.330 123.978  0.00  0.00    +0.000 A 
BRANCH  18  25
ATOM     24  F   UNL     1      -4.659  -1.941 124.509  0.00  0.00    +0.000 F 
ATOM     25  C   UNL     1      -5.547  -2.795 123.935  0.00  0.00    +0.000 C 
ATOM     26  F   UNL     1      -5.598  -2.467 122.615  0.00  0.00    +0.000 F 
ATOM     27  F   UNL     1      -4.973  -4.031 123.985  0.00  0.00    +0.000 F 
ENDBRANCH  18  25
ENDBRANCH  12  20
ENDBRANCH  11  15
ENDBRANCH  10  11
ENDBRANCH   9  10
ENDBRANCH   7   9
ENDBRANCH   1   7
BRANCH   6  28
ATOM     28  N   UNL     1      -9.746   3.476 132.605  0.00  0.00    +0.000 N 
ATOM     29  H   UNL     1     -10.416   2.775 132.891  0.00  0.00    +0.000 HD
BRANCH  28  30
ATOM     30  C   UNL     1     -10.062   4.077 131.441  0.00  0.00    +0.000 A 
ATOM     31  C   UNL     1     -10.716   5.260 131.073  0.00  0.00    +0.000 A 
ATOM     32  C   UNL     1     -11.501   6.038 131.857  0.00  0.00    +0.000 A 
ATOM     33  C   UNL     1     -12.164   7.060 131.195  0.00  0.00    +0.000 A 
ATOM     34  C   UNL     1     -11.858   7.492 129.874  0.00  0.00    +0.000 A 
ATOM     35  C   UNL     1     -10.995   6.769 129.109  0.00  0.00    +0.000 A 
ATOM     36  C   UNL     1     -10.498   5.698 129.756  0.00  0.00    +0.000 A 
ATOM     37  N   UNL     1      -9.546   5.098 129.155  0.00  0.00    +0.000 NA
ATOM     38  C   UNL     1      -8.778   4.598 130.048  0.00  0.00    +0.000 A 
ATOM     39  C   UNL     1      -9.454   3.568 130.402  0.00  0.00    +0.000 A 
BRANCH  34  40
ATOM     40  C   UNL     1     -12.469   8.725 129.321  0.00  0.00    +0.000 C 
ATOM     41  F   UNL     1     -11.615   9.343 128.471  0.00  0.00    +0.000 F 
ATOM     42  F   UNL     1     -13.594   8.432 128.619  0.00  0.00    +0.000 F 
ATOM     43  F   UNL     1     -12.836   9.648 130.252  0.00  0.00    +0.000 F 
ENDBRANCH  34  40
ENDBRANCH  28  30
ENDBRANCH   6  28
TORSDOF 10
ENDMDL
MODEL 4
REMARK VINA RESULT:     -11.0      3.414      4.582
REMARK  Name = Antrafenine
REMARK  10 active torsions:
REMARK  status: ('A' for Active; 'I' for Inactive)
REMARK    1  A    between atoms: C_2  and  C_5
REMARK    2  A    between atoms: C_7  and  N_11
REMARK    3  A    between atoms: N_14  and  C_15
REMARK    4  A    between atoms: C_15  and  C_16
REMARK    5  A    between atoms: C_16  and  O_17
REMARK    6  A    between atoms: O_17  and  C_18
REMARK    7  A    between atoms: C_18  and  C_20
REMARK    8  A    between atoms: C_25  and  N_26
REMARK    9  A    between atoms: N_26  and  C_27
REMARK   10  A    between atoms: C_31  and  C_37
REMARK                            x       y       z     vdW  Elec       q    Type
REMARK                         _______ _______ _______ _____ _____    ______ ____
ROOT
ATOM      1  C   UNL     1      -7.651  -0.570 128.538  0.00  0.00    +0.000 A 
ATOM      2  C   UNL     1      -7.743  -1.968 128.409  0.00  0.00    +0.000 A 
ATOM      3  C   UNL     1      -8.158  -2.588 127.220  0.00  0.00    +0.000 A 
ATOM      4  C   UNL     1      -8.594  -1.848 126.131  0.00  0.00    +0.000 A 
ATOM      5  C   UNL     1      -8.566  -0.474 126.198  0.00  0.00    +0.000 A 
ATOM      6  C   UNL     1      -8.102   0.206 127.349  0.00  0.00    +0.000 A 
ENDROOT
BRANCH   1   7
ATOM      7  C   UNL     1      -6.716  -0.260 129.827  0.00  0.00    +0.000 C 
ATOM      8  O   UNL     1      -6.734  -1.089 130.741  0.00  0.00    +0.000 OA
BRANCH   7   9
ATOM      9  O   UNL     1      -5.831   0.828 129.858  0.00  0.00    +0.000 OA
BRANCH   9  10
ATOM     10  C   UNL     1      -5.888   1.959 130.991  0.00  0.00    +0.000 C 
BRANCH  10  11
ATOM     11  C   UNL     1      -7.176   3.175 130.816  0.00  0.00    +0.000 C 
BRANCH  11  15
ATOM     12  N   UNL     1      -9.179   5.521 130.952  0.00  0.00    +0.000 N 
ATOM     13  C   UNL     1      -8.707   5.117 132.275  0.00  0.00    +0.000 C 
ATOM     14  C   UNL     1      -8.956   3.610 132.450  0.00  0.00    +0.000 C 
ATOM     15  N   UNL     1      -8.521   2.788 131.254  0.00  0.00    +0.000 NA
ATOM     16  C   UNL     1      -9.236   3.200 130.062  0.00  0.00    +0.000 C 
ATOM     17  C   UNL     1      -8.951   4.693 129.762  0.00  0.00    +0.000 C 
BRANCH  12  20
ATOM     18  C   UNL     1     -11.600   7.731 129.489  0.00  0.00    +0.000 A 
ATOM     19  C   UNL     1     -10.376   7.150 129.768  0.00  0.00    +0.000 A 
ATOM     20  C   UNL     1     -10.237   6.380 130.913  0.00  0.00    +0.000 A 
ATOM     21  C   UNL     1     -11.219   6.375 131.899  0.00  0.00    +0.000 A 
ATOM     22  C   UNL     1     -12.415   7.026 131.671  0.00  0.00    +0.000 A 
ATOM     23  C   UNL     1     -12.611   7.684 130.460  0.00  0.00    +0.000 A 
BRANCH  18  25
ATOM     24  F   UNL     1     -12.401   7.437 127.272  0.00  0.00    +0.000 F 
ATOM     25  C   UNL     1     -11.850   8.327 128.139  0.00  0.00    +0.000 C 
ATOM     26  F   UNL     1     -10.705   8.775 127.556  0.00  0.00    +0.000 F 
ATOM     27  F   UNL     1     -12.692   9.400 128.169  0.00  0.00    +0.000 F 
ENDBRANCH  18  25
ENDBRANCH  12  20
ENDBRANCH  11  15
ENDBRANCH  10  11
ENDBRANCH   9  10
ENDBRANCH   7   9
ENDBRANCH   1   7
BRANCH   6  28
ATOM     28  N   UNL     1      -8.092   1.614 127.054  0.00  0.00    +0.000 N 
ATOM     29  H   UNL     1      -8.928   2.158 127.223  0.00  0.00    +0.000 HD
BRANCH  28  30
ATOM     30  C   UNL     1      -7.115   2.307 126.437  0.00  0.00    +0.000 A 
ATOM     31  C   UNL     1      -6.819   2.653 125.112  0.00  0.00    +0.000 A 
ATOM     32  C   UNL     1      -7.342   2.105 123.988  0.00  0.00    +0.000 A 
ATOM     33  C   UNL     1      -6.749   2.515 122.804  0.00  0.00    +0.000 A 
ATOM     34  C   UNL     1      -5.872   3.630 122.689  0.00  0.00    +0.000 A 
ATOM     35  C   UNL     1      -5.416   4.250 123.811  0.00  0.00    +0.000 A 
ATOM     36  C   UNL     1      -5.909   3.709 124.941  0.00  0.00    +0.000 A 
ATOM     37  N   UNL     1      -5.665   4.368 126.007  0.00  0.00    +0.000 NA
ATOM     38  C   UNL     1      -6.639   4.176 126.812  0.00  0.00    +0.000 A 
ATOM     39  C   UNL     1      -6.366   3.003 127.252  0.00  0.00    +0.000 A 
BRANCH  34  40
ATOM     40  C   UNL     1      -5.451   4.127 121.356  0.00  0.00    +0.000 C 
ATOM     41  F   UNL     1      -6.528   4.488 120.617  0.00  0.00    +0.000 F 
ATOM     42  F   UNL     1      -4.661   5.224 121.479  0.00  0.00    +0.000 F 
ATOM     43  F   UNL     1      -4.742   3.234 120.611  0.00  0.00    +0.000 F 
ENDBRANCH  34  40
ENDBRANCH  28  30
ENDBRANCH   6  28
TORSDOF 10
ENDMDL
MODEL 5
REMARK VINA RESULT:     -10.8      1.687      9.561
REMARK  Name = Antrafenine
REMARK  10 active torsions:
REMARK  status: ('A' for Active; 'I' for Inactive)
REMARK    1  A    between atoms: C_2  and  C_5
REMARK    2  A    between atoms: C_7  and  N_11
REMARK    3  A    between atoms: N_14  and  C_15
REMARK    4  A    between atoms: C_15  and  C_16
REMARK    5  A    between atoms: C_16  and  O_17
REMARK    6  A    between atoms: O_17  and  C_18
REMARK    7  A    between atoms: C_18  and  C_20
REMARK    8  A    between atoms: C_25  and  N_26
REMARK    9  A    between atoms: N_26  and  C_27
REMARK   10  A    between atoms: C_31  and  C_37
REMARK                            x       y       z     vdW  Elec       q    Type
REMARK                         _______ _______ _______ _____ _____    ______ ____
ROOT
ATOM      1  C   UNL     1      -7.363   2.673 133.513  0.00  0.00    +0.000 A 
ATOM      2  C   UNL     1      -6.385   3.097 134.432  0.00  0.00    +0.000 A 
ATOM      3  C   UNL     1      -6.548   4.242 135.227  0.00  0.00    +0.000 A 
ATOM      4  C   UNL     1      -7.645   5.077 135.082  0.00  0.00    +0.000 A 
ATOM      5  C   UNL     1      -8.626   4.743 134.176  0.00  0.00    +0.000 A 
ATOM      6  C   UNL     1      -8.545   3.571 133.388  0.00  0.00    +0.000 A 
ENDROOT
BRANCH   1   7
ATOM      7  C   UNL     1      -7.052   1.121 133.153  0.00  0.00    +0.000 C 
ATOM      8  O   UNL     1      -5.985   0.658 133.560  0.00  0.00    +0.000 OA
BRANCH   7   9
ATOM      9  O   UNL     1      -7.999   0.304 132.519  0.00  0.00    +0.000 OA
BRANCH   9  10
ATOM     10  C   UNL     1      -7.718  -1.233 132.165  0.00  0.00    +0.000 C 
BRANCH  10  11
ATOM     11  C   UNL     1      -7.150  -1.563 130.512  0.00  0.00    +0.000 C 
BRANCH  11  15
ATOM     12  N   UNL     1      -6.957  -1.995 127.460  0.00  0.00    +0.000 N 
ATOM     13  C   UNL     1      -8.283  -2.317 127.983  0.00  0.00    +0.000 C 
ATOM     14  C   UNL     1      -8.130  -3.336 129.124  0.00  0.00    +0.000 C 
ATOM     15  N   UNL     1      -7.042  -2.970 130.113  0.00  0.00    +0.000 NA
ATOM     16  C   UNL     1      -5.756  -2.882 129.449  0.00  0.00    +0.000 C 
ATOM     17  C   UNL     1      -5.803  -1.796 128.344  0.00  0.00    +0.000 C 
BRANCH  12  20
ATOM     18  C   UNL     1      -7.591  -2.537 123.968  0.00  0.00    +0.000 A 
ATOM     19  C   UNL     1      -7.785  -2.545 125.338  0.00  0.00    +0.000 A 
ATOM     20  C   UNL     1      -6.694  -2.374 126.177  0.00  0.00    +0.000 A 
ATOM     21  C   UNL     1      -5.394  -2.434 125.685  0.00  0.00    +0.000 A 
ATOM     22  C   UNL     1      -5.184  -2.515 124.323  0.00  0.00    +0.000 A 
ATOM     23  C   UNL     1      -6.282  -2.545 123.467  0.00  0.00    +0.000 A 
BRANCH  18  25
ATOM     24  F   UNL     1      -9.583  -3.527 123.133  0.00  0.00    +0.000 F 
ATOM     25  C   UNL     1      -8.770  -2.441 123.052  0.00  0.00    +0.000 C 
ATOM     26  F   UNL     1      -8.399  -2.336 121.746  0.00  0.00    +0.000 F 
ATOM     27  F   UNL     1      -9.560  -1.356 123.297  0.00  0.00    +0.000 F 
ENDBRANCH  18  25
ENDBRANCH  12  20
ENDBRANCH  11  15
ENDBRANCH  10  11
ENDBRANCH   9  10
ENDBRANCH   7   9
ENDBRANCH   1   7
BRANCH   6  28
ATOM     28  N   UNL     1      -9.770   3.457 132.641  0.00  0.00    +0.000 N 
ATOM     29  H   UNL     1     -10.468   2.790 132.942  0.00  0.00    +0.000 HD
BRANCH  28  30
ATOM     30  C   UNL     1     -10.067   4.057 131.472  0.00  0.00    +0.000 A 
ATOM     31  C   UNL     1     -10.721   5.235 131.092  0.00  0.00    +0.000 A 
ATOM     32  C   UNL     1     -11.526   6.008 131.862  0.00  0.00    +0.000 A 
ATOM     33  C   UNL     1     -12.182   7.027 131.188  0.00  0.00    +0.000 A 
ATOM     34  C   UNL     1     -11.853   7.462 129.873  0.00  0.00    +0.000 A 
ATOM     35  C   UNL     1     -10.972   6.744 129.124  0.00  0.00    +0.000 A 
ATOM     36  C   UNL     1     -10.481   5.676 129.780  0.00  0.00    +0.000 A 
ATOM     37  N   UNL     1      -9.514   5.081 129.197  0.00  0.00    +0.000 NA
ATOM     38  C   UNL     1      -8.760   4.586 130.104  0.00  0.00    +0.000 A 
ATOM     39  C   UNL     1      -9.437   3.551 130.445  0.00  0.00    +0.000 A 
BRANCH  34  40
ATOM     40  C   UNL     1     -12.461   8.692 129.309  0.00  0.00    +0.000 C 
ATOM     41  F   UNL     1     -13.552   8.389 128.566  0.00  0.00    +0.000 F 
ATOM     42  F   UNL     1     -12.868   9.526 130.300  0.00  0.00    +0.000 F 
ATOM     43  F   UNL     1     -11.633   9.426 128.515  0.00  0.00    +0.000 F 
ENDBRANCH  34  40
ENDBRANCH  28  30
ENDBRANCH   6  28
TORSDOF 10
ENDMDL
MODEL 6
REMARK VINA RESULT:     -10.8      3.951      7.175
REMARK  Name = Antrafenine
REMARK  10 active torsions:
REMARK  status: ('A' for Active; 'I' for Inactive)
REMARK    1  A    between atoms: C_2  and  C_5
REMARK    2  A    between atoms: C_7  and  N_11
REMARK    3  A    between atoms: N_14  and  C_15
REMARK    4  A    between atoms: C_15  and  C_16
REMARK    5  A    between atoms: C_16  and  O_17
REMARK    6  A    between atoms: O_17  and  C_18
REMARK    7  A    between atoms: C_18  and  C_20
REMARK    8  A    between atoms: C_25  and  N_26
REMARK    9  A    between atoms: N_26  and  C_27
REMARK   10  A    between atoms: C_31  and  C_37
REMARK                            x       y       z     vdW  Elec       q    Type
REMARK                         _______ _______ _______ _____ _____    ______ ____
ROOT
ATOM      1  C   UNL     1      -7.099  -2.268 129.858  0.00  0.00    +0.000 A 
ATOM      2  C   UNL     1      -6.748  -3.547 130.330  0.00  0.00    +0.000 A 
ATOM      3  C   UNL     1      -6.434  -3.790 131.676  0.00  0.00    +0.000 A 
ATOM      4  C   UNL     1      -6.359  -2.760 132.601  0.00  0.00    +0.000 A 
ATOM      5  C   UNL     1      -6.654  -1.477 132.202  0.00  0.00    +0.000 A 
ATOM      6  C   UNL     1      -7.033  -1.179 130.872  0.00  0.00    +0.000 A 
ENDROOT
BRANCH   1   7
ATOM      7  C   UNL     1      -7.832  -2.463 128.423  0.00  0.00    +0.000 C 
ATOM      8  O   UNL     1      -8.318  -3.573 128.192  0.00  0.00    +0.000 OA
BRANCH   7   9
ATOM      9  O   UNL     1      -8.020  -1.394 127.536  0.00  0.00    +0.000 OA
BRANCH   9  10
ATOM     10  C   UNL     1      -6.809  -0.685 126.764  0.00  0.00    +0.000 C 
BRANCH  10  11
ATOM     11  C   UNL     1      -6.161   0.792 127.514  0.00  0.00    +0.000 C 
BRANCH  11  15
ATOM     12  N   UNL     1      -6.950   3.269 129.181  0.00  0.00    +0.000 N 
ATOM     13  C   UNL     1      -8.062   2.763 128.379  0.00  0.00    +0.000 C 
ATOM     14  C   UNL     1      -7.614   2.677 126.911  0.00  0.00    +0.000 C 
ATOM     15  N   UNL     1      -6.255   2.031 126.736  0.00  0.00    +0.000 NA
ATOM     16  C   UNL     1      -5.237   2.780 127.446  0.00  0.00    +0.000 C 
ATOM     17  C   UNL     1      -5.569   2.824 128.959  0.00  0.00    +0.000 C 
BRANCH  12  20
ATOM     18  C   UNL     1      -8.655   5.894 130.939  0.00  0.00    +0.000 A 
ATOM     19  C   UNL     1      -8.423   4.887 130.020  0.00  0.00    +0.000 A 
ATOM     20  C   UNL     1      -7.119   4.490 129.765  0.00  0.00    +0.000 A 
ATOM     21  C   UNL     1      -6.039   5.234 130.227  0.00  0.00    +0.000 A 
ATOM     22  C   UNL     1      -6.260   6.299 131.077  0.00  0.00    +0.000 A 
ATOM     23  C   UNL     1      -7.565   6.613 131.448  0.00  0.00    +0.000 A 
BRANCH  18  25
ATOM     24  F   UNL     1     -10.635   7.201 130.810  0.00  0.00    +0.000 F 
ATOM     25  C   UNL     1     -10.046   6.146 131.431  0.00  0.00    +0.000 C 
ATOM     26  F   UNL     1     -10.078   6.418 132.765  0.00  0.00    +0.000 F 
ATOM     27  F   UNL     1     -10.883   5.084 131.252  0.00  0.00    +0.000 F 
ENDBRANCH  18  25
ENDBRANCH  12  20
ENDBRANCH  11  15
ENDBRANCH  10  11
ENDBRANCH   9  10
ENDBRANCH   7   9
ENDBRANCH   1   7
BRANCH   6  28
ATOM     28  N   UNL     1      -7.383   0.216 130.816  0.00  0.00    +0.000 N 
ATOM     29  H   UNL     1      -7.080   0.766 130.023  0.00  0.00    +0.000 HD
BRANCH  28  30
ATOM     30  C   UNL     1      -7.975   0.944 131.782  0.00  0.00    +0.000 A 
ATOM     31  C   UNL     1      -7.616   2.051 132.561  0.00  0.00    +0.000 A 
ATOM     32  C   UNL     1      -6.368   2.550 132.745  0.00  0.00    +0.000 A 
ATOM     33  C   UNL     1      -6.271   3.548 133.703  0.00  0.00    +0.000 A 
ATOM     34  C   UNL     1      -7.384   4.239 134.259  0.00  0.00    +0.000 A 
ATOM     35  C   UNL     1      -8.647   3.803 134.002  0.00  0.00    +0.000 A 
ATOM     36  C   UNL     1      -8.673   2.733 133.185  0.00  0.00    +0.000 A 
ATOM     37  N   UNL     1      -9.831   2.403 132.763  0.00  0.00    +0.000 NA
ATOM     38  C   UNL     1      -9.687   1.891 131.599  0.00  0.00    +0.000 A 
ATOM     39  C   UNL     1      -9.258   0.721 131.899  0.00  0.00    +0.000 A 
BRANCH  34  40
ATOM     40  C   UNL     1      -7.182   5.433 135.116  0.00  0.00    +0.000 C 
ATOM     41  F   UNL     1      -6.095   6.133 134.714  0.00  0.00    +0.000 F 
ATOM     42  F   UNL     1      -8.250   6.267 135.037  0.00  0.00    +0.000 F 
ATOM     43  F   UNL     1      -7.011   5.163 136.440  0.00  0.00    +0.000 F 
ENDBRANCH  34  40
ENDBRANCH  28  30
ENDBRANCH   6  28
TORSDOF 10
ENDMDL
MODEL 7
REMARK VINA RESULT:     -10.7      3.995      5.848
REMARK  Name = Antrafenine
REMARK  10 active torsions:
REMARK  status: ('A' for Active; 'I' for Inactive)
REMARK    1  A    between atoms: C_2  and  C_5
REMARK    2  A    between atoms: C_7  and  N_11
REMARK    3  A    between atoms: N_14  and  C_15
REMARK    4  A    between atoms: C_15  and  C_16
REMARK    5  A    between atoms: C_16  and  O_17
REMARK    6  A    between atoms: O_17  and  C_18
REMARK    7  A    between atoms: C_18  and  C_20
REMARK    8  A    between atoms: C_25  and  N_26
REMARK    9  A    between atoms: N_26  and  C_27
REMARK   10  A    between atoms: C_31  and  C_37
REMARK                            x       y       z     vdW  Elec       q    Type
REMARK                         _______ _______ _______ _____ _____    ______ ____
ROOT
ATOM      1  C   UNL     1      -8.280  -1.564 125.778  0.00  0.00    +0.000 A 
ATOM      2  C   UNL     1      -9.101  -2.699 125.643  0.00  0.00    +0.000 A 
ATOM      3  C   UNL     1      -9.373  -3.286 124.398  0.00  0.00    +0.000 A 
ATOM      4  C   UNL     1      -8.923  -2.719 123.215  0.00  0.00    +0.000 A 
ATOM      5  C   UNL     1      -8.144  -1.586 123.268  0.00  0.00    +0.000 A 
ATOM      6  C   UNL     1      -7.788  -0.983 124.497  0.00  0.00    +0.000 A 
ENDROOT
BRANCH   1   7
ATOM      7  C   UNL     1      -7.825  -1.474 127.333  0.00  0.00    +0.000 C 
ATOM      8  O   UNL     1      -8.191  -2.388 128.075  0.00  0.00    +0.000 OA
BRANCH   7   9
ATOM      9  O   UNL     1      -6.953  -0.477 127.793  0.00  0.00    +0.000 OA
BRANCH   9  10
ATOM     10  C   UNL     1      -6.987   0.078 129.296  0.00  0.00    +0.000 C 
BRANCH  10  11
ATOM     11  C   UNL     1      -7.851   1.614 129.543  0.00  0.00    +0.000 C 
BRANCH  11  15
ATOM     12  N   UNL     1      -9.401   4.272 129.802  0.00  0.00    +0.000 N 
ATOM     13  C   UNL     1      -8.110   4.445 129.139  0.00  0.00    +0.000 C 
ATOM     14  C   UNL     1      -7.010   3.865 130.043  0.00  0.00    +0.000 C 
ATOM     15  N   UNL     1      -7.349   2.498 130.599  0.00  0.00    +0.000 NA
ATOM     16  C   UNL     1      -8.561   2.555 131.393  0.00  0.00    +0.000 C 
ATOM     17  C   UNL     1      -9.745   3.037 130.518  0.00  0.00    +0.000 C 
BRANCH  12  20
ATOM     18  C   UNL     1     -11.078   7.421 129.396  0.00  0.00    +0.000 A 
ATOM     19  C   UNL     1     -10.123   6.430 129.245  0.00  0.00    +0.000 A 
ATOM     20  C   UNL     1     -10.056   5.407 130.179  0.00  0.00    +0.000 A 
ATOM     21  C   UNL     1     -10.757   5.481 131.377  0.00  0.00    +0.000 A 
ATOM     22  C   UNL     1     -11.651   6.515 131.580  0.00  0.00    +0.000 A 
ATOM     23  C   UNL     1     -11.825   7.469 130.581  0.00  0.00    +0.000 A 
BRANCH  18  25
ATOM     24  F   UNL     1     -10.254   9.091 127.921  0.00  0.00    +0.000 F 
ATOM     25  C   UNL     1     -11.350   8.367 128.270  0.00  0.00    +0.000 C 
ATOM     26  F   UNL     1     -12.323   9.268 128.580  0.00  0.00    +0.000 F 
ATOM     27  F   UNL     1     -11.774   7.747 127.131  0.00  0.00    +0.000 F 
ENDBRANCH  18  25
ENDBRANCH  12  20
ENDBRANCH  11  15
ENDBRANCH  10  11
ENDBRANCH   9  10
ENDBRANCH   7   9
ENDBRANCH   1   7
BRANCH   6  28
ATOM     28  N   UNL     1      -6.883   0.098 124.212  0.00  0.00    +0.000 N 
ATOM     29  H   UNL     1      -6.082  -0.076 123.620  0.00  0.00    +0.000 HD
BRANCH  28  30
ATOM     30  C   UNL     1      -6.894   1.332 124.754  0.00  0.00    +0.000 A 
ATOM     31  C   UNL     1      -5.998   2.098 125.509  0.00  0.00    +0.000 A 
ATOM     32  C   UNL     1      -4.902   1.656 126.173  0.00  0.00    +0.000 A 
ATOM     33  C   UNL     1      -4.287   2.598 126.983  0.00  0.00    +0.000 A 
ATOM     34  C   UNL     1      -4.552   3.995 126.936  0.00  0.00    +0.000 A 
ATOM     35  C   UNL     1      -5.595   4.460 126.195  0.00  0.00    +0.000 A 
ATOM     36  C   UNL     1      -6.252   3.480 125.548  0.00  0.00    +0.000 A 
ATOM     37  N   UNL     1      -7.113   3.877 124.695  0.00  0.00    +0.000 NA
ATOM     38  C   UNL     1      -7.166   3.005 123.761  0.00  0.00    +0.000 A 
ATOM     39  C   UNL     1      -7.867   2.090 124.321  0.00  0.00    +0.000 A 
BRANCH  34  40
ATOM     40  C   UNL     1      -3.702   4.953 127.685  0.00  0.00    +0.000 C 
ATOM     41  F   UNL     1      -3.880   4.809 129.020  0.00  0.00    +0.000 F 
ATOM     42  F   UNL     1      -2.387   4.732 127.428  0.00  0.00    +0.000 F 
ATOM     43  F   UNL     1      -3.927   6.264 127.395  0.00  0.00    +0.000 F 
ENDBRANCH  34  40
ENDBRANCH  28  30
ENDBRANCH   6  28
TORSDOF 10
ENDMDL
MODEL 8
REMARK VINA RESULT:     -10.7      3.446      4.988
REMARK  Name = Antrafenine
REMARK  10 active torsions:
REMARK  status: ('A' for Active; 'I' for Inactive)
REMARK    1  A    between atoms: C_2  and  C_5
REMARK    2  A    between atoms: C_7  and  N_11
REMARK    3  A    between atoms: N_14  and  C_15
REMARK    4  A    between atoms: C_15  and  C_16
REMARK    5  A    between atoms: C_16  and  O_17
REMARK    6  A    between atoms: O_17  and  C_18
REMARK    7  A    between atoms: C_18  and  C_20
REMARK    8  A    between atoms: C_25  and  N_26
REMARK    9  A    between atoms: N_26  and  C_27
REMARK   10  A    between atoms: C_31  and  C_37
REMARK                            x       y       z     vdW  Elec       q    Type
REMARK                         _______ _______ _______ _____ _____    ______ ____
ROOT
ATOM      1  C   UNL     1      -6.225  -1.595 131.651  0.00  0.00    +0.000 A 
ATOM      2  C   UNL     1      -5.256  -0.752 132.228  0.00  0.00    +0.000 A 
ATOM      3  C   UNL     1      -3.995  -0.549 131.646  0.00  0.00    +0.000 A 
ATOM      4  C   UNL     1      -3.597  -1.246 130.516  0.00  0.00    +0.000 A 
ATOM      5  C   UNL     1      -4.480  -2.115 129.918  0.00  0.00    +0.000 A 
ATOM      6  C   UNL     1      -5.786  -2.317 130.425  0.00  0.00    +0.000 A 
ENDROOT
BRANCH   1   7
ATOM      7  C   UNL     1      -7.657  -1.214 132.313  0.00  0.00    +0.000 C 
ATOM      8  O   UNL     1      -7.958  -1.790 133.361  0.00  0.00    +0.000 OA
BRANCH   7   9
ATOM      9  O   UNL     1      -8.464  -0.190 131.795  0.00  0.00    +0.000 OA
BRANCH   9  10
ATOM     10  C   UNL     1      -8.221   1.357 132.129  0.00  0.00    +0.000 C 
BRANCH  10  11
ATOM     11  C   UNL     1      -8.062   2.443 130.729  0.00  0.00    +0.000 C 
BRANCH  11  15
ATOM     12  N   UNL     1      -7.818   1.878 127.703  0.00  0.00    +0.000 N 
ATOM     13  C   UNL     1      -7.259   0.801 128.515  0.00  0.00    +0.000 C 
ATOM     14  C   UNL     1      -6.224   1.397 129.483  0.00  0.00    +0.000 C 
ATOM     15  N   UNL     1      -6.713   2.644 130.190  0.00  0.00    +0.000 NA
ATOM     16  C   UNL     1      -7.042   3.680 129.231  0.00  0.00    +0.000 C 
ATOM     17  C   UNL     1      -8.159   3.185 128.278  0.00  0.00    +0.000 C 
BRANCH  12  20
ATOM     18  C   UNL     1      -8.507   1.573 124.192  0.00  0.00    +0.000 A 
ATOM     19  C   UNL     1      -8.525   1.292 125.547  0.00  0.00    +0.000 A 
ATOM     20  C   UNL     1      -7.551   1.843 126.366  0.00  0.00    +0.000 A 
ATOM     21  C   UNL     1      -6.431   2.469 125.829  0.00  0.00    +0.000 A 
ATOM     22  C   UNL     1      -6.356   2.678 124.466  0.00  0.00    +0.000 A 
ATOM     23  C   UNL     1      -7.403   2.250 123.654  0.00  0.00    +0.000 A 
BRANCH  18  25
ATOM     24  F   UNL     1      -9.683   1.869 122.150  0.00  0.00    +0.000 F 
ATOM     25  C   UNL     1      -9.689   1.223 123.345  0.00  0.00    +0.000 C 
ATOM     26  F   UNL     1     -10.866   1.542 123.949  0.00  0.00    +0.000 F 
ATOM     27  F   UNL     1      -9.773  -0.108 123.056  0.00  0.00    +0.000 F 
ENDBRANCH  18  25
ENDBRANCH  12  20
ENDBRANCH  11  15
ENDBRANCH  10  11
ENDBRANCH   9  10
ENDBRANCH   7   9
ENDBRANCH   1   7
BRANCH   6  28
ATOM     28  N   UNL     1      -6.483  -3.185 129.514  0.00  0.00    +0.000 N 
ATOM     29  H   UNL     1      -6.373  -4.186 129.608  0.00  0.00    +0.000 HD
BRANCH  28  30
ATOM     30  C   UNL     1      -7.190  -2.822 128.426  0.00  0.00    +0.000 A 
ATOM     31  C   UNL     1      -6.891  -2.546 127.086  0.00  0.00    +0.000 A 
ATOM     32  C   UNL     1      -5.669  -2.292 126.558  0.00  0.00    +0.000 A 
ATOM     33  C   UNL     1      -5.677  -1.880 125.234  0.00  0.00    +0.000 A 
ATOM     34  C   UNL     1      -6.799  -1.985 124.366  0.00  0.00    +0.000 A 
ATOM     35  C   UNL     1      -8.014  -2.334 124.872  0.00  0.00    +0.000 A 
ATOM     36  C   UNL     1      -7.977  -2.574 126.195  0.00  0.00    +0.000 A 
ATOM     37  N   UNL     1      -9.040  -3.085 126.682  0.00  0.00    +0.000 NA
ATOM     38  C   UNL     1      -8.698  -3.827 127.667  0.00  0.00    +0.000 A 
ATOM     39  C   UNL     1      -8.483  -2.946 128.573  0.00  0.00    +0.000 A 
BRANCH  34  40
ATOM     40  C   UNL     1      -6.661  -1.720 122.913  0.00  0.00    +0.000 C 
ATOM     41  F   UNL     1      -7.791  -2.067 122.253  0.00  0.00    +0.000 F 
ATOM     42  F   UNL     1      -6.450  -0.398 122.683  0.00  0.00    +0.000 F 
ATOM     43  F   UNL     1      -5.632  -2.376 122.308  0.00  0.00    +0.000 F 
ENDBRANCH  34  40
ENDBRANCH  28  30
ENDBRANCH   6  28
TORSDOF 10
ENDMDL
MODEL 9
REMARK VINA RESULT:     -10.7      5.533      7.857
REMARK  Name = Antrafenine
REMARK  10 active torsions:
REMARK  status: ('A' for Active; 'I' for Inactive)
REMARK    1  A    between atoms: C_2  and  C_5
REMARK    2  A    between atoms: C_7  and  N_11
REMARK    3  A    between atoms: N_14  and  C_15
REMARK    4  A    between atoms: C_15  and  C_16
REMARK    5  A    between atoms: C_16  and  O_17
REMARK    6  A    between atoms: O_17  and  C_18
REMARK    7  A    between atoms: C_18  and  C_20
REMARK    8  A    between atoms: C_25  and  N_26
REMARK    9  A    between atoms: N_26  and  C_27
REMARK   10  A    between atoms: C_31  and  C_37
REMARK                            x       y       z     vdW  Elec       q    Type
REMARK                         _______ _______ _______ _____ _____    ______ ____
ROOT
ATOM      1  C   UNL     1      -7.253  -1.066 124.207  0.00  0.00    +0.000 A 
ATOM      2  C   UNL     1      -7.016  -1.535 122.901  0.00  0.00    +0.000 A 
ATOM      3  C   UNL     1      -5.988  -2.443 122.604  0.00  0.00    +0.000 A 
ATOM      4  C   UNL     1      -5.083  -2.855 123.570  0.00  0.00    +0.000 A 
ATOM      5  C   UNL     1      -5.232  -2.409 124.863  0.00  0.00    +0.000 A 
ATOM      6  C   UNL     1      -6.284  -1.539 125.235  0.00  0.00    +0.000 A 
ENDROOT
BRANCH   1   7
ATOM      7  C   UNL     1      -8.753  -0.446 124.237  0.00  0.00    +0.000 C 
ATOM      8  O   UNL     1      -9.452  -0.726 125.214  0.00  0.00    +0.000 OA
BRANCH   7   9
ATOM      9  O   UNL     1      -9.198   0.465 123.268  0.00  0.00    +0.000 OA
BRANCH   9  10
ATOM     10  C   UNL     1      -9.594   1.977 123.619  0.00  0.00    +0.000 C 
BRANCH  10  11
ATOM     11  C   UNL     1      -8.286   2.999 124.260  0.00  0.00    +0.000 C 
BRANCH  11  15
ATOM     12  N   UNL     1      -5.489   3.520 125.459  0.00  0.00    +0.000 N 
ATOM     13  C   UNL     1      -5.986   2.183 125.773  0.00  0.00    +0.000 C 
ATOM     14  C   UNL     1      -7.370   2.312 126.431  0.00  0.00    +0.000 C 
ATOM     15  N   UNL     1      -8.294   3.265 125.702  0.00  0.00    +0.000 NA
ATOM     16  C   UNL     1      -7.722   4.596 125.654  0.00  0.00    +0.000 C 
ATOM     17  C   UNL     1      -6.363   4.563 124.910  0.00  0.00    +0.000 C 
BRANCH  12  20
ATOM     18  C   UNL     1      -3.582   5.322 127.910  0.00  0.00    +0.000 A 
ATOM     19  C   UNL     1      -4.513   5.073 126.917  0.00  0.00    +0.000 A 
ATOM     20  C   UNL     1      -4.379   3.937 126.133  0.00  0.00    +0.000 A 
ATOM     21  C   UNL     1      -3.214   3.178 126.162  0.00  0.00    +0.000 A 
ATOM     22  C   UNL     1      -2.235   3.469 127.091  0.00  0.00    +0.000 A 
ATOM     23  C   UNL     1      -2.430   4.525 127.977  0.00  0.00    +0.000 A 
BRANCH  18  25
ATOM     24  F   UNL     1      -5.004   6.148 129.625  0.00  0.00    +0.000 F 
ATOM     25  C   UNL     1      -3.854   6.376 128.937  0.00  0.00    +0.000 C 
ATOM     26  F   UNL     1      -3.976   7.613 128.383  0.00  0.00    +0.000 F 
ATOM     27  F   UNL     1      -2.868   6.487 129.873  0.00  0.00    +0.000 F 
ENDBRANCH  18  25
ENDBRANCH  12  20
ENDBRANCH  11  15
ENDBRANCH  10  11
ENDBRANCH   9  10
ENDBRANCH   7   9
ENDBRANCH   1   7
BRANCH   6  28
ATOM     28  N   UNL     1      -6.225  -1.360 126.661  0.00  0.00    +0.000 N 
ATOM     29  H   UNL     1      -5.832  -0.506 127.033  0.00  0.00    +0.000 HD
BRANCH  28  30
ATOM     30  C   UNL     1      -6.520  -2.273 127.607  0.00  0.00    +0.000 A 
ATOM     31  C   UNL     1      -5.882  -2.769 128.751  0.00  0.00    +0.000 A 
ATOM     32  C   UNL     1      -4.573  -2.637 129.078  0.00  0.00    +0.000 A 
ATOM     33  C   UNL     1      -4.167  -3.371 130.181  0.00  0.00    +0.000 A 
ATOM     34  C   UNL     1      -5.054  -3.987 131.108  0.00  0.00    +0.000 A 
ATOM     35  C   UNL     1      -6.387  -4.040 130.834  0.00  0.00    +0.000 A 
ATOM     36  C   UNL     1      -6.703  -3.442 129.670  0.00  0.00    +0.000 A 
ATOM     37  N   UNL     1      -7.953  -3.298 129.459  0.00  0.00    +0.000 NA
ATOM     38  C   UNL     1      -8.108  -2.236 128.763  0.00  0.00    +0.000 A 
ATOM     39  C   UNL     1      -7.771  -2.655 127.600  0.00  0.00    +0.000 A 
BRANCH  34  40
ATOM     40  C   UNL     1      -4.543  -4.571 132.372  0.00  0.00    +0.000 C 
ATOM     41  F   UNL     1      -3.228  -4.289 132.533  0.00  0.00    +0.000 F 
ATOM     42  F   UNL     1      -5.200  -4.052 133.442  0.00  0.00    +0.000 F 
ATOM     43  F   UNL     1      -4.673  -5.923 132.471  0.00  0.00    +0.000 F 
ENDBRANCH  34  40
ENDBRANCH  28  30
ENDBRANCH   6  28
TORSDOF 10
ENDMDL
