MODEL 1
REMARK VINA RESULT:      -8.0      0.000      0.000
REMARK  Name = Apalutamide
REMARK  6 active torsions:
REMARK  status: ('A' for Active; 'I' for Inactive)
REMARK    1  A    between atoms: C_1  and  N_2
REMARK    2  A    between atoms: C_3  and  C_5
REMARK    3  A    between atoms: C_8  and  N_12
REMARK    4  A    between atoms: N_15  and  C_22
REMARK    5  A    between atoms: C_24  and  C_30
REMARK    6  A    between atoms: C_25  and  C_28
REMARK                            x       y       z     vdW  Elec       q    Type
REMARK                         _______ _______ _______ _____ _____    ______ ____
ROOT
ATOM      1  N   UNL     1      -8.083   3.455 130.623  0.00  0.00    +0.000 N 
ATOM      2  C   UNL     1      -7.329   3.007 129.503  0.00  0.00    +0.000 C 
ATOM      3  S   UNL     1      -6.757   4.019 128.302  0.00  0.00    +0.000 S 
ATOM      4  N   UNL     1      -7.011   1.645 129.699  0.00  0.00    +0.000 N 
ATOM      5  C   UNL     1      -7.076   1.308 131.039  0.00  0.00    +0.000 C 
ATOM      6  O   UNL     1      -6.619   0.288 131.547  0.00  0.00    +0.000 OA
ATOM      7  C   UNL     1      -7.855   2.488 131.753  0.00  0.00    +0.000 C 
ATOM      8  C   UNL     1      -9.020   1.922 132.598  0.00  0.00    +0.000 C 
ATOM      9  C   UNL     1      -9.018   3.213 133.397  0.00  0.00    +0.000 C 
ATOM     10  C   UNL     1      -7.403   3.206 133.039  0.00  0.00    +0.000 C 
ENDROOT
BRANCH   1  14
ATOM     11  C   UNL     1     -11.014   6.590 130.370  0.00  0.00    +0.000 A 
ATOM     12  C   UNL     1      -9.690   6.859 130.751  0.00  0.00    +0.000 A 
ATOM     13  C   UNL     1      -8.738   5.818 130.876  0.00  0.00    +0.000 A 
ATOM     14  C   UNL     1      -9.084   4.488 130.598  0.00  0.00    +0.000 A 
ATOM     15  C   UNL     1     -10.404   4.243 130.181  0.00  0.00    +0.000 A 
ATOM     16  C   UNL     1     -11.347   5.280 130.061  0.00  0.00    +0.000 A 
ATOM     17  F   UNL     1     -12.568   4.976 129.597  0.00  0.00    +0.000 F 
BRANCH  11  20
ATOM     18  C   UNL     1     -13.010   9.463 128.848  0.00  0.00    +0.000 C 
ATOM     19  N   UNL     1     -12.060   8.389 129.060  0.00  0.00    +0.000 N 
ATOM     20  C   UNL     1     -12.009   7.697 130.258  0.00  0.00    +0.000 C 
ATOM     21  O   UNL     1     -12.763   7.926 131.198  0.00  0.00    +0.000 OA
ATOM     22  H   UNL     1     -11.427   8.153 128.306  0.00  0.00    +0.000 HD
ENDBRANCH  11  20
ENDBRANCH   1  14
BRANCH   4  23
ATOM     23  C   UNL     1      -6.897   0.674 128.648  0.00  0.00    +0.000 A 
ATOM     24  C   UNL     1      -7.962   0.374 127.768  0.00  0.00    +0.000 A 
ATOM     25  C   UNL     1      -7.785  -0.514 126.662  0.00  0.00    +0.000 A 
ATOM     26  C   UNL     1      -6.537  -1.104 126.506  0.00  0.00    +0.000 A 
ATOM     27  N   UNL     1      -5.501  -0.840 127.343  0.00  0.00    +0.000 NA
ATOM     28  C   UNL     1      -5.699   0.033 128.369  0.00  0.00    +0.000 A 
BRANCH  25  29
ATOM     29  C   UNL     1      -8.903  -0.786 125.686  0.00  0.00    +0.000 C 
ATOM     30  F   UNL     1      -9.429  -2.030 125.846  0.00  0.00    +0.000 F 
ATOM     31  F   UNL     1      -9.942   0.081 125.848  0.00  0.00    +0.000 F 
ATOM     32  F   UNL     1      -8.574  -0.701 124.372  0.00  0.00    +0.000 F 
ENDBRANCH  25  29
BRANCH  26  33
ATOM     33  C   UNL     1      -6.228  -2.055 125.470  0.00  0.00    +0.000 C 
ATOM     34  N   UNL     1      -5.952  -2.797 124.605  0.00  0.00    +0.000 NA
ENDBRANCH  26  33
ENDBRANCH   4  23
TORSDOF 5
ENDMDL
MODEL 2
REMARK VINA RESULT:      -7.8      2.784      8.621
REMARK  Name = Apalutamide
REMARK  6 active torsions:
REMARK  status: ('A' for Active; 'I' for Inactive)
REMARK    1  A    between atoms: C_1  and  N_2
REMARK    2  A    between atoms: C_3  and  C_5
REMARK    3  A    between atoms: C_8  and  N_12
REMARK    4  A    between atoms: N_15  and  C_22
REMARK    5  A    between atoms: C_24  and  C_30
REMARK    6  A    between atoms: C_25  and  C_28
REMARK                            x       y       z     vdW  Elec       q    Type
REMARK                         _______ _______ _______ _____ _____    ______ ____
ROOT
ATOM      1  N   UNL     1      -6.165   2.594 128.582  0.00  0.00    +0.000 N 
ATOM      2  C   UNL     1      -7.222   2.809 129.510  0.00  0.00    +0.000 C 
ATOM      3  S   UNL     1      -8.082   1.576 130.241  0.00  0.00    +0.000 S 
ATOM      4  N   UNL     1      -7.264   4.185 129.823  0.00  0.00    +0.000 N 
ATOM      5  C   UNL     1      -6.050   4.793 129.557  0.00  0.00    +0.000 C 
ATOM      6  O   UNL     1      -5.699   5.901 129.951  0.00  0.00    +0.000 OA
ATOM      7  C   UNL     1      -5.238   3.777 128.652  0.00  0.00    +0.000 C 
ATOM      8  C   UNL     1      -4.722   4.493 127.382  0.00  0.00    +0.000 C 
ATOM      9  C   UNL     1      -3.682   3.396 127.232  0.00  0.00    +0.000 C 
ATOM     10  C   UNL     1      -3.777   3.348 128.883  0.00  0.00    +0.000 C 
ENDROOT
BRANCH   1  14
ATOM     11  C   UNL     1      -6.219  -0.561 125.661  0.00  0.00    +0.000 A 
ATOM     12  C   UNL     1      -5.586  -0.728 126.903  0.00  0.00    +0.000 A 
ATOM     13  C   UNL     1      -5.532   0.329 127.846  0.00  0.00    +0.000 A 
ATOM     14  C   UNL     1      -6.132   1.566 127.576  0.00  0.00    +0.000 A 
ATOM     15  C   UNL     1      -6.793   1.703 126.343  0.00  0.00    +0.000 A 
ATOM     16  C   UNL     1      -6.843   0.653 125.409  0.00  0.00    +0.000 A 
ATOM     17  F   UNL     1      -7.546   0.838 124.282  0.00  0.00    +0.000 F 
BRANCH  11  20
ATOM     18  C   UNL     1      -4.975  -3.333 123.356  0.00  0.00    +0.000 C 
ATOM     19  N   UNL     1      -5.042  -2.229 124.291  0.00  0.00    +0.000 N 
ATOM     20  C   UNL     1      -6.254  -1.678 124.673  0.00  0.00    +0.000 C 
ATOM     21  O   UNL     1      -7.335  -2.090 124.267  0.00  0.00    +0.000 OA
ATOM     22  H   UNL     1      -4.175  -1.864 124.665  0.00  0.00    +0.000 HD
ENDBRANCH  11  20
ENDBRANCH   1  14
BRANCH   4  23
ATOM     23  C   UNL     1      -8.463   4.918 130.119  0.00  0.00    +0.000 A 
ATOM     24  C   UNL     1      -9.143   5.691 129.151  0.00  0.00    +0.000 A 
ATOM     25  C   UNL     1     -10.393   6.318 129.445  0.00  0.00    +0.000 A 
ATOM     26  C   UNL     1     -10.898   6.174 130.732  0.00  0.00    +0.000 A 
ATOM     27  N   UNL     1     -10.258   5.445 131.682  0.00  0.00    +0.000 NA
ATOM     28  C   UNL     1      -9.083   4.839 131.357  0.00  0.00    +0.000 A 
BRANCH  25  29
ATOM     29  C   UNL     1     -11.151   7.092 128.394  0.00  0.00    +0.000 C 
ATOM     30  F   UNL     1     -11.260   8.410 128.709  0.00  0.00    +0.000 F 
ATOM     31  F   UNL     1     -10.528   7.048 127.182  0.00  0.00    +0.000 F 
ATOM     32  F   UNL     1     -12.419   6.673 128.153  0.00  0.00    +0.000 F 
ENDBRANCH  25  29
BRANCH  26  33
ATOM     33  C   UNL     1     -12.117   6.789 131.185  0.00  0.00    +0.000 C 
ATOM     34  N   UNL     1     -13.130   7.249 131.558  0.00  0.00    +0.000 NA
ENDBRANCH  26  33
ENDBRANCH   4  23
TORSDOF 5
ENDMDL
MODEL 3
REMARK VINA RESULT:      -7.7      2.663      2.936
REMARK  Name = Apalutamide
REMARK  6 active torsions:
REMARK  status: ('A' for Active; 'I' for Inactive)
REMARK    1  A    between atoms: C_1  and  N_2
REMARK    2  A    between atoms: C_3  and  C_5
REMARK    3  A    between atoms: C_8  and  N_12
REMARK    4  A    between atoms: N_15  and  C_22
REMARK    5  A    between atoms: C_24  and  C_30
REMARK    6  A    between atoms: C_25  and  C_28
REMARK                            x       y       z     vdW  Elec       q    Type
REMARK                         _______ _______ _______ _____ _____    ______ ____
ROOT
ATOM      1  N   UNL     1      -7.275   4.423 131.629  0.00  0.00    +0.000 N 
ATOM      2  C   UNL     1      -6.432   3.633 130.799  0.00  0.00    +0.000 C 
ATOM      3  S   UNL     1      -6.037   4.033 129.224  0.00  0.00    +0.000 S 
ATOM      4  N   UNL     1      -5.869   2.607 131.588  0.00  0.00    +0.000 N 
ATOM      5  C   UNL     1      -5.892   2.943 132.930  0.00  0.00    +0.000 C 
ATOM      6  O   UNL     1      -5.263   2.383 133.822  0.00  0.00    +0.000 OA
ATOM      7  C   UNL     1      -6.890   4.166 133.060  0.00  0.00    +0.000 C 
ATOM      8  C   UNL     1      -7.943   3.880 134.155  0.00  0.00    +0.000 C 
ATOM      9  C   UNL     1      -8.195   5.375 134.250  0.00  0.00    +0.000 C 
ATOM     10  C   UNL     1      -6.602   5.475 133.820  0.00  0.00    +0.000 C 
ENDROOT
BRANCH   1  14
ATOM     11  C   UNL     1     -10.724   6.520 130.147  0.00  0.00    +0.000 A 
ATOM     12  C   UNL     1      -9.507   7.185 130.372  0.00  0.00    +0.000 A 
ATOM     13  C   UNL     1      -8.386   6.500 130.901  0.00  0.00    +0.000 A 
ATOM     14  C   UNL     1      -8.449   5.131 131.194  0.00  0.00    +0.000 A 
ATOM     15  C   UNL     1      -9.664   4.474 130.928  0.00  0.00    +0.000 A 
ATOM     16  C   UNL     1     -10.776   5.158 130.405  0.00  0.00    +0.000 A 
ATOM     17  F   UNL     1     -11.879   4.451 130.119  0.00  0.00    +0.000 F 
BRANCH  11  20
ATOM     18  C   UNL     1     -13.474   7.575 127.724  0.00  0.00    +0.000 C 
ATOM     19  N   UNL     1     -12.325   6.931 128.328  0.00  0.00    +0.000 N 
ATOM     20  C   UNL     1     -11.901   7.259 129.604  0.00  0.00    +0.000 C 
ATOM     21  O   UNL     1     -12.468   8.089 130.307  0.00  0.00    +0.000 OA
ATOM     22  H   UNL     1     -11.833   6.227 127.790  0.00  0.00    +0.000 HD
ENDBRANCH  11  20
ENDBRANCH   1  14
BRANCH   4  23
ATOM     23  C   UNL     1      -5.558   1.289 131.112  0.00  0.00    +0.000 A 
ATOM     24  C   UNL     1      -6.550   0.311 130.869  0.00  0.00    +0.000 A 
ATOM     25  C   UNL     1      -6.223  -0.953 130.290  0.00  0.00    +0.000 A 
ATOM     26  C   UNL     1      -4.885  -1.205 130.011  0.00  0.00    +0.000 A 
ATOM     27  N   UNL     1      -3.912  -0.287 130.244  0.00  0.00    +0.000 NA
ATOM     28  C   UNL     1      -4.266   0.918 130.771  0.00  0.00    +0.000 A 
BRANCH  25  29
ATOM     29  C   UNL     1      -7.290  -1.972 129.973  0.00  0.00    +0.000 C 
ATOM     30  F   UNL     1      -7.128  -3.119 130.685  0.00  0.00    +0.000 F 
ATOM     31  F   UNL     1      -8.537  -1.515 130.279  0.00  0.00    +0.000 F 
ATOM     32  F   UNL     1      -7.366  -2.362 128.674  0.00  0.00    +0.000 F 
ENDBRANCH  25  29
BRANCH  26  33
ATOM     33  C   UNL     1      -4.402  -2.450 129.474  0.00  0.00    +0.000 C 
ATOM     34  N   UNL     1      -4.037  -3.487 129.066  0.00  0.00    +0.000 NA
ENDBRANCH  26  33
ENDBRANCH   4  23
TORSDOF 5
ENDMDL
MODEL 4
REMARK VINA RESULT:      -7.7      3.470      8.782
REMARK  Name = Apalutamide
REMARK  6 active torsions:
REMARK  status: ('A' for Active; 'I' for Inactive)
REMARK    1  A    between atoms: C_1  and  N_2
REMARK    2  A    between atoms: C_3  and  C_5
REMARK    3  A    between atoms: C_8  and  N_12
REMARK    4  A    between atoms: N_15  and  C_22
REMARK    5  A    between atoms: C_24  and  C_30
REMARK    6  A    between atoms: C_25  and  C_28
REMARK                            x       y       z     vdW  Elec       q    Type
REMARK                         _______ _______ _______ _____ _____    ______ ____
ROOT
ATOM      1  N   UNL     1      -5.422   3.799 131.318  0.00  0.00    +0.000 N 
ATOM      2  C   UNL     1      -6.563   4.244 132.041  0.00  0.00    +0.000 C 
ATOM      3  S   UNL     1      -7.169   3.469 133.393  0.00  0.00    +0.000 S 
ATOM      4  N   UNL     1      -6.942   5.507 131.537  0.00  0.00    +0.000 N 
ATOM      5  C   UNL     1      -5.883   6.123 130.894  0.00  0.00    +0.000 C 
ATOM      6  O   UNL     1      -5.825   7.307 130.578  0.00  0.00    +0.000 OA
ATOM      7  C   UNL     1      -4.798   4.995 130.652  0.00  0.00    +0.000 C 
ATOM      8  C   UNL     1      -4.369   4.978 129.167  0.00  0.00    +0.000 C 
ATOM      9  C   UNL     1      -3.098   4.257 129.581  0.00  0.00    +0.000 C 
ATOM     10  C   UNL     1      -3.297   5.115 130.981  0.00  0.00    +0.000 C 
ENDROOT
BRANCH   1  14
ATOM     11  C   UNL     1      -4.541  -0.358 130.663  0.00  0.00    +0.000 A 
ATOM     12  C   UNL     1      -3.964   0.350 131.729  0.00  0.00    +0.000 A 
ATOM     13  C   UNL     1      -4.222   1.730 131.916  0.00  0.00    +0.000 A 
ATOM     14  C   UNL     1      -5.082   2.425 131.056  0.00  0.00    +0.000 A 
ATOM     15  C   UNL     1      -5.680   1.692 130.016  0.00  0.00    +0.000 A 
ATOM     16  C   UNL     1      -5.419   0.322 129.832  0.00  0.00    +0.000 A 
ATOM     17  F   UNL     1      -6.075  -0.324 128.856  0.00  0.00    +0.000 F 
BRANCH  11  20
ATOM     18  C   UNL     1      -2.987  -3.529 129.219  0.00  0.00    +0.000 C 
ATOM     19  N   UNL     1      -3.355  -2.149 129.467  0.00  0.00    +0.000 N 
ATOM     20  C   UNL     1      -4.246  -1.809 130.469  0.00  0.00    +0.000 C 
ATOM     21  O   UNL     1      -4.764  -2.633 131.216  0.00  0.00    +0.000 OA
ATOM     22  H   UNL     1      -2.941  -1.432 128.885  0.00  0.00    +0.000 HD
ENDBRANCH  11  20
ENDBRANCH   1  14
BRANCH   4  23
ATOM     23  C   UNL     1      -8.294   5.982 131.458  0.00  0.00    +0.000 A 
ATOM     24  C   UNL     1      -8.895   6.376 130.241  0.00  0.00    +0.000 A 
ATOM     25  C   UNL     1     -10.276   6.738 130.175  0.00  0.00    +0.000 A 
ATOM     26  C   UNL     1     -10.999   6.728 131.362  0.00  0.00    +0.000 A 
ATOM     27  N   UNL     1     -10.443   6.363 132.546  0.00  0.00    +0.000 NA
ATOM     28  C   UNL     1      -9.131   5.998 132.564  0.00  0.00    +0.000 A 
BRANCH  25  29
ATOM     29  C   UNL     1     -10.933   7.098 128.866  0.00  0.00    +0.000 C 
ATOM     30  F   UNL     1     -12.069   6.382 128.651  0.00  0.00    +0.000 F 
ATOM     31  F   UNL     1     -11.305   8.408 128.827  0.00  0.00    +0.000 F 
ATOM     32  F   UNL     1     -10.175   6.913 127.755  0.00  0.00    +0.000 F 
ENDBRANCH  25  29
BRANCH  26  33
ATOM     33  C   UNL     1     -12.382   7.116 131.458  0.00  0.00    +0.000 C 
ATOM     34  N   UNL     1     -13.517   7.395 131.560  0.00  0.00    +0.000 NA
ENDBRANCH  26  33
ENDBRANCH   4  23
TORSDOF 5
ENDMDL
MODEL 5
REMARK VINA RESULT:      -7.6      5.098      8.643
REMARK  Name = Apalutamide
REMARK  6 active torsions:
REMARK  status: ('A' for Active; 'I' for Inactive)
REMARK    1  A    between atoms: C_1  and  N_2
REMARK    2  A    between atoms: C_3  and  C_5
REMARK    3  A    between atoms: C_8  and  N_12
REMARK    4  A    between atoms: N_15  and  C_22
REMARK    5  A    between atoms: C_24  and  C_30
REMARK    6  A    between atoms: C_25  and  C_28
REMARK                            x       y       z     vdW  Elec       q    Type
REMARK                         _______ _______ _______ _____ _____    ______ ____
ROOT
ATOM      1  N   UNL     1      -5.839  -0.638 129.741  0.00  0.00    +0.000 N 
ATOM      2  C   UNL     1      -6.140   0.712 130.075  0.00  0.00    +0.000 C 
ATOM      3  S   UNL     1      -7.619   1.435 129.780  0.00  0.00    +0.000 S 
ATOM      4  N   UNL     1      -5.071   1.229 130.838  0.00  0.00    +0.000 N 
ATOM      5  C   UNL     1      -4.341   0.210 131.424  0.00  0.00    +0.000 C 
ATOM      6  O   UNL     1      -3.524   0.341 132.330  0.00  0.00    +0.000 OA
ATOM      7  C   UNL     1      -4.773  -1.123 130.685  0.00  0.00    +0.000 C 
ATOM      8  C   UNL     1      -3.522  -1.885 130.190  0.00  0.00    +0.000 C 
ATOM      9  C   UNL     1      -4.363  -3.148 130.126  0.00  0.00    +0.000 C 
ATOM     10  C   UNL     1      -5.176  -2.437 131.379  0.00  0.00    +0.000 C 
ENDROOT
BRANCH   1  14
ATOM     11  C   UNL     1      -7.280  -2.543 126.166  0.00  0.00    +0.000 A 
ATOM     12  C   UNL     1      -7.959  -2.678 127.388  0.00  0.00    +0.000 A 
ATOM     13  C   UNL     1      -7.457  -2.085 128.573  0.00  0.00    +0.000 A 
ATOM     14  C   UNL     1      -6.281  -1.324 128.556  0.00  0.00    +0.000 A 
ATOM     15  C   UNL     1      -5.635  -1.170 127.317  0.00  0.00    +0.000 A 
ATOM     16  C   UNL     1      -6.134  -1.762 126.143  0.00  0.00    +0.000 A 
ATOM     17  F   UNL     1      -5.497  -1.518 124.988  0.00  0.00    +0.000 F 
BRANCH  11  20
ATOM     18  C   UNL     1      -9.626  -3.296 123.255  0.00  0.00    +0.000 C 
ATOM     19  N   UNL     1      -9.039  -2.749 124.461  0.00  0.00    +0.000 N 
ATOM     20  C   UNL     1      -7.812  -3.187 124.930  0.00  0.00    +0.000 C 
ATOM     21  O   UNL     1      -7.141  -4.039 124.357  0.00  0.00    +0.000 OA
ATOM     22  H   UNL     1      -9.550  -2.032 124.960  0.00  0.00    +0.000 HD
ENDBRANCH  11  20
ENDBRANCH   1  14
BRANCH   4  23
ATOM     23  C   UNL     1      -4.629   2.594 130.803  0.00  0.00    +0.000 A 
ATOM     24  C   UNL     1      -3.874   3.125 129.732  0.00  0.00    +0.000 A 
ATOM     25  C   UNL     1      -3.545   4.514 129.671  0.00  0.00    +0.000 A 
ATOM     26  C   UNL     1      -3.958   5.319 130.725  0.00  0.00    +0.000 A 
ATOM     27  N   UNL     1      -4.675   4.832 131.771  0.00  0.00    +0.000 NA
ATOM     28  C   UNL     1      -4.994   3.508 131.780  0.00  0.00    +0.000 A 
BRANCH  25  29
ATOM     29  C   UNL     1      -2.794   5.093 128.497  0.00  0.00    +0.000 C 
ATOM     30  F   UNL     1      -2.193   4.129 127.749  0.00  0.00    +0.000 F 
ATOM     31  F   UNL     1      -3.619   5.765 127.646  0.00  0.00    +0.000 F 
ATOM     32  F   UNL     1      -1.809   5.976 128.804  0.00  0.00    +0.000 F 
ENDBRANCH  25  29
BRANCH  26  33
ATOM     33  C   UNL     1      -3.656   6.723 130.824  0.00  0.00    +0.000 C 
ATOM     34  N   UNL     1      -3.454   7.876 130.899  0.00  0.00    +0.000 NA
ENDBRANCH  26  33
ENDBRANCH   4  23
TORSDOF 5
ENDMDL
MODEL 6
REMARK VINA RESULT:      -7.6      5.956      8.932
REMARK  Name = Apalutamide
REMARK  6 active torsions:
REMARK  status: ('A' for Active; 'I' for Inactive)
REMARK    1  A    between atoms: C_1  and  N_2
REMARK    2  A    between atoms: C_3  and  C_5
REMARK    3  A    between atoms: C_8  and  N_12
REMARK    4  A    between atoms: N_15  and  C_22
REMARK    5  A    between atoms: C_24  and  C_30
REMARK    6  A    between atoms: C_25  and  C_28
REMARK                            x       y       z     vdW  Elec       q    Type
REMARK                         _______ _______ _______ _____ _____    ______ ____
ROOT
ATOM      1  N   UNL     1      -5.633  -1.801 130.671  0.00  0.00    +0.000 N 
ATOM      2  C   UNL     1      -5.811  -0.815 131.681  0.00  0.00    +0.000 C 
ATOM      3  S   UNL     1      -7.305  -0.328 132.252  0.00  0.00    +0.000 S 
ATOM      4  N   UNL     1      -4.544  -0.493 132.213  0.00  0.00    +0.000 N 
ATOM      5  C   UNL     1      -3.634  -1.508 131.980  0.00  0.00    +0.000 C 
ATOM      6  O   UNL     1      -2.542  -1.635 132.525  0.00  0.00    +0.000 OA
ATOM      7  C   UNL     1      -4.287  -2.439 130.876  0.00  0.00    +0.000 C 
ATOM      8  C   UNL     1      -3.295  -2.660 129.712  0.00  0.00    +0.000 C 
ATOM      9  C   UNL     1      -4.081  -3.901 129.327  0.00  0.00    +0.000 C 
ATOM     10  C   UNL     1      -4.386  -3.975 130.951  0.00  0.00    +0.000 C 
ENDROOT
BRANCH   1  14
ATOM     11  C   UNL     1      -7.998  -2.423 127.134  0.00  0.00    +0.000 A 
ATOM     12  C   UNL     1      -6.980  -1.457 127.169  0.00  0.00    +0.000 A 
ATOM     13  C   UNL     1      -6.232  -1.224 128.350  0.00  0.00    +0.000 A 
ATOM     14  C   UNL     1      -6.469  -1.970 129.512  0.00  0.00    +0.000 A 
ATOM     15  C   UNL     1      -7.467  -2.958 129.447  0.00  0.00    +0.000 A 
ATOM     16  C   UNL     1      -8.210  -3.185 128.274  0.00  0.00    +0.000 A 
ATOM     17  F   UNL     1      -9.101  -4.187 128.269  0.00  0.00    +0.000 F 
BRANCH  11  20
ATOM     18  C   UNL     1      -8.760  -3.049 123.449  0.00  0.00    +0.000 C 
ATOM     19  N   UNL     1      -8.083  -2.804 124.707  0.00  0.00    +0.000 N 
ATOM     20  C   UNL     1      -8.788  -2.645 125.887  0.00  0.00    +0.000 C 
ATOM     21  O   UNL     1     -10.010  -2.717 125.954  0.00  0.00    +0.000 OA
ATOM     22  H   UNL     1      -7.071  -2.751 124.704  0.00  0.00    +0.000 HD
ENDBRANCH  11  20
ENDBRANCH   1  14
BRANCH   4  23
ATOM     23  C   UNL     1      -4.167   0.807 132.693  0.00  0.00    +0.000 A 
ATOM     24  C   UNL     1      -3.798   1.862 131.827  0.00  0.00    +0.000 A 
ATOM     25  C   UNL     1      -3.536   3.176 132.325  0.00  0.00    +0.000 A 
ATOM     26  C   UNL     1      -3.618   3.370 133.699  0.00  0.00    +0.000 A 
ATOM     27  N   UNL     1      -3.961   2.370 134.552  0.00  0.00    +0.000 NA
ATOM     28  C   UNL     1      -4.230   1.139 134.038  0.00  0.00    +0.000 A 
BRANCH  25  29
ATOM     29  C   UNL     1      -3.203   4.317 131.396  0.00  0.00    +0.000 C 
ATOM     30  F   UNL     1      -1.961   4.818 131.628  0.00  0.00    +0.000 F 
ATOM     31  F   UNL     1      -3.211   3.928 130.090  0.00  0.00    +0.000 F 
ATOM     32  F   UNL     1      -4.039   5.385 131.451  0.00  0.00    +0.000 F 
ENDBRANCH  25  29
BRANCH  26  33
ATOM     33  C   UNL     1      -3.333   4.623 134.346  0.00  0.00    +0.000 C 
ATOM     34  N   UNL     1      -3.128   5.666 134.843  0.00  0.00    +0.000 NA
ENDBRANCH  26  33
ENDBRANCH   4  23
TORSDOF 5
ENDMDL
MODEL 7
REMARK VINA RESULT:      -7.5      3.606      4.171
REMARK  Name = Apalutamide
REMARK  6 active torsions:
REMARK  status: ('A' for Active; 'I' for Inactive)
REMARK    1  A    between atoms: C_1  and  N_2
REMARK    2  A    between atoms: C_3  and  C_5
REMARK    3  A    between atoms: C_8  and  N_12
REMARK    4  A    between atoms: N_15  and  C_22
REMARK    5  A    between atoms: C_24  and  C_30
REMARK    6  A    between atoms: C_25  and  C_28
REMARK                            x       y       z     vdW  Elec       q    Type
REMARK                         _______ _______ _______ _____ _____    ______ ____
ROOT
ATOM      1  N   UNL     1      -7.348   4.380 131.959  0.00  0.00    +0.000 N 
ATOM      2  C   UNL     1      -6.536   3.424 131.286  0.00  0.00    +0.000 C 
ATOM      3  S   UNL     1      -5.790   3.706 129.817  0.00  0.00    +0.000 S 
ATOM      4  N   UNL     1      -6.337   2.325 132.151  0.00  0.00    +0.000 N 
ATOM      5  C   UNL     1      -6.541   2.688 133.470  0.00  0.00    +0.000 C 
ATOM      6  O   UNL     1      -6.206   2.036 134.454  0.00  0.00    +0.000 OA
ATOM      7  C   UNL     1      -7.289   4.084 133.433  0.00  0.00    +0.000 C 
ATOM      8  C   UNL     1      -8.559   4.030 134.311  0.00  0.00    +0.000 C 
ATOM      9  C   UNL     1      -8.530   5.547 134.381  0.00  0.00    +0.000 C 
ATOM     10  C   UNL     1      -6.896   5.328 134.252  0.00  0.00    +0.000 C 
ENDROOT
BRANCH   1  14
ATOM     11  C   UNL     1      -9.999   7.065 129.899  0.00  0.00    +0.000 A 
ATOM     12  C   UNL     1      -8.718   7.474 130.304  0.00  0.00    +0.000 A 
ATOM     13  C   UNL     1      -7.864   6.600 131.021  0.00  0.00    +0.000 A 
ATOM     14  C   UNL     1      -8.263   5.291 131.326  0.00  0.00    +0.000 A 
ATOM     15  C   UNL     1      -9.534   4.888 130.880  0.00  0.00    +0.000 A 
ATOM     16  C   UNL     1     -10.380   5.759 130.171  0.00  0.00    +0.000 A 
ATOM     17  F   UNL     1     -11.551   5.282 129.724  0.00  0.00    +0.000 F 
BRANCH  11  20
ATOM     18  C   UNL     1     -12.929   9.403 129.195  0.00  0.00    +0.000 C 
ATOM     19  N   UNL     1     -12.015   8.470 129.821  0.00  0.00    +0.000 N 
ATOM     20  C   UNL     1     -10.893   8.002 129.158  0.00  0.00    +0.000 C 
ATOM     21  O   UNL     1     -10.591   8.352 128.022  0.00  0.00    +0.000 OA
ATOM     22  H   UNL     1     -12.215   8.165 130.766  0.00  0.00    +0.000 HD
ENDBRANCH  11  20
ENDBRANCH   1  14
BRANCH   4  23
ATOM     23  C   UNL     1      -6.206   0.962 131.720  0.00  0.00    +0.000 A 
ATOM     24  C   UNL     1      -4.973   0.270 131.740  0.00  0.00    +0.000 A 
ATOM     25  C   UNL     1      -4.893  -1.119 131.413  0.00  0.00    +0.000 A 
ATOM     26  C   UNL     1      -6.068  -1.757 131.034  0.00  0.00    +0.000 A 
ATOM     27  N   UNL     1      -7.263  -1.113 130.997  0.00  0.00    +0.000 NA
ATOM     28  C   UNL     1      -7.304   0.204 131.342  0.00  0.00    +0.000 A 
BRANCH  25  29
ATOM     29  C   UNL     1      -3.589  -1.872 131.495  0.00  0.00    +0.000 C 
ATOM     30  F   UNL     1      -3.706  -3.019 132.215  0.00  0.00    +0.000 F 
ATOM     31  F   UNL     1      -3.141  -2.248 130.264  0.00  0.00    +0.000 F 
ATOM     32  F   UNL     1      -2.553  -1.197 132.056  0.00  0.00    +0.000 F 
ENDBRANCH  25  29
BRANCH  26  33
ATOM     33  C   UNL     1      -6.132  -3.137 130.629  0.00  0.00    +0.000 C 
ATOM     34  N   UNL     1      -6.157  -4.272 130.335  0.00  0.00    +0.000 NA
ENDBRANCH  26  33
ENDBRANCH   4  23
TORSDOF 5
ENDMDL
MODEL 8
REMARK VINA RESULT:      -7.4      2.193      2.754
REMARK  Name = Apalutamide
REMARK  6 active torsions:
REMARK  status: ('A' for Active; 'I' for Inactive)
REMARK    1  A    between atoms: C_1  and  N_2
REMARK    2  A    between atoms: C_3  and  C_5
REMARK    3  A    between atoms: C_8  and  N_12
REMARK    4  A    between atoms: N_15  and  C_22
REMARK    5  A    between atoms: C_24  and  C_30
REMARK    6  A    between atoms: C_25  and  C_28
REMARK                            x       y       z     vdW  Elec       q    Type
REMARK                         _______ _______ _______ _____ _____    ______ ____
ROOT
ATOM      1  N   UNL     1      -8.596   4.863 130.516  0.00  0.00    +0.000 N 
ATOM      2  C   UNL     1      -8.009   3.879 129.673  0.00  0.00    +0.000 C 
ATOM      3  S   UNL     1      -7.683   4.119 128.051  0.00  0.00    +0.000 S 
ATOM      4  N   UNL     1      -7.599   2.794 130.478  0.00  0.00    +0.000 N 
ATOM      5  C   UNL     1      -7.434   3.186 131.795  0.00  0.00    +0.000 C 
ATOM      6  O   UNL     1      -6.855   2.547 132.668  0.00  0.00    +0.000 OA
ATOM      7  C   UNL     1      -8.146   4.595 131.927  0.00  0.00    +0.000 C 
ATOM      8  C   UNL     1      -9.134   4.583 133.116  0.00  0.00    +0.000 C 
ATOM      9  C   UNL     1      -9.067   6.100 133.139  0.00  0.00    +0.000 C 
ATOM     10  C   UNL     1      -7.531   5.847 132.580  0.00  0.00    +0.000 C 
ENDROOT
BRANCH   1  14
ATOM     11  C   UNL     1     -11.659   7.571 129.183  0.00  0.00    +0.000 A 
ATOM     12  C   UNL     1     -10.323   7.986 129.310  0.00  0.00    +0.000 A 
ATOM     13  C   UNL     1      -9.325   7.104 129.792  0.00  0.00    +0.000 A 
ATOM     14  C   UNL     1      -9.636   5.780 130.132  0.00  0.00    +0.000 A 
ATOM     15  C   UNL     1     -10.970   5.372 129.963  0.00  0.00    +0.000 A 
ATOM     16  C   UNL     1     -11.959   6.251 129.487  0.00  0.00    +0.000 A 
ATOM     17  F   UNL     1     -13.196   5.770 129.292  0.00  0.00    +0.000 F 
BRANCH  11  20
ATOM     18  C   UNL     1     -13.793  10.721 128.927  0.00  0.00    +0.000 C 
ATOM     19  N   UNL     1     -12.827   9.728 129.348  0.00  0.00    +0.000 N 
ATOM     20  C   UNL     1     -12.702   8.517 128.689  0.00  0.00    +0.000 C 
ATOM     21  O   UNL     1     -13.375   8.213 127.710  0.00  0.00    +0.000 OA
ATOM     22  H   UNL     1     -12.237   9.940 130.144  0.00  0.00    +0.000 HD
ENDBRANCH  11  20
ENDBRANCH   1  14
BRANCH   4  23
ATOM     23  C   UNL     1      -7.607   1.420 130.061  0.00  0.00    +0.000 A 
ATOM     24  C   UNL     1      -6.778   0.932 129.025  0.00  0.00    +0.000 A 
ATOM     25  C   UNL     1      -6.725  -0.460 128.707  0.00  0.00    +0.000 A 
ATOM     26  C   UNL     1      -7.552  -1.314 129.428  0.00  0.00    +0.000 A 
ATOM     27  N   UNL     1      -8.365  -0.869 130.420  0.00  0.00    +0.000 NA
ATOM     28  C   UNL     1      -8.366   0.461 130.713  0.00  0.00    +0.000 A 
BRANCH  25  29
ATOM     29  C   UNL     1      -5.795  -0.989 127.644  0.00  0.00    +0.000 C 
ATOM     30  F   UNL     1      -6.467  -1.618 126.644  0.00  0.00    +0.000 F 
ATOM     31  F   UNL     1      -5.085   0.009 127.047  0.00  0.00    +0.000 F 
ATOM     32  F   UNL     1      -4.862  -1.880 128.068  0.00  0.00    +0.000 F 
ENDBRANCH  25  29
BRANCH  26  33
ATOM     33  C   UNL     1      -7.642  -2.730 129.184  0.00  0.00    +0.000 C 
ATOM     34  N   UNL     1      -7.741  -3.875 128.948  0.00  0.00    +0.000 NA
ENDBRANCH  26  33
ENDBRANCH   4  23
TORSDOF 5
ENDMDL
MODEL 9
REMARK VINA RESULT:      -7.4      4.567      5.875
REMARK  Name = Apalutamide
REMARK  6 active torsions:
REMARK  status: ('A' for Active; 'I' for Inactive)
REMARK    1  A    between atoms: C_1  and  N_2
REMARK    2  A    between atoms: C_3  and  C_5
REMARK    3  A    between atoms: C_8  and  N_12
REMARK    4  A    between atoms: N_15  and  C_22
REMARK    5  A    between atoms: C_24  and  C_30
REMARK    6  A    between atoms: C_25  and  C_28
REMARK                            x       y       z     vdW  Elec       q    Type
REMARK                         _______ _______ _______ _____ _____    ______ ____
ROOT
ATOM      1  N   UNL     1      -6.628   4.644 130.693  0.00  0.00    +0.000 N 
ATOM      2  C   UNL     1      -6.460   3.742 129.606  0.00  0.00    +0.000 C 
ATOM      3  S   UNL     1      -5.065   2.860 129.336  0.00  0.00    +0.000 S 
ATOM      4  N   UNL     1      -7.704   3.598 128.953  0.00  0.00    +0.000 N 
ATOM      5  C   UNL     1      -8.749   3.943 129.792  0.00  0.00    +0.000 C 
ATOM      6  O   UNL     1      -9.934   3.690 129.606  0.00  0.00    +0.000 OA
ATOM      7  C   UNL     1      -8.097   4.725 131.007  0.00  0.00    +0.000 C 
ATOM      8  C   UNL     1      -8.820   6.075 131.219  0.00  0.00    +0.000 C 
ATOM      9  C   UNL     1      -8.280   6.098 132.638  0.00  0.00    +0.000 C 
ATOM     10  C   UNL     1      -8.381   4.453 132.497  0.00  0.00    +0.000 C 
ENDROOT
BRANCH   1  14
ATOM     11  C   UNL     1      -3.462   7.147 132.174  0.00  0.00    +0.000 A 
ATOM     12  C   UNL     1      -3.819   5.959 132.831  0.00  0.00    +0.000 A 
ATOM     13  C   UNL     1      -4.892   5.160 132.365  0.00  0.00    +0.000 A 
ATOM     14  C   UNL     1      -5.613   5.518 131.218  0.00  0.00    +0.000 A 
ATOM     15  C   UNL     1      -5.217   6.691 130.553  0.00  0.00    +0.000 A 
ATOM     16  C   UNL     1      -4.153   7.484 131.019  0.00  0.00    +0.000 A 
ATOM     17  F   UNL     1      -3.794   8.554 130.295  0.00  0.00    +0.000 F 
BRANCH  11  20
ATOM     18  C   UNL     1       0.073   8.152 133.197  0.00  0.00    +0.000 C 
ATOM     19  N   UNL     1      -1.083   7.409 132.739  0.00  0.00    +0.000 N 
ATOM     20  C   UNL     1      -2.340   7.987 132.686  0.00  0.00    +0.000 C 
ATOM     21  O   UNL     1      -2.555   9.153 133.001  0.00  0.00    +0.000 OA
ATOM     22  H   UNL     1      -0.951   6.446 132.454  0.00  0.00    +0.000 HD
ENDBRANCH  11  20
ENDBRANCH   1  14
BRANCH   4  23
ATOM     23  C   UNL     1      -7.865   3.384 127.543  0.00  0.00    +0.000 A 
ATOM     24  C   UNL     1      -8.110   2.107 126.988  0.00  0.00    +0.000 A 
ATOM     25  C   UNL     1      -8.378   1.941 125.594  0.00  0.00    +0.000 A 
ATOM     26  C   UNL     1      -8.348   3.078 124.794  0.00  0.00    +0.000 A 
ATOM     27  N   UNL     1      -8.105   4.314 125.302  0.00  0.00    +0.000 NA
ATOM     28  C   UNL     1      -7.882   4.436 126.639  0.00  0.00    +0.000 A 
BRANCH  25  29
ATOM     29  C   UNL     1      -8.700   0.587 125.011  0.00  0.00    +0.000 C 
ATOM     30  F   UNL     1      -8.795  -0.372 125.971  0.00  0.00    +0.000 F 
ATOM     31  F   UNL     1      -9.898   0.585 124.362  0.00  0.00    +0.000 F 
ATOM     32  F   UNL     1      -7.809   0.106 124.108  0.00  0.00    +0.000 F 
ENDBRANCH  25  29
BRANCH  26  33
ATOM     33  C   UNL     1      -8.548   3.056 123.369  0.00  0.00    +0.000 C 
ATOM     34  N   UNL     1      -8.697   3.082 122.206  0.00  0.00    +0.000 NA
ENDBRANCH  26  33
ENDBRANCH   4  23
TORSDOF 5
ENDMDL
