MODEL 1
REMARK VINA RESULT:      -9.4      0.000      0.000
REMARK  Name = Apixaban
REMARK  6 active torsions:
REMARK  status: ('A' for Active; 'I' for Inactive)
REMARK    1  A    between atoms: C_1  and  O_2
REMARK    2  A    between atoms: O_2  and  C_3
REMARK    3  A    between atoms: C_6  and  N_9
REMARK    4  A    between atoms: C_11  and  C_12
REMARK    5  A    between atoms: N_19  and  C_22
REMARK    6  A    between atoms: C_25  and  N_28
REMARK                            x       y       z     vdW  Elec       q    Type
REMARK                         _______ _______ _______ _____ _____    ______ ____
ROOT
ATOM      1  N   UNL     1      -9.485   6.197 130.935  0.00  0.00    +0.000 N 
ATOM      2  N   UNL     1      -9.311   6.286 132.339  0.00  0.00    +0.000 NA
ATOM      3  C   UNL     1      -8.353   5.379 132.652  0.00  0.00    +0.000 A 
ATOM      4  C   UNL     1      -7.835   4.808 131.476  0.00  0.00    +0.000 A 
ATOM      5  C   UNL     1      -8.544   5.289 130.385  0.00  0.00    +0.000 A 
ATOM      6  C   UNL     1      -8.211   4.836 129.016  0.00  0.00    +0.000 C 
ATOM      7  O   UNL     1      -8.730   5.295 127.991  0.00  0.00    +0.000 OA
ATOM      8  N   UNL     1      -7.207   3.800 128.970  0.00  0.00    +0.000 N 
ATOM      9  C   UNL     1      -6.158   3.813 129.988  0.00  0.00    +0.000 C 
ATOM     10  C   UNL     1      -6.726   3.827 131.385  0.00  0.00    +0.000 C 
ENDROOT
BRANCH   1  14
ATOM     11  C   UNL     1     -12.625   8.601 129.089  0.00  0.00    +0.000 A 
ATOM     12  C   UNL     1     -11.298   8.659 128.650  0.00  0.00    +0.000 A 
ATOM     13  C   UNL     1     -10.280   7.844 129.224  0.00  0.00    +0.000 A 
ATOM     14  C   UNL     1     -10.552   6.966 130.283  0.00  0.00    +0.000 A 
ATOM     15  C   UNL     1     -11.906   6.863 130.673  0.00  0.00    +0.000 A 
ATOM     16  C   UNL     1     -12.923   7.694 130.102  0.00  0.00    +0.000 A 
BRANCH  11  18
ATOM     17  C   UNL     1     -13.858  10.658 128.904  0.00  0.00    +0.000 C 
ATOM     18  O   UNL     1     -13.534   9.362 128.397  0.00  0.00    +0.000 OA
ENDBRANCH  11  18
ENDBRANCH   1  14
BRANCH   8  19
ATOM     19  C   UNL     1      -7.349   2.593 128.204  0.00  0.00    +0.000 A 
ATOM     20  C   UNL     1      -7.037   2.543 126.846  0.00  0.00    +0.000 A 
ATOM     21  C   UNL     1      -7.185   1.343 126.120  0.00  0.00    +0.000 A 
ATOM     22  C   UNL     1      -7.606   0.157 126.732  0.00  0.00    +0.000 A 
ATOM     23  C   UNL     1      -7.908   0.194 128.094  0.00  0.00    +0.000 A 
ATOM     24  C   UNL     1      -7.747   1.391 128.825  0.00  0.00    +0.000 A 
BRANCH  22  25
ATOM     25  N   UNL     1      -7.680  -1.046 125.960  0.00  0.00    +0.000 N 
ATOM     26  C   UNL     1      -6.476  -1.890 125.960  0.00  0.00    +0.000 C 
ATOM     27  C   UNL     1      -6.418  -2.856 124.791  0.00  0.00    +0.000 C 
ATOM     28  C   UNL     1      -7.702  -3.659 124.747  0.00  0.00    +0.000 C 
ATOM     29  C   UNL     1      -8.886  -2.730 124.564  0.00  0.00    +0.000 C 
ATOM     30  C   UNL     1      -8.893  -1.467 125.417  0.00  0.00    +0.000 C 
ATOM     31  O   UNL     1      -9.935  -0.808 125.477  0.00  0.00    +0.000 OA
ENDBRANCH  22  25
ENDBRANCH   8  19
BRANCH   3  32
ATOM     32  C   UNL     1      -7.806   4.972 133.989  0.00  0.00    +0.000 C 
ATOM     33  N   UNL     1      -6.789   5.655 134.576  0.00  0.00    +0.000 N 
ATOM     34  O   UNL     1      -8.249   4.013 134.630  0.00  0.00    +0.000 OA
ATOM     35  H   UNL     1      -6.381   6.482 134.177  0.00  0.00    +0.000 HD
ATOM     36  H   UNL     1      -6.498   5.308 135.483  0.00  0.00    +0.000 HD
ENDBRANCH   3  32
TORSDOF 5
ENDMDL
MODEL 2
REMARK VINA RESULT:      -9.3      4.347      9.158
REMARK  Name = Apixaban
REMARK  6 active torsions:
REMARK  status: ('A' for Active; 'I' for Inactive)
REMARK    1  A    between atoms: C_1  and  O_2
REMARK    2  A    between atoms: O_2  and  C_3
REMARK    3  A    between atoms: C_6  and  N_9
REMARK    4  A    between atoms: C_11  and  C_12
REMARK    5  A    between atoms: N_19  and  C_22
REMARK    6  A    between atoms: C_25  and  N_28
REMARK                            x       y       z     vdW  Elec       q    Type
REMARK                         _______ _______ _______ _____ _____    ______ ____
ROOT
ATOM      1  N   UNL     1      -7.956   1.781 123.824  0.00  0.00    +0.000 N 
ATOM      2  N   UNL     1      -8.349   0.427 123.670  0.00  0.00    +0.000 NA
ATOM      3  C   UNL     1      -8.400  -0.088 124.924  0.00  0.00    +0.000 A 
ATOM      4  C   UNL     1      -8.169   0.930 125.867  0.00  0.00    +0.000 A 
ATOM      5  C   UNL     1      -7.866   2.108 125.201  0.00  0.00    +0.000 A 
ATOM      6  C   UNL     1      -7.564   3.342 125.961  0.00  0.00    +0.000 C 
ATOM      7  O   UNL     1      -7.385   4.449 125.439  0.00  0.00    +0.000 OA
ATOM      8  N   UNL     1      -7.500   3.149 127.390  0.00  0.00    +0.000 N 
ATOM      9  C   UNL     1      -8.378   2.144 127.988  0.00  0.00    +0.000 C 
ATOM     10  C   UNL     1      -8.209   0.791 127.344  0.00  0.00    +0.000 C 
ENDROOT
BRANCH   1  14
ATOM     11  C   UNL     1      -7.146   4.086 120.207  0.00  0.00    +0.000 A 
ATOM     12  C   UNL     1      -8.452   3.820 120.636  0.00  0.00    +0.000 A 
ATOM     13  C   UNL     1      -8.718   3.104 121.838  0.00  0.00    +0.000 A 
ATOM     14  C   UNL     1      -7.681   2.599 122.636  0.00  0.00    +0.000 A 
ATOM     15  C   UNL     1      -6.368   2.930 122.233  0.00  0.00    +0.000 A 
ATOM     16  C   UNL     1      -6.106   3.638 121.016  0.00  0.00    +0.000 A 
BRANCH  11  18
ATOM     17  C   UNL     1      -5.780   5.549 118.874  0.00  0.00    +0.000 C 
ATOM     18  O   UNL     1      -7.016   4.865 119.085  0.00  0.00    +0.000 OA
ENDBRANCH  11  18
ENDBRANCH   1  14
BRANCH   8  19
ATOM     19  C   UNL     1      -6.425   3.637 128.208  0.00  0.00    +0.000 A 
ATOM     20  C   UNL     1      -6.649   4.510 129.272  0.00  0.00    +0.000 A 
ATOM     21  C   UNL     1      -5.572   4.971 130.059  0.00  0.00    +0.000 A 
ATOM     22  C   UNL     1      -4.258   4.545 129.834  0.00  0.00    +0.000 A 
ATOM     23  C   UNL     1      -4.026   3.662 128.779  0.00  0.00    +0.000 A 
ATOM     24  C   UNL     1      -5.104   3.188 128.000  0.00  0.00    +0.000 A 
BRANCH  22  25
ATOM     25  N   UNL     1      -3.213   4.999 130.702  0.00  0.00    +0.000 N 
ATOM     26  C   UNL     1      -2.898   4.128 131.844  0.00  0.00    +0.000 C 
ATOM     27  C   UNL     1      -2.167   4.846 132.964  0.00  0.00    +0.000 C 
ATOM     28  C   UNL     1      -0.946   5.538 132.395  0.00  0.00    +0.000 C 
ATOM     29  C   UNL     1      -1.367   6.552 131.349  0.00  0.00    +0.000 C 
ATOM     30  C   UNL     1      -2.426   6.095 130.352  0.00  0.00    +0.000 C 
ATOM     31  O   UNL     1      -2.626   6.790 129.353  0.00  0.00    +0.000 OA
ENDBRANCH  22  25
ENDBRANCH   8  19
BRANCH   3  32
ATOM     32  C   UNL     1      -8.682  -1.488 125.384  0.00  0.00    +0.000 C 
ATOM     33  N   UNL     1      -7.679  -2.376 125.604  0.00  0.00    +0.000 N 
ATOM     34  O   UNL     1      -9.825  -1.906 125.598  0.00  0.00    +0.000 OA
ATOM     35  H   UNL     1      -6.706  -2.139 125.514  0.00  0.00    +0.000 HD
ATOM     36  H   UNL     1      -7.971  -3.293 125.923  0.00  0.00    +0.000 HD
ENDBRANCH   3  32
TORSDOF 5
ENDMDL
MODEL 3
REMARK VINA RESULT:      -9.2      2.760      5.052
REMARK  Name = Apixaban
REMARK  6 active torsions:
REMARK  status: ('A' for Active; 'I' for Inactive)
REMARK    1  A    between atoms: C_1  and  O_2
REMARK    2  A    between atoms: O_2  and  C_3
REMARK    3  A    between atoms: C_6  and  N_9
REMARK    4  A    between atoms: C_11  and  C_12
REMARK    5  A    between atoms: N_19  and  C_22
REMARK    6  A    between atoms: C_25  and  N_28
REMARK                            x       y       z     vdW  Elec       q    Type
REMARK                         _______ _______ _______ _____ _____    ______ ____
ROOT
ATOM      1  N   UNL     1      -7.715   5.872 131.429  0.00  0.00    +0.000 N 
ATOM      2  N   UNL     1      -8.797   6.785 131.504  0.00  0.00    +0.000 NA
ATOM      3  C   UNL     1      -9.898   6.087 131.131  0.00  0.00    +0.000 A 
ATOM      4  C   UNL     1      -9.563   4.735 130.940  0.00  0.00    +0.000 A 
ATOM      5  C   UNL     1      -8.194   4.577 131.100  0.00  0.00    +0.000 A 
ATOM      6  C   UNL     1      -7.569   3.245 130.938  0.00  0.00    +0.000 C 
ATOM      7  O   UNL     1      -6.376   3.010 131.164  0.00  0.00    +0.000 OA
ATOM      8  N   UNL     1      -8.482   2.220 130.495  0.00  0.00    +0.000 N 
ATOM      9  C   UNL     1      -9.874   2.302 130.933  0.00  0.00    +0.000 C 
ATOM     10  C   UNL     1     -10.496   3.633 130.596  0.00  0.00    +0.000 C 
ENDROOT
BRANCH   1  14
ATOM     11  C   UNL     1      -3.586   7.161 132.008  0.00  0.00    +0.000 A 
ATOM     12  C   UNL     1      -4.321   7.527 130.875  0.00  0.00    +0.000 A 
ATOM     13  C   UNL     1      -5.682   7.142 130.704  0.00  0.00    +0.000 A 
ATOM     14  C   UNL     1      -6.344   6.346 131.650  0.00  0.00    +0.000 A 
ATOM     15  C   UNL     1      -5.617   6.039 132.823  0.00  0.00    +0.000 A 
ATOM     16  C   UNL     1      -4.245   6.416 132.982  0.00  0.00    +0.000 A 
BRANCH  11  18
ATOM     17  C   UNL     1      -1.213   6.775 131.948  0.00  0.00    +0.000 C 
ATOM     18  O   UNL     1      -2.315   7.670 132.105  0.00  0.00    +0.000 OA
ENDBRANCH  11  18
ENDBRANCH   1  14
BRANCH   8  19
ATOM     19  C   UNL     1      -8.198   1.322 129.410  0.00  0.00    +0.000 A 
ATOM     20  C   UNL     1      -7.850  -0.010 129.630  0.00  0.00    +0.000 A 
ATOM     21  C   UNL     1      -7.578  -0.869 128.545  0.00  0.00    +0.000 A 
ATOM     22  C   UNL     1      -7.686  -0.437 127.217  0.00  0.00    +0.000 A 
ATOM     23  C   UNL     1      -8.046   0.891 126.986  0.00  0.00    +0.000 A 
ATOM     24  C   UNL     1      -8.332   1.748 128.072  0.00  0.00    +0.000 A 
BRANCH  22  25
ATOM     25  N   UNL     1      -7.457  -1.368 126.154  0.00  0.00    +0.000 N 
ATOM     26  C   UNL     1      -6.058  -1.754 125.921  0.00  0.00    +0.000 C 
ATOM     27  C   UNL     1      -5.813  -2.326 124.537  0.00  0.00    +0.000 C 
ATOM     28  C   UNL     1      -6.787  -3.461 124.291  0.00  0.00    +0.000 C 
ATOM     29  C   UNL     1      -8.211  -2.946 124.369  0.00  0.00    +0.000 C 
ATOM     30  C   UNL     1      -8.527  -2.006 125.527  0.00  0.00    +0.000 C 
ATOM     31  O   UNL     1      -9.710  -1.753 125.768  0.00  0.00    +0.000 OA
ENDBRANCH  22  25
ENDBRANCH   8  19
BRANCH   3  32
ATOM     32  C   UNL     1     -11.316   6.543 130.945  0.00  0.00    +0.000 C 
ATOM     33  N   UNL     1     -11.733   7.102 129.780  0.00  0.00    +0.000 N 
ATOM     34  O   UNL     1     -12.177   6.427 131.823  0.00  0.00    +0.000 OA
ATOM     35  H   UNL     1     -11.139   7.202 128.975  0.00  0.00    +0.000 HD
ATOM     36  H   UNL     1     -12.711   7.367 129.749  0.00  0.00    +0.000 HD
ENDBRANCH   3  32
TORSDOF 5
ENDMDL
MODEL 4
REMARK VINA RESULT:      -8.4      4.463      8.562
REMARK  Name = Apixaban
REMARK  6 active torsions:
REMARK  status: ('A' for Active; 'I' for Inactive)
REMARK    1  A    between atoms: C_1  and  O_2
REMARK    2  A    between atoms: O_2  and  C_3
REMARK    3  A    between atoms: C_6  and  N_9
REMARK    4  A    between atoms: C_11  and  C_12
REMARK    5  A    between atoms: N_19  and  C_22
REMARK    6  A    between atoms: C_25  and  N_28
REMARK                            x       y       z     vdW  Elec       q    Type
REMARK                         _______ _______ _______ _____ _____    ______ ____
ROOT
ATOM      1  N   UNL     1      -9.283   4.837 130.096  0.00  0.00    +0.000 N 
ATOM      2  N   UNL     1      -9.354   3.728 129.217  0.00  0.00    +0.000 NA
ATOM      3  C   UNL     1      -8.205   3.033 129.402  0.00  0.00    +0.000 A 
ATOM      4  C   UNL     1      -7.467   3.605 130.455  0.00  0.00    +0.000 A 
ATOM      5  C   UNL     1      -8.113   4.752 130.893  0.00  0.00    +0.000 A 
ATOM      6  C   UNL     1      -7.538   5.562 131.992  0.00  0.00    +0.000 C 
ATOM      7  O   UNL     1      -8.106   6.535 132.501  0.00  0.00    +0.000 OA
ATOM      8  N   UNL     1      -6.242   5.110 132.436  0.00  0.00    +0.000 N 
ATOM      9  C   UNL     1      -5.958   3.677 132.387  0.00  0.00    +0.000 C 
ATOM     10  C   UNL     1      -6.188   3.101 131.013  0.00  0.00    +0.000 C 
ENDROOT
BRANCH   1  14
ATOM     11  C   UNL     1     -12.297   7.993 130.060  0.00  0.00    +0.000 A 
ATOM     12  C   UNL     1     -11.219   7.993 129.168  0.00  0.00    +0.000 A 
ATOM     13  C   UNL     1     -10.258   6.942 129.150  0.00  0.00    +0.000 A 
ATOM     14  C   UNL     1     -10.325   5.870 130.052  0.00  0.00    +0.000 A 
ATOM     15  C   UNL     1     -11.454   5.843 130.902  0.00  0.00    +0.000 A 
ATOM     16  C   UNL     1     -12.409   6.909 130.926  0.00  0.00    +0.000 A 
BRANCH  11  18
ATOM     17  C   UNL     1     -13.439   9.539 128.614  0.00  0.00    +0.000 C 
ATOM     18  O   UNL     1     -13.210   9.009 129.920  0.00  0.00    +0.000 OA
ENDBRANCH  11  18
ENDBRANCH   1  14
BRANCH   8  19
ATOM     19  C   UNL     1      -5.117   5.986 132.613  0.00  0.00    +0.000 A 
ATOM     20  C   UNL     1      -4.589   6.728 131.557  0.00  0.00    +0.000 A 
ATOM     21  C   UNL     1      -3.484   7.580 131.763  0.00  0.00    +0.000 A 
ATOM     22  C   UNL     1      -2.905   7.747 133.026  0.00  0.00    +0.000 A 
ATOM     23  C   UNL     1      -3.434   7.018 134.092  0.00  0.00    +0.000 A 
ATOM     24  C   UNL     1      -4.549   6.175 133.891  0.00  0.00    +0.000 A 
BRANCH  22  25
ATOM     25  N   UNL     1      -1.824   8.671 133.189  0.00  0.00    +0.000 N 
ATOM     26  C   UNL     1      -2.201  10.071 133.434  0.00  0.00    +0.000 C 
ATOM     27  C   UNL     1      -1.091  11.058 133.120  0.00  0.00    +0.000 C 
ATOM     28  C   UNL     1       0.163  10.646 133.863  0.00  0.00    +0.000 C 
ATOM     29  C   UNL     1       0.593   9.259 133.423  0.00  0.00    +0.000 C 
ATOM     30  C   UNL     1      -0.512   8.215 133.303  0.00  0.00    +0.000 C 
ATOM     31  O   UNL     1      -0.185   7.032 133.181  0.00  0.00    +0.000 OA
ENDBRANCH  22  25
ENDBRANCH   8  19
BRANCH   3  32
ATOM     32  C   UNL     1      -7.686   1.813 128.699  0.00  0.00    +0.000 C 
ATOM     33  N   UNL     1      -7.973   0.563 129.146  0.00  0.00    +0.000 N 
ATOM     34  O   UNL     1      -6.990   1.872 127.680  0.00  0.00    +0.000 OA
ATOM     35  H   UNL     1      -8.571   0.385 129.934  0.00  0.00    +0.000 HD
ATOM     36  H   UNL     1      -7.585  -0.196 128.596  0.00  0.00    +0.000 HD
ENDBRANCH   3  32
TORSDOF 5
ENDMDL
MODEL 5
REMARK VINA RESULT:      -8.3      4.134      9.032
REMARK  Name = Apixaban
REMARK  6 active torsions:
REMARK  status: ('A' for Active; 'I' for Inactive)
REMARK    1  A    between atoms: C_1  and  O_2
REMARK    2  A    between atoms: O_2  and  C_3
REMARK    3  A    between atoms: C_6  and  N_9
REMARK    4  A    between atoms: C_11  and  C_12
REMARK    5  A    between atoms: N_19  and  C_22
REMARK    6  A    between atoms: C_25  and  N_28
REMARK                            x       y       z     vdW  Elec       q    Type
REMARK                         _______ _______ _______ _____ _____    ______ ____
ROOT
ATOM      1  N   UNL     1      -3.802   2.585 132.589  0.00  0.00    +0.000 N 
ATOM      2  N   UNL     1      -2.588   3.230 132.935  0.00  0.00    +0.000 NA
ATOM      3  C   UNL     1      -2.914   4.521 133.191  0.00  0.00    +0.000 A 
ATOM      4  C   UNL     1      -4.311   4.680 133.133  0.00  0.00    +0.000 A 
ATOM      5  C   UNL     1      -4.889   3.484 132.736  0.00  0.00    +0.000 A 
ATOM      6  C   UNL     1      -6.358   3.377 132.579  0.00  0.00    +0.000 C 
ATOM      7  O   UNL     1      -6.950   2.321 132.327  0.00  0.00    +0.000 OA
ATOM      8  N   UNL     1      -7.058   4.627 132.755  0.00  0.00    +0.000 N 
ATOM      9  C   UNL     1      -6.514   5.592 133.709  0.00  0.00    +0.000 C 
ATOM     10  C   UNL     1      -5.071   5.922 133.420  0.00  0.00    +0.000 C 
ENDROOT
BRANCH   1  14
ATOM     11  C   UNL     1      -3.590  -1.540 131.180  0.00  0.00    +0.000 A 
ATOM     12  C   UNL     1      -3.270  -1.193 132.497  0.00  0.00    +0.000 A 
ATOM     13  C   UNL     1      -3.379   0.146 132.970  0.00  0.00    +0.000 A 
ATOM     14  C   UNL     1      -3.781   1.192 132.127  0.00  0.00    +0.000 A 
ATOM     15  C   UNL     1      -4.168   0.822 130.819  0.00  0.00    +0.000 A 
ATOM     16  C   UNL     1      -4.043  -0.523 130.345  0.00  0.00    +0.000 A 
BRANCH  11  18
ATOM     17  C   UNL     1      -3.275  -3.245 129.512  0.00  0.00    +0.000 C 
ATOM     18  O   UNL     1      -3.537  -2.876 130.867  0.00  0.00    +0.000 OA
ENDBRANCH  11  18
ENDBRANCH   1  14
BRANCH   8  19
ATOM     19  C   UNL     1      -8.051   5.114 131.838  0.00  0.00    +0.000 A 
ATOM     20  C   UNL     1      -9.025   4.277 131.296  0.00  0.00    +0.000 A 
ATOM     21  C   UNL     1      -9.988   4.785 130.399  0.00  0.00    +0.000 A 
ATOM     22  C   UNL     1     -10.031   6.141 130.053  0.00  0.00    +0.000 A 
ATOM     23  C   UNL     1      -9.068   6.989 130.601  0.00  0.00    +0.000 A 
ATOM     24  C   UNL     1      -8.112   6.485 131.509  0.00  0.00    +0.000 A 
BRANCH  22  25
ATOM     25  N   UNL     1     -11.068   6.613 129.185  0.00  0.00    +0.000 N 
ATOM     26  C   UNL     1     -12.314   7.039 129.839  0.00  0.00    +0.000 C 
ATOM     27  C   UNL     1     -13.508   7.061 128.902  0.00  0.00    +0.000 C 
ATOM     28  C   UNL     1     -13.167   7.894 127.684  0.00  0.00    +0.000 C 
ATOM     29  C   UNL     1     -11.980   7.287 126.960  0.00  0.00    +0.000 C 
ATOM     30  C   UNL     1     -10.815   6.834 127.833  0.00  0.00    +0.000 C 
ATOM     31  O   UNL     1      -9.746   6.557 127.282  0.00  0.00    +0.000 OA
ENDBRANCH  22  25
ENDBRANCH   8  19
BRANCH   3  32
ATOM     32  C   UNL     1      -2.039   5.692 133.531  0.00  0.00    +0.000 C 
ATOM     33  N   UNL     1      -1.824   6.065 134.819  0.00  0.00    +0.000 N 
ATOM     34  O   UNL     1      -1.461   6.367 132.674  0.00  0.00    +0.000 OA
ATOM     35  H   UNL     1      -2.197   5.562 135.606  0.00  0.00    +0.000 HD
ATOM     36  H   UNL     1      -1.210   6.861 134.945  0.00  0.00    +0.000 HD
ENDBRANCH   3  32
TORSDOF 5
ENDMDL
MODEL 6
REMARK VINA RESULT:      -8.2      3.042      5.544
REMARK  Name = Apixaban
REMARK  6 active torsions:
REMARK  status: ('A' for Active; 'I' for Inactive)
REMARK    1  A    between atoms: C_1  and  O_2
REMARK    2  A    between atoms: O_2  and  C_3
REMARK    3  A    between atoms: C_6  and  N_9
REMARK    4  A    between atoms: C_11  and  C_12
REMARK    5  A    between atoms: N_19  and  C_22
REMARK    6  A    between atoms: C_25  and  N_28
REMARK                            x       y       z     vdW  Elec       q    Type
REMARK                         _______ _______ _______ _____ _____    ______ ____
ROOT
ATOM      1  N   UNL     1      -6.539   5.200 131.371  0.00  0.00    +0.000 N 
ATOM      2  N   UNL     1      -7.468   6.212 131.720  0.00  0.00    +0.000 NA
ATOM      3  C   UNL     1      -8.696   5.667 131.536  0.00  0.00    +0.000 A 
ATOM      4  C   UNL     1      -8.568   4.308 131.196  0.00  0.00    +0.000 A 
ATOM      5  C   UNL     1      -7.223   3.996 131.066  0.00  0.00    +0.000 A 
ATOM      6  C   UNL     1      -6.804   2.624 130.698  0.00  0.00    +0.000 C 
ATOM      7  O   UNL     1      -5.626   2.248 130.662  0.00  0.00    +0.000 OA
ATOM      8  N   UNL     1      -7.901   1.741 130.385  0.00  0.00    +0.000 N 
ATOM      9  C   UNL     1      -9.162   1.930 131.101  0.00  0.00    +0.000 C 
ATOM     10  C   UNL     1      -9.674   3.343 130.981  0.00  0.00    +0.000 C 
ENDROOT
BRANCH   1  14
ATOM     11  C   UNL     1      -2.298   6.233 131.372  0.00  0.00    +0.000 A 
ATOM     12  C   UNL     1      -2.848   5.375 132.331  0.00  0.00    +0.000 A 
ATOM     13  C   UNL     1      -4.223   5.003 132.307  0.00  0.00    +0.000 A 
ATOM     14  C   UNL     1      -5.104   5.509 131.339  0.00  0.00    +0.000 A 
ATOM     15  C   UNL     1      -4.526   6.320 130.336  0.00  0.00    +0.000 A 
ATOM     16  C   UNL     1      -3.147   6.701 130.373  0.00  0.00    +0.000 A 
BRANCH  11  18
ATOM     17  C   UNL     1      -0.415   7.080 132.606  0.00  0.00    +0.000 C 
ATOM     18  O   UNL     1      -0.944   6.443 131.442  0.00  0.00    +0.000 OA
ENDBRANCH  11  18
ENDBRANCH   1  14
BRANCH   8  19
ATOM     19  C   UNL     1      -7.943   0.914 129.212  0.00  0.00    +0.000 A 
ATOM     20  C   UNL     1      -8.339   1.415 127.973  0.00  0.00    +0.000 A 
ATOM     21  C   UNL     1      -8.369   0.578 126.837  0.00  0.00    +0.000 A 
ATOM     22  C   UNL     1      -7.967  -0.762 126.897  0.00  0.00    +0.000 A 
ATOM     23  C   UNL     1      -7.556  -1.269 128.130  0.00  0.00    +0.000 A 
ATOM     24  C   UNL     1      -7.513  -0.429 129.264  0.00  0.00    +0.000 A 
BRANCH  22  25
ATOM     25  N   UNL     1      -7.959  -1.548 125.700  0.00  0.00    +0.000 N 
ATOM     26  C   UNL     1      -9.234  -2.184 125.337  0.00  0.00    +0.000 C 
ATOM     27  C   UNL     1      -9.072  -3.355 124.385  0.00  0.00    +0.000 C 
ATOM     28  C   UNL     1      -8.271  -2.907 123.180  0.00  0.00    +0.000 C 
ATOM     29  C   UNL     1      -6.899  -2.432 123.619  0.00  0.00    +0.000 C 
ATOM     30  C   UNL     1      -6.857  -1.531 124.847  0.00  0.00    +0.000 C 
ATOM     31  O   UNL     1      -5.806  -0.935 125.099  0.00  0.00    +0.000 OA
ENDBRANCH  22  25
ENDBRANCH   8  19
BRANCH   3  32
ATOM     32  C   UNL     1     -10.059   6.282 131.670  0.00  0.00    +0.000 C 
ATOM     33  N   UNL     1     -10.822   6.075 132.774  0.00  0.00    +0.000 N 
ATOM     34  O   UNL     1     -10.553   7.011 130.804  0.00  0.00    +0.000 OA
ATOM     35  H   UNL     1     -10.509   5.544 133.567  0.00  0.00    +0.000 HD
ATOM     36  H   UNL     1     -11.722   6.543 132.774  0.00  0.00    +0.000 HD
ENDBRANCH   3  32
TORSDOF 5
ENDMDL
MODEL 7
REMARK VINA RESULT:      -8.2      4.804      9.785
REMARK  Name = Apixaban
REMARK  6 active torsions:
REMARK  status: ('A' for Active; 'I' for Inactive)
REMARK    1  A    between atoms: C_1  and  O_2
REMARK    2  A    between atoms: O_2  and  C_3
REMARK    3  A    between atoms: C_6  and  N_9
REMARK    4  A    between atoms: C_11  and  C_12
REMARK    5  A    between atoms: N_19  and  C_22
REMARK    6  A    between atoms: C_25  and  N_28
REMARK                            x       y       z     vdW  Elec       q    Type
REMARK                         _______ _______ _______ _____ _____    ______ ____
ROOT
ATOM      1  N   UNL     1      -6.797  -2.700 129.892  0.00  0.00    +0.000 N 
ATOM      2  N   UNL     1      -6.096  -3.865 130.294  0.00  0.00    +0.000 NA
ATOM      3  C   UNL     1      -5.397  -3.513 131.402  0.00  0.00    +0.000 A 
ATOM      4  C   UNL     1      -5.729  -2.199 131.777  0.00  0.00    +0.000 A 
ATOM      5  C   UNL     1      -6.590  -1.659 130.833  0.00  0.00    +0.000 A 
ATOM      6  C   UNL     1      -7.088  -0.272 130.979  0.00  0.00    +0.000 C 
ATOM      7  O   UNL     1      -7.933   0.240 130.236  0.00  0.00    +0.000 OA
ATOM      8  N   UNL     1      -6.502   0.447 132.085  0.00  0.00    +0.000 N 
ATOM      9  C   UNL     1      -6.144  -0.309 133.285  0.00  0.00    +0.000 C 
ATOM     10  C   UNL     1      -5.234  -1.469 132.971  0.00  0.00    +0.000 C 
ENDROOT
BRANCH   1  14
ATOM     11  C   UNL     1      -8.974  -2.827 126.112  0.00  0.00    +0.000 A 
ATOM     12  C   UNL     1      -9.307  -3.663 127.183  0.00  0.00    +0.000 A 
ATOM     13  C   UNL     1      -8.625  -3.594 128.432  0.00  0.00    +0.000 A 
ATOM     14  C   UNL     1      -7.560  -2.705 128.638  0.00  0.00    +0.000 A 
ATOM     15  C   UNL     1      -7.275  -1.818 127.575  0.00  0.00    +0.000 A 
ATOM     16  C   UNL     1      -7.954  -1.902 126.318  0.00  0.00    +0.000 A 
BRANCH  11  18
ATOM     17  C   UNL     1      -9.147  -3.288 123.757  0.00  0.00    +0.000 C 
ATOM     18  O   UNL     1      -9.763  -2.920 124.992  0.00  0.00    +0.000 OA
ENDBRANCH  11  18
ENDBRANCH   1  14
BRANCH   8  19
ATOM     19  C   UNL     1      -5.958   1.771 131.970  0.00  0.00    +0.000 A 
ATOM     20  C   UNL     1      -6.610   2.882 132.503  0.00  0.00    +0.000 A 
ATOM     21  C   UNL     1      -6.051   4.171 132.375  0.00  0.00    +0.000 A 
ATOM     22  C   UNL     1      -4.814   4.381 131.753  0.00  0.00    +0.000 A 
ATOM     23  C   UNL     1      -4.149   3.273 131.227  0.00  0.00    +0.000 A 
ATOM     24  C   UNL     1      -4.700   1.981 131.367  0.00  0.00    +0.000 A 
BRANCH  22  25
ATOM     25  N   UNL     1      -4.266   5.702 131.705  0.00  0.00    +0.000 N 
ATOM     26  C   UNL     1      -3.289   6.035 132.752  0.00  0.00    +0.000 C 
ATOM     27  C   UNL     1      -3.112   7.529 132.957  0.00  0.00    +0.000 C 
ATOM     28  C   UNL     1      -2.794   8.178 131.626  0.00  0.00    +0.000 C 
ATOM     29  C   UNL     1      -3.932   7.943 130.652  0.00  0.00    +0.000 C 
ATOM     30  C   UNL     1      -4.506   6.531 130.611  0.00  0.00    +0.000 C 
ATOM     31  O   UNL     1      -5.262   6.235 129.681  0.00  0.00    +0.000 OA
ENDBRANCH  22  25
ENDBRANCH   8  19
BRANCH   3  32
ATOM     32  C   UNL     1      -4.419  -4.304 132.221  0.00  0.00    +0.000 C 
ATOM     33  N   UNL     1      -4.831  -5.293 133.055  0.00  0.00    +0.000 N 
ATOM     34  O   UNL     1      -3.199  -4.113 132.176  0.00  0.00    +0.000 OA
ATOM     35  H   UNL     1      -5.792  -5.576 133.138  0.00  0.00    +0.000 HD
ATOM     36  H   UNL     1      -4.094  -5.775 133.556  0.00  0.00    +0.000 HD
ENDBRANCH   3  32
TORSDOF 5
ENDMDL
MODEL 8
REMARK VINA RESULT:      -8.1      5.250     10.122
REMARK  Name = Apixaban
REMARK  6 active torsions:
REMARK  status: ('A' for Active; 'I' for Inactive)
REMARK    1  A    between atoms: C_1  and  O_2
REMARK    2  A    between atoms: O_2  and  C_3
REMARK    3  A    between atoms: C_6  and  N_9
REMARK    4  A    between atoms: C_11  and  C_12
REMARK    5  A    between atoms: N_19  and  C_22
REMARK    6  A    between atoms: C_25  and  N_28
REMARK                            x       y       z     vdW  Elec       q    Type
REMARK                         _______ _______ _______ _____ _____    ______ ____
ROOT
ATOM      1  N   UNL     1      -6.685   1.221 127.359  0.00  0.00    +0.000 N 
ATOM      2  N   UNL     1      -7.709   1.562 126.440  0.00  0.00    +0.000 NA
ATOM      3  C   UNL     1      -7.380   2.785 125.955  0.00  0.00    +0.000 A 
ATOM      4  C   UNL     1      -6.121   3.170 126.450  0.00  0.00    +0.000 A 
ATOM      5  C   UNL     1      -5.673   2.215 127.350  0.00  0.00    +0.000 A 
ATOM      6  C   UNL     1      -4.370   2.383 128.034  0.00  0.00    +0.000 C 
ATOM      7  O   UNL     1      -3.862   1.528 128.769  0.00  0.00    +0.000 OA
ATOM      8  N   UNL     1      -3.725   3.644 127.763  0.00  0.00    +0.000 N 
ATOM      9  C   UNL     1      -3.917   4.247 126.444  0.00  0.00    +0.000 C 
ATOM     10  C   UNL     1      -5.377   4.407 126.103  0.00  0.00    +0.000 C 
ENDROOT
BRANCH   1  14
ATOM     11  C   UNL     1      -7.150  -2.461 129.656  0.00  0.00    +0.000 A 
ATOM     12  C   UNL     1      -6.291  -2.382 128.554  0.00  0.00    +0.000 A 
ATOM     13  C   UNL     1      -6.106  -1.170 127.829  0.00  0.00    +0.000 A 
ATOM     14  C   UNL     1      -6.804  -0.001 128.164  0.00  0.00    +0.000 A 
ATOM     15  C   UNL     1      -7.617  -0.070 129.318  0.00  0.00    +0.000 A 
ATOM     16  C   UNL     1      -7.810  -1.295 130.034  0.00  0.00    +0.000 A 
BRANCH  11  18
ATOM     17  C   UNL     1      -6.056  -3.991 131.155  0.00  0.00    +0.000 C 
ATOM     18  O   UNL     1      -7.174  -3.655 130.332  0.00  0.00    +0.000 OA
ENDBRANCH  11  18
ENDBRANCH   1  14
BRANCH   8  19
ATOM     19  C   UNL     1      -3.182   4.493 128.788  0.00  0.00    +0.000 A 
ATOM     20  C   UNL     1      -2.431   5.627 128.481  0.00  0.00    +0.000 A 
ATOM     21  C   UNL     1      -1.912   6.442 129.509  0.00  0.00    +0.000 A 
ATOM     22  C   UNL     1      -2.161   6.173 130.861  0.00  0.00    +0.000 A 
ATOM     23  C   UNL     1      -2.922   5.047 131.176  0.00  0.00    +0.000 A 
ATOM     24  C   UNL     1      -3.454   4.239 130.148  0.00  0.00    +0.000 A 
BRANCH  22  25
ATOM     25  N   UNL     1      -1.660   7.068 131.860  0.00  0.00    +0.000 N 
ATOM     26  C   UNL     1      -0.333   6.750 132.406  0.00  0.00    +0.000 C 
ATOM     27  C   UNL     1      -0.063   7.402 133.750  0.00  0.00    +0.000 C 
ATOM     28  C   UNL     1      -0.314   8.892 133.638  0.00  0.00    +0.000 C 
ATOM     29  C   UNL     1      -1.756   9.145 133.245  0.00  0.00    +0.000 C 
ATOM     30  C   UNL     1      -2.318   8.266 132.133  0.00  0.00    +0.000 C 
ATOM     31  O   UNL     1      -3.395   8.588 131.622  0.00  0.00    +0.000 OA
ENDBRANCH  22  25
ENDBRANCH   8  19
BRANCH   3  32
ATOM     32  C   UNL     1      -8.123   3.683 125.009  0.00  0.00    +0.000 C 
ATOM     33  N   UNL     1      -8.029   3.526 123.664  0.00  0.00    +0.000 N 
ATOM     34  O   UNL     1      -8.862   4.595 125.394  0.00  0.00    +0.000 OA
ATOM     35  H   UNL     1      -7.501   2.788 123.232  0.00  0.00    +0.000 HD
ATOM     36  H   UNL     1      -8.577   4.176 123.111  0.00  0.00    +0.000 HD
ENDBRANCH   3  32
TORSDOF 5
ENDMDL
MODEL 9
REMARK VINA RESULT:      -8.1      5.501      9.309
REMARK  Name = Apixaban
REMARK  6 active torsions:
REMARK  status: ('A' for Active; 'I' for Inactive)
REMARK    1  A    between atoms: C_1  and  O_2
REMARK    2  A    between atoms: O_2  and  C_3
REMARK    3  A    between atoms: C_6  and  N_9
REMARK    4  A    between atoms: C_11  and  C_12
REMARK    5  A    between atoms: N_19  and  C_22
REMARK    6  A    between atoms: C_25  and  N_28
REMARK                            x       y       z     vdW  Elec       q    Type
REMARK                         _______ _______ _______ _____ _____    ______ ____
ROOT
ATOM      1  N   UNL     1      -7.398  -0.319 126.608  0.00  0.00    +0.000 N 
ATOM      2  N   UNL     1      -7.709  -0.848 125.330  0.00  0.00    +0.000 NA
ATOM      3  C   UNL     1      -8.063  -2.140 125.539  0.00  0.00    +0.000 A 
ATOM      4  C   UNL     1      -8.098  -2.407 126.919  0.00  0.00    +0.000 A 
ATOM      5  C   UNL     1      -7.665  -1.286 127.611  0.00  0.00    +0.000 A 
ATOM      6  C   UNL     1      -7.591  -1.300 129.090  0.00  0.00    +0.000 C 
ATOM      7  O   UNL     1      -7.312  -0.311 129.777  0.00  0.00    +0.000 OA
ATOM      8  N   UNL     1      -7.884  -2.585 129.678  0.00  0.00    +0.000 N 
ATOM      9  C   UNL     1      -8.861  -3.442 129.008  0.00  0.00    +0.000 C 
ATOM     10  C   UNL     1      -8.506  -3.681 127.562  0.00  0.00    +0.000 C 
ENDROOT
BRANCH   1  14
ATOM     11  C   UNL     1      -5.832   3.750 126.809  0.00  0.00    +0.000 A 
ATOM     12  C   UNL     1      -7.132   3.438 127.222  0.00  0.00    +0.000 A 
ATOM     13  C   UNL     1      -7.631   2.104 127.197  0.00  0.00    +0.000 A 
ATOM     14  C   UNL     1      -6.852   1.038 126.722  0.00  0.00    +0.000 A 
ATOM     15  C   UNL     1      -5.519   1.350 126.372  0.00  0.00    +0.000 A 
ATOM     16  C   UNL     1      -5.028   2.695 126.386  0.00  0.00    +0.000 A 
BRANCH  11  18
ATOM     17  C   UNL     1      -4.217   5.309 127.672  0.00  0.00    +0.000 C 
ATOM     18  O   UNL     1      -5.433   5.053 126.968  0.00  0.00    +0.000 OA
ENDBRANCH  11  18
ENDBRANCH   1  14
BRANCH   8  19
ATOM     19  C   UNL     1      -7.060  -3.204 130.679  0.00  0.00    +0.000 A 
ATOM     20  C   UNL     1      -6.134  -4.196 130.358  0.00  0.00    +0.000 A 
ATOM     21  C   UNL     1      -5.338  -4.785 131.363  0.00  0.00    +0.000 A 
ATOM     22  C   UNL     1      -5.413  -4.375 132.699  0.00  0.00    +0.000 A 
ATOM     23  C   UNL     1      -6.328  -3.374 133.028  0.00  0.00    +0.000 A 
ATOM     24  C   UNL     1      -7.116  -2.774 132.021  0.00  0.00    +0.000 A 
BRANCH  22  25
ATOM     25  N   UNL     1      -4.538  -4.966 133.667  0.00  0.00    +0.000 N 
ATOM     26  C   UNL     1      -5.122  -6.020 134.508  0.00  0.00    +0.000 C 
ATOM     27  C   UNL     1      -4.349  -6.263 135.792  0.00  0.00    +0.000 C 
ATOM     28  C   UNL     1      -2.894  -6.515 135.455  0.00  0.00    +0.000 C 
ATOM     29  C   UNL     1      -2.312  -5.307 134.746  0.00  0.00    +0.000 C 
ATOM     30  C   UNL     1      -3.174  -4.683 133.655  0.00  0.00    +0.000 C 
ATOM     31  O   UNL     1      -2.652  -3.858 132.899  0.00  0.00    +0.000 OA
ENDBRANCH  22  25
ENDBRANCH   8  19
BRANCH   3  32
ATOM     32  C   UNL     1      -8.419  -3.217 124.556  0.00  0.00    +0.000 C 
ATOM     33  N   UNL     1      -9.665  -3.303 124.021  0.00  0.00    +0.000 N 
ATOM     34  O   UNL     1      -7.610  -4.068 124.172  0.00  0.00    +0.000 OA
ATOM     35  H   UNL     1     -10.393  -2.638 124.216  0.00  0.00    +0.000 HD
ATOM     36  H   UNL     1      -9.803  -4.059 123.360  0.00  0.00    +0.000 HD
ENDBRANCH   3  32
TORSDOF 5
ENDMDL
