MODEL 1
REMARK VINA RESULT:      -7.2      0.000      0.000
REMARK  Name = Apomorphine
REMARK  3 active torsions:
REMARK  status: ('A' for Active; 'I' for Inactive)
REMARK    1  A    between atoms: C_6  and  O_7
REMARK    2  A    between atoms: C_8  and  O_9
REMARK    3  A    between atoms: N_19  and  C_20
REMARK                            x       y       z     vdW  Elec       q    Type
REMARK                         _______ _______ _______ _____ _____    ______ ____
ROOT
ATOM      1  C   UNL     1      -6.954  -0.984 124.648  0.00  0.00    +0.000 C 
ATOM      2  C   UNL     1      -5.922  -0.176 125.401  0.00  0.00    +0.000 C 
ATOM      3  C   UNL     1      -6.099   1.305 125.382  0.00  0.00    +0.000 A 
ATOM      4  C   UNL     1      -7.154   1.974 124.695  0.00  0.00    +0.000 A 
ATOM      5  C   UNL     1      -7.115   3.376 124.852  0.00  0.00    +0.000 A 
ATOM      6  C   UNL     1      -6.120   4.015 125.629  0.00  0.00    +0.000 A 
ATOM      7  C   UNL     1      -5.131   3.332 126.290  0.00  0.00    +0.000 A 
ATOM      8  C   UNL     1      -5.118   1.967 126.160  0.00  0.00    +0.000 A 
ATOM      9  C   UNL     1      -8.165   1.150 123.927  0.00  0.00    +0.000 A 
ATOM     10  C   UNL     1      -9.261   1.640 123.190  0.00  0.00    +0.000 A 
ATOM     11  C   UNL     1     -10.156   0.820 122.479  0.00  0.00    +0.000 A 
ATOM     12  C   UNL     1     -10.019  -0.555 122.489  0.00  0.00    +0.000 A 
ATOM     13  C   UNL     1      -8.980  -1.113 123.224  0.00  0.00    +0.000 A 
ATOM     14  C   UNL     1      -8.862  -2.636 123.340  0.00  0.00    +0.000 C 
ATOM     15  C   UNL     1      -7.792  -3.143 124.349  0.00  0.00    +0.000 C 
ATOM     16  N   UNL     1      -7.589  -2.104 125.352  0.00  0.00    +0.000 NA
ATOM     17  C   UNL     1      -7.163  -2.445 126.688  0.00  0.00    +0.000 C 
ATOM     18  C   UNL     1      -8.060  -0.260 123.921  0.00  0.00    +0.000 A 
ENDROOT
BRANCH   5  19
ATOM     19  O   UNL     1      -7.971   4.310 124.332  0.00  0.00    +0.000 OA
ATOM     20  H   UNL     1      -8.544   3.894 123.682  0.00  0.00    +0.000 HD
ENDBRANCH   5  19
BRANCH   6  21
ATOM     21  O   UNL     1      -6.138   5.380 125.732  0.00  0.00    +0.000 OA
ATOM     22  H   UNL     1      -5.851   5.535 126.655  0.00  0.00    +0.000 HD
ENDBRANCH   6  21
TORSDOF 2
ENDMDL
MODEL 2
REMARK VINA RESULT:      -7.0      3.209      5.806
REMARK  Name = Apomorphine
REMARK  3 active torsions:
REMARK  status: ('A' for Active; 'I' for Inactive)
REMARK    1  A    between atoms: C_6  and  O_7
REMARK    2  A    between atoms: C_8  and  O_9
REMARK    3  A    between atoms: N_19  and  C_20
REMARK                            x       y       z     vdW  Elec       q    Type
REMARK                         _______ _______ _______ _____ _____    ______ ____
ROOT
ATOM      1  C   UNL     1      -5.572  -1.106 127.603  0.00  0.00    +0.000 C 
ATOM      2  C   UNL     1      -5.639  -0.432 126.252  0.00  0.00    +0.000 C 
ATOM      3  C   UNL     1      -6.808  -0.783 125.394  0.00  0.00    +0.000 A 
ATOM      4  C   UNL     1      -7.825  -1.707 125.771  0.00  0.00    +0.000 A 
ATOM      5  C   UNL     1      -8.836  -1.847 124.795  0.00  0.00    +0.000 A 
ATOM      6  C   UNL     1      -8.812  -1.118 123.584  0.00  0.00    +0.000 A 
ATOM      7  C   UNL     1      -7.822  -0.222 123.267  0.00  0.00    +0.000 A 
ATOM      8  C   UNL     1      -6.810  -0.057 124.177  0.00  0.00    +0.000 A 
ATOM      9  C   UNL     1      -7.729  -2.391 127.118  0.00  0.00    +0.000 A 
ATOM     10  C   UNL     1      -8.634  -3.332 127.648  0.00  0.00    +0.000 A 
ATOM     11  C   UNL     1      -8.478  -3.948 128.903  0.00  0.00    +0.000 A 
ATOM     12  C   UNL     1      -7.409  -3.632 129.720  0.00  0.00    +0.000 A 
ATOM     13  C   UNL     1      -6.492  -2.685 129.278  0.00  0.00    +0.000 A 
ATOM     14  C   UNL     1      -5.355  -2.239 130.201  0.00  0.00    +0.000 C 
ATOM     15  C   UNL     1      -4.518  -1.032 129.685  0.00  0.00    +0.000 C 
ATOM     16  N   UNL     1      -5.356  -0.255 128.779  0.00  0.00    +0.000 NA
ATOM     17  C   UNL     1      -5.139   1.161 128.609  0.00  0.00    +0.000 C 
ATOM     18  C   UNL     1      -6.653  -2.087 127.983  0.00  0.00    +0.000 A 
ENDROOT
BRANCH   5  19
ATOM     19  O   UNL     1      -9.949  -2.644 124.838  0.00  0.00    +0.000 OA
ATOM     20  H   UNL     1     -10.665  -2.172 125.271  0.00  0.00    +0.000 HD
ENDBRANCH   5  19
BRANCH   6  21
ATOM     21  O   UNL     1      -9.821  -1.308 122.678  0.00  0.00    +0.000 OA
ATOM     22  H   UNL     1      -9.440  -0.959 121.847  0.00  0.00    +0.000 HD
ENDBRANCH   6  21
TORSDOF 2
ENDMDL
MODEL 3
REMARK VINA RESULT:      -6.8      2.649      4.018
REMARK  Name = Apomorphine
REMARK  3 active torsions:
REMARK  status: ('A' for Active; 'I' for Inactive)
REMARK    1  A    between atoms: C_6  and  O_7
REMARK    2  A    between atoms: C_8  and  O_9
REMARK    3  A    between atoms: N_19  and  C_20
REMARK                            x       y       z     vdW  Elec       q    Type
REMARK                         _______ _______ _______ _____ _____    ______ ____
ROOT
ATOM      1  C   UNL     1      -7.662  -1.022 124.683  0.00  0.00    +0.000 C 
ATOM      2  C   UNL     1      -6.774   0.200 124.713  0.00  0.00    +0.000 C 
ATOM      3  C   UNL     1      -6.168   0.547 126.031  0.00  0.00    +0.000 A 
ATOM      4  C   UNL     1      -6.393  -0.189 127.230  0.00  0.00    +0.000 A 
ATOM      5  C   UNL     1      -5.685   0.327 128.338  0.00  0.00    +0.000 A 
ATOM      6  C   UNL     1      -4.840   1.455 128.225  0.00  0.00    +0.000 A 
ATOM      7  C   UNL     1      -4.636   2.126 127.046  0.00  0.00    +0.000 A 
ATOM      8  C   UNL     1      -5.309   1.670 125.942  0.00  0.00    +0.000 A 
ATOM      9  C   UNL     1      -7.305  -1.396 127.188  0.00  0.00    +0.000 A 
ATOM     10  C   UNL     1      -7.644  -2.231 128.271  0.00  0.00    +0.000 A 
ATOM     11  C   UNL     1      -8.515  -3.331 128.170  0.00  0.00    +0.000 A 
ATOM     12  C   UNL     1      -9.081  -3.677 126.958  0.00  0.00    +0.000 A 
ATOM     13  C   UNL     1      -8.765  -2.920 125.836  0.00  0.00    +0.000 A 
ATOM     14  C   UNL     1      -9.293  -3.340 124.462  0.00  0.00    +0.000 C 
ATOM     15  C   UNL     1      -8.711  -2.544 123.257  0.00  0.00    +0.000 C 
ATOM     16  N   UNL     1      -7.404  -2.027 123.647  0.00  0.00    +0.000 NA
ATOM     17  C   UNL     1      -6.383  -1.789 122.655  0.00  0.00    +0.000 C 
ATOM     18  C   UNL     1      -7.895  -1.785 125.964  0.00  0.00    +0.000 A 
ENDROOT
BRANCH   5  19
ATOM     19  O   UNL     1      -5.675  -0.136 129.627  0.00  0.00    +0.000 OA
ATOM     20  H   UNL     1      -5.097   0.415 130.162  0.00  0.00    +0.000 HD
ENDBRANCH   5  19
BRANCH   6  21
ATOM     21  O   UNL     1      -4.189   1.908 129.342  0.00  0.00    +0.000 OA
ATOM     22  H   UNL     1      -4.504   1.300 130.042  0.00  0.00    +0.000 HD
ENDBRANCH   6  21
TORSDOF 2
ENDMDL
MODEL 4
REMARK VINA RESULT:      -6.7      2.911      4.721
REMARK  Name = Apomorphine
REMARK  3 active torsions:
REMARK  status: ('A' for Active; 'I' for Inactive)
REMARK    1  A    between atoms: C_6  and  O_7
REMARK    2  A    between atoms: C_8  and  O_9
REMARK    3  A    between atoms: N_19  and  C_20
REMARK                            x       y       z     vdW  Elec       q    Type
REMARK                         _______ _______ _______ _____ _____    ______ ____
ROOT
ATOM      1  C   UNL     1      -7.399  -0.002 128.396  0.00  0.00    +0.000 C 
ATOM      2  C   UNL     1      -7.379   1.326 127.674  0.00  0.00    +0.000 C 
ATOM      3  C   UNL     1      -7.994   1.350 126.315  0.00  0.00    +0.000 A 
ATOM      4  C   UNL     1      -8.568   0.213 125.679  0.00  0.00    +0.000 A 
ATOM      5  C   UNL     1      -9.106   0.503 124.406  0.00  0.00    +0.000 A 
ATOM      6  C   UNL     1      -9.069   1.806 123.858  0.00  0.00    +0.000 A 
ATOM      7  C   UNL     1      -8.522   2.880 124.513  0.00  0.00    +0.000 A 
ATOM      8  C   UNL     1      -7.976   2.649 125.749  0.00  0.00    +0.000 A 
ATOM      9  C   UNL     1      -8.559  -1.115 126.405  0.00  0.00    +0.000 A 
ATOM     10  C   UNL     1      -9.072  -2.337 125.929  0.00  0.00    +0.000 A 
ATOM     11  C   UNL     1      -9.016  -3.545 126.648  0.00  0.00    +0.000 A 
ATOM     12  C   UNL     1      -8.460  -3.591 127.912  0.00  0.00    +0.000 A 
ATOM     13  C   UNL     1      -7.964  -2.416 128.463  0.00  0.00    +0.000 A 
ATOM     14  C   UNL     1      -7.436  -2.414 129.901  0.00  0.00    +0.000 C 
ATOM     15  C   UNL     1      -7.100  -1.009 130.481  0.00  0.00    +0.000 C 
ATOM     16  N   UNL     1      -7.907  -0.022 129.772  0.00  0.00    +0.000 NA
ATOM     17  C   UNL     1      -8.290   1.212 130.413  0.00  0.00    +0.000 C 
ATOM     18  C   UNL     1      -8.005  -1.199 127.704  0.00  0.00    +0.000 A 
ENDROOT
BRANCH   5  19
ATOM     19  O   UNL     1      -9.726  -0.352 123.534  0.00  0.00    +0.000 OA
ATOM     20  H   UNL     1     -10.675  -0.199 123.555  0.00  0.00    +0.000 HD
ENDBRANCH   5  19
BRANCH   6  21
ATOM     21  O   UNL     1      -9.603   2.015 122.614  0.00  0.00    +0.000 OA
ATOM     22  H   UNL     1      -9.402   2.957 122.444  0.00  0.00    +0.000 HD
ENDBRANCH   6  21
TORSDOF 2
ENDMDL
MODEL 5
REMARK VINA RESULT:      -6.7      9.244     10.206
REMARK  Name = Apomorphine
REMARK  3 active torsions:
REMARK  status: ('A' for Active; 'I' for Inactive)
REMARK    1  A    between atoms: C_6  and  O_7
REMARK    2  A    between atoms: C_8  and  O_9
REMARK    3  A    between atoms: N_19  and  C_20
REMARK                            x       y       z     vdW  Elec       q    Type
REMARK                         _______ _______ _______ _____ _____    ______ ____
ROOT
ATOM      1  C   UNL     1      -4.152   4.591 133.201  0.00  0.00    +0.000 C 
ATOM      2  C   UNL     1      -5.330   3.972 133.917  0.00  0.00    +0.000 C 
ATOM      3  C   UNL     1      -6.678   4.497 133.550  0.00  0.00    +0.000 A 
ATOM      4  C   UNL     1      -6.898   5.532 132.596  0.00  0.00    +0.000 A 
ATOM      5  C   UNL     1      -8.265   5.830 132.409  0.00  0.00    +0.000 A 
ATOM      6  C   UNL     1      -9.283   5.141 133.107  0.00  0.00    +0.000 A 
ATOM      7  C   UNL     1      -9.029   4.135 134.005  0.00  0.00    +0.000 A 
ATOM      8  C   UNL     1      -7.715   3.815 134.232  0.00  0.00    +0.000 A 
ATOM      9  C   UNL     1      -5.705   6.157 131.905  0.00  0.00    +0.000 A 
ATOM     10  C   UNL     1      -5.735   7.189 130.947  0.00  0.00    +0.000 A 
ATOM     11  C   UNL     1      -4.585   7.741 130.354  0.00  0.00    +0.000 A 
ATOM     12  C   UNL     1      -3.327   7.266 130.671  0.00  0.00    +0.000 A 
ATOM     13  C   UNL     1      -3.220   6.223 131.584  0.00  0.00    +0.000 A 
ATOM     14  C   UNL     1      -1.849   5.607 131.877  0.00  0.00    +0.000 C 
ATOM     15  C   UNL     1      -1.876   4.319 132.752  0.00  0.00    +0.000 C 
ATOM     16  N   UNL     1      -3.179   3.684 132.581  0.00  0.00    +0.000 NA
ATOM     17  C   UNL     1      -3.327   2.258 132.738  0.00  0.00    +0.000 C 
ATOM     18  C   UNL     1      -4.403   5.691 132.199  0.00  0.00    +0.000 A 
ENDROOT
BRANCH   5  19
ATOM     19  O   UNL     1      -8.821   6.761 131.573  0.00  0.00    +0.000 OA
ATOM     20  H   UNL     1      -9.714   6.964 131.867  0.00  0.00    +0.000 HD
ENDBRANCH   5  19
BRANCH   6  21
ATOM     21  O   UNL     1     -10.589   5.486 132.882  0.00  0.00    +0.000 OA
ATOM     22  H   UNL     1     -10.771   5.100 132.001  0.00  0.00    +0.000 HD
ENDBRANCH   6  21
TORSDOF 2
ENDMDL
MODEL 6
REMARK VINA RESULT:      -6.7      3.394      4.766
REMARK  Name = Apomorphine
REMARK  3 active torsions:
REMARK  status: ('A' for Active; 'I' for Inactive)
REMARK    1  A    between atoms: C_6  and  O_7
REMARK    2  A    between atoms: C_8  and  O_9
REMARK    3  A    between atoms: N_19  and  C_20
REMARK                            x       y       z     vdW  Elec       q    Type
REMARK                         _______ _______ _______ _____ _____    ______ ____
ROOT
ATOM      1  C   UNL     1      -9.215   0.474 125.037  0.00  0.00    +0.000 C 
ATOM      2  C   UNL     1      -8.913   1.158 126.350  0.00  0.00    +0.000 C 
ATOM      3  C   UNL     1      -8.253   0.324 127.395  0.00  0.00    +0.000 A 
ATOM      4  C   UNL     1      -7.918  -1.050 127.225  0.00  0.00    +0.000 A 
ATOM      5  C   UNL     1      -7.277  -1.608 128.353  0.00  0.00    +0.000 A 
ATOM      6  C   UNL     1      -7.003  -0.844 129.511  0.00  0.00    +0.000 A 
ATOM      7  C   UNL     1      -7.327   0.484 129.628  0.00  0.00    +0.000 A 
ATOM      8  C   UNL     1      -7.961   1.071 128.563  0.00  0.00    +0.000 A 
ATOM      9  C   UNL     1      -8.249  -1.727 125.912  0.00  0.00    +0.000 A 
ATOM     10  C   UNL     1      -7.998  -3.071 125.574  0.00  0.00    +0.000 A 
ATOM     11  C   UNL     1      -8.348  -3.647 124.338  0.00  0.00    +0.000 A 
ATOM     12  C   UNL     1      -8.952  -2.892 123.351  0.00  0.00    +0.000 A 
ATOM     13  C   UNL     1      -9.200  -1.547 123.600  0.00  0.00    +0.000 A 
ATOM     14  C   UNL     1      -9.772  -0.661 122.490  0.00  0.00    +0.000 C 
ATOM     15  C   UNL     1      -9.815   0.861 122.813  0.00  0.00    +0.000 C 
ATOM     16  N   UNL     1      -8.781   1.141 123.804  0.00  0.00    +0.000 NA
ATOM     17  C   UNL     1      -8.163   2.443 123.874  0.00  0.00    +0.000 C 
ATOM     18  C   UNL     1      -8.860  -0.984 124.876  0.00  0.00    +0.000 A 
ENDROOT
BRANCH   5  19
ATOM     19  O   UNL     1      -6.825  -2.890 128.522  0.00  0.00    +0.000 OA
ATOM     20  H   UNL     1      -6.467  -2.990 129.408  0.00  0.00    +0.000 HD
ENDBRANCH   5  19
BRANCH   6  21
ATOM     21  O   UNL     1      -6.386  -1.451 130.572  0.00  0.00    +0.000 OA
ATOM     22  H   UNL     1      -5.534  -0.973 130.634  0.00  0.00    +0.000 HD
ENDBRANCH   6  21
TORSDOF 2
ENDMDL
MODEL 7
REMARK VINA RESULT:      -6.5      3.496      6.080
REMARK  Name = Apomorphine
REMARK  3 active torsions:
REMARK  status: ('A' for Active; 'I' for Inactive)
REMARK    1  A    between atoms: C_6  and  O_7
REMARK    2  A    between atoms: C_8  and  O_9
REMARK    3  A    between atoms: N_19  and  C_20
REMARK                            x       y       z     vdW  Elec       q    Type
REMARK                         _______ _______ _______ _____ _____    ______ ____
ROOT
ATOM      1  C   UNL     1      -8.044  -2.521 129.325  0.00  0.00    +0.000 C 
ATOM      2  C   UNL     1      -8.294  -3.437 128.149  0.00  0.00    +0.000 C 
ATOM      3  C   UNL     1      -8.344  -2.792 126.805  0.00  0.00    +0.000 A 
ATOM      4  C   UNL     1      -8.187  -1.393 126.586  0.00  0.00    +0.000 A 
ATOM      5  C   UNL     1      -8.249  -1.036 125.222  0.00  0.00    +0.000 A 
ATOM      6  C   UNL     1      -8.439  -1.999 124.204  0.00  0.00    +0.000 A 
ATOM      7  C   UNL     1      -8.568  -3.342 124.457  0.00  0.00    +0.000 A 
ATOM      8  C   UNL     1      -8.525  -3.740 125.768  0.00  0.00    +0.000 A 
ATOM      9  C   UNL     1      -7.960  -0.486 127.777  0.00  0.00    +0.000 A 
ATOM     10  C   UNL     1      -7.792   0.912 127.748  0.00  0.00    +0.000 A 
ATOM     11  C   UNL     1      -7.604   1.703 128.896  0.00  0.00    +0.000 A 
ATOM     12  C   UNL     1      -7.545   1.127 130.151  0.00  0.00    +0.000 A 
ATOM     13  C   UNL     1      -7.668  -0.254 130.255  0.00  0.00    +0.000 A 
ATOM     14  C   UNL     1      -7.503  -0.931 131.619  0.00  0.00    +0.000 C 
ATOM     15  C   UNL     1      -7.455  -2.486 131.584  0.00  0.00    +0.000 C 
ATOM     16  N   UNL     1      -6.982  -2.894 130.266  0.00  0.00    +0.000 NA
ATOM     17  C   UNL     1      -6.276  -4.140 130.092  0.00  0.00    +0.000 C 
ATOM     18  C   UNL     1      -7.886  -1.041 129.075  0.00  0.00    +0.000 A 
ENDROOT
BRANCH   5  19
ATOM     19  O   UNL     1      -8.136   0.212 124.667  0.00  0.00    +0.000 OA
ATOM     20  H   UNL     1      -8.881   0.371 124.081  0.00  0.00    +0.000 HD
ENDBRANCH   5  19
BRANCH   6  21
ATOM     21  O   UNL     1      -8.497  -1.582 122.901  0.00  0.00    +0.000 OA
ATOM     22  H   UNL     1      -7.862  -2.175 122.451  0.00  0.00    +0.000 HD
ENDBRANCH   6  21
TORSDOF 2
ENDMDL
MODEL 8
REMARK VINA RESULT:      -6.3      2.475      5.164
REMARK  Name = Apomorphine
REMARK  3 active torsions:
REMARK  status: ('A' for Active; 'I' for Inactive)
REMARK    1  A    between atoms: C_6  and  O_7
REMARK    2  A    between atoms: C_8  and  O_9
REMARK    3  A    between atoms: N_19  and  C_20
REMARK                            x       y       z     vdW  Elec       q    Type
REMARK                         _______ _______ _______ _____ _____    ______ ____
ROOT
ATOM      1  C   UNL     1      -6.468   1.307 127.597  0.00  0.00    +0.000 C 
ATOM      2  C   UNL     1      -7.716   1.117 126.767  0.00  0.00    +0.000 C 
ATOM      3  C   UNL     1      -7.791   1.895 125.496  0.00  0.00    +0.000 A 
ATOM      4  C   UNL     1      -6.779   2.793 125.050  0.00  0.00    +0.000 A 
ATOM      5  C   UNL     1      -7.076   3.388 123.804  0.00  0.00    +0.000 A 
ATOM      6  C   UNL     1      -8.263   3.088 123.097  0.00  0.00    +0.000 A 
ATOM      7  C   UNL     1      -9.205   2.201 123.553  0.00  0.00    +0.000 A 
ATOM      8  C   UNL     1      -8.969   1.605 124.765  0.00  0.00    +0.000 A 
ATOM      9  C   UNL     1      -5.546   2.990 125.906  0.00  0.00    +0.000 A 
ATOM     10  C   UNL     1      -4.456   3.837 125.626  0.00  0.00    +0.000 A 
ATOM     11  C   UNL     1      -3.344   3.991 126.475  0.00  0.00    +0.000 A 
ATOM     12  C   UNL     1      -3.248   3.274 127.652  0.00  0.00    +0.000 A 
ATOM     13  C   UNL     1      -4.270   2.390 127.978  0.00  0.00    +0.000 A 
ATOM     14  C   UNL     1      -4.144   1.506 129.223  0.00  0.00    +0.000 C 
ATOM     15  C   UNL     1      -5.244   0.416 129.375  0.00  0.00    +0.000 C 
ATOM     16  N   UNL     1      -5.758   0.104 128.046  0.00  0.00    +0.000 NA
ATOM     17  C   UNL     1      -6.303  -1.200 127.756  0.00  0.00    +0.000 C 
ATOM     18  C   UNL     1      -5.409   2.268 127.113  0.00  0.00    +0.000 A 
ENDROOT
BRANCH   5  19
ATOM     19  O   UNL     1      -6.325   4.288 123.096  0.00  0.00    +0.000 OA
ATOM     20  H   UNL     1      -5.452   3.920 122.933  0.00  0.00    +0.000 HD
ENDBRANCH   5  19
BRANCH   6  21
ATOM     21  O   UNL     1      -8.491   3.707 121.896  0.00  0.00    +0.000 OA
ATOM     22  H   UNL     1      -9.220   4.326 122.103  0.00  0.00    +0.000 HD
ENDBRANCH   6  21
TORSDOF 2
ENDMDL
MODEL 9
REMARK VINA RESULT:      -6.3     15.228     18.147
REMARK  Name = Apomorphine
REMARK  3 active torsions:
REMARK  status: ('A' for Active; 'I' for Inactive)
REMARK    1  A    between atoms: C_6  and  O_7
REMARK    2  A    between atoms: C_8  and  O_9
REMARK    3  A    between atoms: N_19  and  C_20
REMARK                            x       y       z     vdW  Elec       q    Type
REMARK                         _______ _______ _______ _____ _____    ______ ____
ROOT
ATOM      1  C   UNL     1      -8.918  11.315 139.582  0.00  0.00    +0.000 C 
ATOM      2  C   UNL     1      -9.403   9.970 139.093  0.00  0.00    +0.000 C 
ATOM      3  C   UNL     1      -8.384   9.094 138.445  0.00  0.00    +0.000 A 
ATOM      4  C   UNL     1      -7.021   9.461 138.256  0.00  0.00    +0.000 A 
ATOM      5  C   UNL     1      -6.254   8.448 137.640  0.00  0.00    +0.000 A 
ATOM      6  C   UNL     1      -6.817   7.204 137.273  0.00  0.00    +0.000 A 
ATOM      7  C   UNL     1      -8.133   6.883 137.489  0.00  0.00    +0.000 A 
ATOM      8  C   UNL     1      -8.924   7.838 138.075  0.00  0.00    +0.000 A 
ATOM      9  C   UNL     1      -6.557  10.822 138.731  0.00  0.00    +0.000 A 
ATOM     10  C   UNL     1      -5.256  11.351 138.621  0.00  0.00    +0.000 A 
ATOM     11  C   UNL     1      -4.892  12.635 139.066  0.00  0.00    +0.000 A 
ATOM     12  C   UNL     1      -5.815  13.461 139.678  0.00  0.00    +0.000 A 
ATOM     13  C   UNL     1      -7.113  12.993 139.853  0.00  0.00    +0.000 A 
ATOM     14  C   UNL     1      -8.131  13.842 140.620  0.00  0.00    +0.000 C 
ATOM     15  C   UNL     1      -9.482  13.135 140.932  0.00  0.00    +0.000 C 
ATOM     16  N   UNL     1      -9.242  11.696 140.961  0.00  0.00    +0.000 NA
ATOM     17  C   UNL     1     -10.066  10.831 141.770  0.00  0.00    +0.000 C 
ATOM     18  C   UNL     1      -7.472  11.690 139.368  0.00  0.00    +0.000 A 
ENDROOT
BRANCH   5  19
ATOM     19  O   UNL     1      -4.923   8.472 137.318  0.00  0.00    +0.000 OA
ATOM     20  H   UNL     1      -4.608   9.380 137.323  0.00  0.00    +0.000 HD
ENDBRANCH   5  19
BRANCH   6  21
ATOM     21  O   UNL     1      -6.017   6.269 136.672  0.00  0.00    +0.000 OA
ATOM     22  H   UNL     1      -6.658   5.597 136.363  0.00  0.00    +0.000 HD
ENDBRANCH   6  21
TORSDOF 2
ENDMDL
