MODEL 1
REMARK VINA RESULT:      -5.9      0.000      0.000
REMARK  Name = Apraclonidine
REMARK  2 active torsions:
REMARK  status: ('A' for Active; 'I' for Inactive)
REMARK    1  A    between atoms: N_1  and  C_2
REMARK    2  A    between atoms: C_6  and  N_7
REMARK                            x       y       z     vdW  Elec       q    Type
REMARK                         _______ _______ _______ _____ _____    ______ ____
ROOT
ATOM      1  C   UNL     1      -6.100   5.322 118.900  0.00  0.00    +0.000 A 
ATOM      2  C   UNL     1      -5.069   5.284 119.828  0.00  0.00    +0.000 A 
ATOM      3  C   UNL     1      -5.219   4.581 121.039  0.00  0.00    +0.000 A 
ATOM      4 CL   UNL     1      -3.870   4.613 122.132  0.00  0.00    +0.000 Cl
ATOM      5  C   UNL     1      -6.414   3.894 121.376  0.00  0.00    +0.000 A 
ATOM      6  C   UNL     1      -7.450   3.985 120.425  0.00  0.00    +0.000 A 
ATOM      7 CL   UNL     1      -9.060   3.398 120.603  0.00  0.00    +0.000 Cl
ATOM      8  C   UNL     1      -7.275   4.659 119.207  0.00  0.00    +0.000 A 
ENDROOT
BRANCH   5   9
ATOM      9  N   UNL     1      -6.419   3.076 122.554  0.00  0.00    +0.000 N 
ATOM     10  C   UNL     1      -6.656   3.526 123.821  0.00  0.00    +0.000 C 
ATOM     11  N   UNL     1      -5.763   3.720 124.745  0.00  0.00    +0.000 NA
ATOM     12  C   UNL     1      -6.573   4.215 125.910  0.00  0.00    +0.000 C 
ATOM     13  C   UNL     1      -7.951   4.563 125.345  0.00  0.00    +0.000 C 
ATOM     14  N   UNL     1      -7.960   3.719 124.172  0.00  0.00    +0.000 N 
ATOM     15  H   UNL     1      -5.601   2.469 122.530  0.00  0.00    +0.000 HD
ATOM     16  H   UNL     1      -8.603   3.936 123.425  0.00  0.00    +0.000 HD
ENDBRANCH   5   9
BRANCH   1  17
ATOM     17  N   UNL     1      -5.952   5.902 117.654  0.00  0.00    +0.000 N 
ATOM     18  H   UNL     1      -6.605   5.704 116.908  0.00  0.00    +0.000 HD
ATOM     19  H   UNL     1      -5.058   6.302 117.393  0.00  0.00    +0.000 HD
ENDBRANCH   1  17
TORSDOF 2
ENDMDL
MODEL 2
REMARK VINA RESULT:      -5.9      8.379      9.842
REMARK  Name = Apraclonidine
REMARK  2 active torsions:
REMARK  status: ('A' for Active; 'I' for Inactive)
REMARK    1  A    between atoms: N_1  and  C_2
REMARK    2  A    between atoms: C_6  and  N_7
REMARK                            x       y       z     vdW  Elec       q    Type
REMARK                         _______ _______ _______ _____ _____    ______ ____
ROOT
ATOM      1  C   UNL     1     -12.559   9.035 129.014  0.00  0.00    +0.000 A 
ATOM      2  C   UNL     1     -12.599   8.382 130.239  0.00  0.00    +0.000 A 
ATOM      3  C   UNL     1     -11.831   7.222 130.459  0.00  0.00    +0.000 A 
ATOM      4 CL   UNL     1     -11.970   6.480 132.022  0.00  0.00    +0.000 Cl
ATOM      5  C   UNL     1     -10.998   6.660 129.457  0.00  0.00    +0.000 A 
ATOM      6  C   UNL     1     -11.011   7.331 128.217  0.00  0.00    +0.000 A 
ATOM      7 CL   UNL     1     -10.237   6.818 126.766  0.00  0.00    +0.000 Cl
ATOM      8  C   UNL     1     -11.753   8.505 128.023  0.00  0.00    +0.000 A 
ENDROOT
BRANCH   5   9
ATOM      9  N   UNL     1     -10.134   5.574 129.820  0.00  0.00    +0.000 N 
ATOM     10  C   UNL     1      -8.828   5.702 130.194  0.00  0.00    +0.000 C 
ATOM     11  N   UNL     1      -7.790   5.429 129.459  0.00  0.00    +0.000 NA
ATOM     12  C   UNL     1      -6.633   5.756 130.361  0.00  0.00    +0.000 C 
ATOM     13  C   UNL     1      -7.222   6.547 131.529  0.00  0.00    +0.000 C 
ATOM     14  N   UNL     1      -8.590   6.081 131.482  0.00  0.00    +0.000 N 
ATOM     15  H   UNL     1     -10.246   4.829 129.135  0.00  0.00    +0.000 HD
ATOM     16  H   UNL     1      -9.304   6.634 131.931  0.00  0.00    +0.000 HD
ENDBRANCH   5   9
BRANCH   1  17
ATOM     17  N   UNL     1     -13.205  10.237 128.797  0.00  0.00    +0.000 N 
ATOM     18  H   UNL     1     -13.280  10.926 129.532  0.00  0.00    +0.000 HD
ATOM     19  H   UNL     1     -13.838  10.329 128.010  0.00  0.00    +0.000 HD
ENDBRANCH   1  17
TORSDOF 2
ENDMDL
MODEL 3
REMARK VINA RESULT:      -5.7      0.875      2.527
REMARK  Name = Apraclonidine
REMARK  2 active torsions:
REMARK  status: ('A' for Active; 'I' for Inactive)
REMARK    1  A    between atoms: N_1  and  C_2
REMARK    2  A    between atoms: C_6  and  N_7
REMARK                            x       y       z     vdW  Elec       q    Type
REMARK                         _______ _______ _______ _____ _____    ______ ____
ROOT
ATOM      1  C   UNL     1      -6.076   5.289 118.781  0.00  0.00    +0.000 A 
ATOM      2  C   UNL     1      -7.331   4.716 118.939  0.00  0.00    +0.000 A 
ATOM      3  C   UNL     1      -7.684   4.084 120.146  0.00  0.00    +0.000 A 
ATOM      4 CL   UNL     1      -9.273   3.388 120.227  0.00  0.00    +0.000 Cl
ATOM      5  C   UNL     1      -6.791   3.990 121.246  0.00  0.00    +0.000 A 
ATOM      6  C   UNL     1      -5.516   4.553 121.035  0.00  0.00    +0.000 A 
ATOM      7 CL   UNL     1      -4.169   4.468 122.106  0.00  0.00    +0.000 Cl
ATOM      8  C   UNL     1      -5.190   5.211 119.840  0.00  0.00    +0.000 A 
ENDROOT
BRANCH   5   9
ATOM      9  N   UNL     1      -7.291   3.472 122.486  0.00  0.00    +0.000 N 
ATOM     10  C   UNL     1      -6.682   3.615 123.699  0.00  0.00    +0.000 C 
ATOM     11  N   UNL     1      -6.011   2.699 124.332  0.00  0.00    +0.000 NA
ATOM     12  C   UNL     1      -5.570   3.399 125.587  0.00  0.00    +0.000 C 
ATOM     13  C   UNL     1      -5.823   4.888 125.347  0.00  0.00    +0.000 C 
ATOM     14  N   UNL     1      -6.856   4.807 124.338  0.00  0.00    +0.000 N 
ATOM     15  H   UNL     1      -7.587   2.508 122.337  0.00  0.00    +0.000 HD
ATOM     16  H   UNL     1      -7.028   5.613 123.757  0.00  0.00    +0.000 HD
ENDBRANCH   5   9
BRANCH   1  17
ATOM     17  N   UNL     1      -5.733   6.018 117.658  0.00  0.00    +0.000 N 
ATOM     18  H   UNL     1      -4.797   5.976 117.278  0.00  0.00    +0.000 HD
ATOM     19  H   UNL     1      -6.315   6.797 117.371  0.00  0.00    +0.000 HD
ENDBRANCH   1  17
TORSDOF 2
ENDMDL
MODEL 4
REMARK VINA RESULT:      -5.6      8.149      9.723
REMARK  Name = Apraclonidine
REMARK  2 active torsions:
REMARK  status: ('A' for Active; 'I' for Inactive)
REMARK    1  A    between atoms: N_1  and  C_2
REMARK    2  A    between atoms: C_6  and  N_7
REMARK                            x       y       z     vdW  Elec       q    Type
REMARK                         _______ _______ _______ _____ _____    ______ ____
ROOT
ATOM      1  C   UNL     1     -12.603   9.071 128.995  0.00  0.00    +0.000 A 
ATOM      2  C   UNL     1     -11.841   8.557 127.955  0.00  0.00    +0.000 A 
ATOM      3  C   UNL     1     -11.079   7.386 128.134  0.00  0.00    +0.000 A 
ATOM      4 CL   UNL     1     -10.152   6.842 126.770  0.00  0.00    +0.000 Cl
ATOM      5  C   UNL     1     -11.040   6.685 129.368  0.00  0.00    +0.000 A 
ATOM      6  C   UNL     1     -11.799   7.257 130.409  0.00  0.00    +0.000 A 
ATOM      7 CL   UNL     1     -11.837   6.740 132.052  0.00  0.00    +0.000 Cl
ATOM      8  C   UNL     1     -12.580   8.404 130.207  0.00  0.00    +0.000 A 
ENDROOT
BRANCH   5   9
ATOM      9  N   UNL     1     -10.366   5.420 129.410  0.00  0.00    +0.000 N 
ATOM     10  C   UNL     1      -9.076   5.232 129.813  0.00  0.00    +0.000 C 
ATOM     11  N   UNL     1      -8.055   5.018 129.037  0.00  0.00    +0.000 NA
ATOM     12  C   UNL     1      -6.909   4.892 130.001  0.00  0.00    +0.000 C 
ATOM     13  C   UNL     1      -7.432   5.404 131.343  0.00  0.00    +0.000 C 
ATOM     14  N   UNL     1      -8.850   5.190 131.157  0.00  0.00    +0.000 N 
ATOM     15  H   UNL     1     -10.553   4.925 128.540  0.00  0.00    +0.000 HD
ATOM     16  H   UNL     1      -9.496   5.698 131.741  0.00  0.00    +0.000 HD
ENDBRANCH   5   9
BRANCH   1  17
ATOM     17  N   UNL     1     -13.452  10.149 128.827  0.00  0.00    +0.000 N 
ATOM     18  H   UNL     1     -14.084  10.431 129.562  0.00  0.00    +0.000 HD
ATOM     19  H   UNL     1     -13.647  10.489 127.891  0.00  0.00    +0.000 HD
ENDBRANCH   1  17
TORSDOF 2
ENDMDL
MODEL 5
REMARK VINA RESULT:      -5.5      1.664      3.300
REMARK  Name = Apraclonidine
REMARK  2 active torsions:
REMARK  status: ('A' for Active; 'I' for Inactive)
REMARK    1  A    between atoms: N_1  and  C_2
REMARK    2  A    between atoms: C_6  and  N_7
REMARK                            x       y       z     vdW  Elec       q    Type
REMARK                         _______ _______ _______ _____ _____    ______ ____
ROOT
ATOM      1  C   UNL     1      -6.101   5.150 118.770  0.00  0.00    +0.000 A 
ATOM      2  C   UNL     1      -7.387   4.652 118.929  0.00  0.00    +0.000 A 
ATOM      3  C   UNL     1      -7.801   4.112 120.161  0.00  0.00    +0.000 A 
ATOM      4 CL   UNL     1      -9.426   3.505 120.241  0.00  0.00    +0.000 Cl
ATOM      5  C   UNL     1      -6.940   4.038 121.287  0.00  0.00    +0.000 A 
ATOM      6  C   UNL     1      -5.632   4.522 121.077  0.00  0.00    +0.000 A 
ATOM      7 CL   UNL     1      -4.316   4.431 122.185  0.00  0.00    +0.000 Cl
ATOM      8  C   UNL     1      -5.244   5.089 119.855  0.00  0.00    +0.000 A 
ENDROOT
BRANCH   5   9
ATOM      9  N   UNL     1      -7.494   3.621 122.542  0.00  0.00    +0.000 N 
ATOM     10  C   UNL     1      -7.733   2.326 122.902  0.00  0.00    +0.000 C 
ATOM     11  N   UNL     1      -8.894   1.741 122.932  0.00  0.00    +0.000 NA
ATOM     12  C   UNL     1      -8.566   0.347 123.388  0.00  0.00    +0.000 C 
ATOM     13  C   UNL     1      -7.048   0.211 123.262  0.00  0.00    +0.000 C 
ATOM     14  N   UNL     1      -6.664   1.602 123.342  0.00  0.00    +0.000 N 
ATOM     15  H   UNL     1      -8.296   4.213 122.754  0.00  0.00    +0.000 HD
ATOM     16  H   UNL     1      -5.758   1.874 122.994  0.00  0.00    +0.000 HD
ENDBRANCH   5   9
BRANCH   1  17
ATOM     17  N   UNL     1      -5.694   5.791 117.616  0.00  0.00    +0.000 N 
ATOM     18  H   UNL     1      -4.799   6.256 117.569  0.00  0.00    +0.000 HD
ATOM     19  H   UNL     1      -6.382   6.038 116.912  0.00  0.00    +0.000 HD
ENDBRANCH   1  17
TORSDOF 2
ENDMDL
MODEL 6
REMARK VINA RESULT:      -5.4      7.535      9.264
REMARK  Name = Apraclonidine
REMARK  2 active torsions:
REMARK  status: ('A' for Active; 'I' for Inactive)
REMARK    1  A    between atoms: N_1  and  C_2
REMARK    2  A    between atoms: C_6  and  N_7
REMARK                            x       y       z     vdW  Elec       q    Type
REMARK                         _______ _______ _______ _____ _____    ______ ____
ROOT
ATOM      1  C   UNL     1      -8.424  -2.642 124.397  0.00  0.00    +0.000 A 
ATOM      2  C   UNL     1      -8.915  -3.290 125.522  0.00  0.00    +0.000 A 
ATOM      3  C   UNL     1      -8.318  -3.093 126.782  0.00  0.00    +0.000 A 
ATOM      4 CL   UNL     1      -9.005  -3.967 128.117  0.00  0.00    +0.000 Cl
ATOM      5  C   UNL     1      -7.195  -2.245 126.967  0.00  0.00    +0.000 A 
ATOM      6  C   UNL     1      -6.703  -1.632 125.797  0.00  0.00    +0.000 A 
ATOM      7 CL   UNL     1      -5.275  -0.678 125.661  0.00  0.00    +0.000 Cl
ATOM      8  C   UNL     1      -7.330  -1.810 124.554  0.00  0.00    +0.000 A 
ENDROOT
BRANCH   5   9
ATOM      9  N   UNL     1      -6.754  -1.982 128.307  0.00  0.00    +0.000 N 
ATOM     10  C   UNL     1      -5.768  -2.666 128.956  0.00  0.00    +0.000 C 
ATOM     11  N   UNL     1      -5.939  -3.564 129.880  0.00  0.00    +0.000 NA
ATOM     12  C   UNL     1      -4.535  -3.976 130.226  0.00  0.00    +0.000 C 
ATOM     13  C   UNL     1      -3.647  -3.408 129.118  0.00  0.00    +0.000 C 
ATOM     14  N   UNL     1      -4.482  -2.319 128.661  0.00  0.00    +0.000 N 
ATOM     15  H   UNL     1      -7.574  -1.872 128.901  0.00  0.00    +0.000 HD
ATOM     16  H   UNL     1      -4.315  -1.934 127.744  0.00  0.00    +0.000 HD
ENDBRANCH   5   9
BRANCH   1  17
ATOM     17  N   UNL     1      -9.051  -2.718 123.168  0.00  0.00    +0.000 N 
ATOM     18  H   UNL     1      -9.991  -3.078 123.087  0.00  0.00    +0.000 HD
ATOM     19  H   UNL     1      -8.495  -2.677 122.321  0.00  0.00    +0.000 HD
ENDBRANCH   1  17
TORSDOF 2
ENDMDL
MODEL 7
REMARK VINA RESULT:      -5.3      5.454      7.438
REMARK  Name = Apraclonidine
REMARK  2 active torsions:
REMARK  status: ('A' for Active; 'I' for Inactive)
REMARK    1  A    between atoms: N_1  and  C_2
REMARK    2  A    between atoms: C_6  and  N_7
REMARK                            x       y       z     vdW  Elec       q    Type
REMARK                         _______ _______ _______ _____ _____    ______ ____
ROOT
ATOM      1  C   UNL     1      -5.517  -3.307 124.153  0.00  0.00    +0.000 A 
ATOM      2  C   UNL     1      -6.869  -3.618 124.169  0.00  0.00    +0.000 A 
ATOM      3  C   UNL     1      -7.808  -2.713 124.700  0.00  0.00    +0.000 A 
ATOM      4 CL   UNL     1      -9.471  -3.213 124.683  0.00  0.00    +0.000 Cl
ATOM      5  C   UNL     1      -7.430  -1.459 125.248  0.00  0.00    +0.000 A 
ATOM      6  C   UNL     1      -6.046  -1.194 125.246  0.00  0.00    +0.000 A 
ATOM      7 CL   UNL     1      -5.260   0.156 125.972  0.00  0.00    +0.000 Cl
ATOM      8  C   UNL     1      -5.125  -2.090 124.682  0.00  0.00    +0.000 A 
ENDROOT
BRANCH   5   9
ATOM      9  N   UNL     1      -8.466  -0.539 125.619  0.00  0.00    +0.000 N 
ATOM     10  C   UNL     1      -8.706   0.659 125.010  0.00  0.00    +0.000 C 
ATOM     11  N   UNL     1      -8.391   1.831 125.474  0.00  0.00    +0.000 NA
ATOM     12  C   UNL     1      -8.880   2.768 124.405  0.00  0.00    +0.000 C 
ATOM     13  C   UNL     1      -9.182   1.894 123.187  0.00  0.00    +0.000 C 
ATOM     14  N   UNL     1      -9.408   0.624 123.841  0.00  0.00    +0.000 N 
ATOM     15  H   UNL     1      -8.460  -0.438 126.633  0.00  0.00    +0.000 HD
ATOM     16  H   UNL     1      -9.337  -0.220 123.294  0.00  0.00    +0.000 HD
ENDBRANCH   5   9
BRANCH   1  17
ATOM     17  N   UNL     1      -4.580  -4.115 123.538  0.00  0.00    +0.000 N 
ATOM     18  H   UNL     1      -3.609  -4.090 123.818  0.00  0.00    +0.000 HD
ATOM     19  H   UNL     1      -4.792  -4.528 122.637  0.00  0.00    +0.000 HD
ENDBRANCH   1  17
TORSDOF 2
ENDMDL
MODEL 8
REMARK VINA RESULT:      -5.2      4.253      5.282
REMARK  Name = Apraclonidine
REMARK  2 active torsions:
REMARK  status: ('A' for Active; 'I' for Inactive)
REMARK    1  A    between atoms: N_1  and  C_2
REMARK    2  A    between atoms: C_6  and  N_7
REMARK                            x       y       z     vdW  Elec       q    Type
REMARK                         _______ _______ _______ _____ _____    ______ ____
ROOT
ATOM      1  C   UNL     1      -7.484   3.127 122.519  0.00  0.00    +0.000 A 
ATOM      2  C   UNL     1      -6.531   2.824 123.482  0.00  0.00    +0.000 A 
ATOM      3  C   UNL     1      -6.842   1.967 124.555  0.00  0.00    +0.000 A 
ATOM      4 CL   UNL     1      -5.578   1.670 125.708  0.00  0.00    +0.000 Cl
ATOM      5  C   UNL     1      -8.126   1.383 124.715  0.00  0.00    +0.000 A 
ATOM      6  C   UNL     1      -9.077   1.742 123.738  0.00  0.00    +0.000 A 
ATOM      7 CL   UNL     1     -10.749   1.331 123.735  0.00  0.00    +0.000 Cl
ATOM      8  C   UNL     1      -8.743   2.569 122.655  0.00  0.00    +0.000 A 
ENDROOT
BRANCH   5   9
ATOM      9  N   UNL     1      -8.303   0.401 125.745  0.00  0.00    +0.000 N 
ATOM     10  C   UNL     1      -8.473  -0.937 125.532  0.00  0.00    +0.000 C 
ATOM     11  N   UNL     1      -9.593  -1.590 125.615  0.00  0.00    +0.000 NA
ATOM     12  C   UNL     1      -9.197  -3.001 125.281  0.00  0.00    +0.000 C 
ATOM     13  C   UNL     1      -7.788  -2.912 124.693  0.00  0.00    +0.000 C 
ATOM     14  N   UNL     1      -7.348  -1.668 125.283  0.00  0.00    +0.000 N 
ATOM     15  H   UNL     1      -8.986   0.753 126.414  0.00  0.00    +0.000 HD
ATOM     16  H   UNL     1      -6.574  -1.179 124.859  0.00  0.00    +0.000 HD
ENDBRANCH   5   9
BRANCH   1  17
ATOM     17  N   UNL     1      -7.186   3.869 121.392  0.00  0.00    +0.000 N 
ATOM     18  H   UNL     1      -6.312   3.740 120.903  0.00  0.00    +0.000 HD
ATOM     19  H   UNL     1      -7.700   4.723 121.206  0.00  0.00    +0.000 HD
ENDBRANCH   1  17
TORSDOF 2
ENDMDL
MODEL 9
REMARK VINA RESULT:      -5.2      7.434      9.915
REMARK  Name = Apraclonidine
REMARK  2 active torsions:
REMARK  status: ('A' for Active; 'I' for Inactive)
REMARK    1  A    between atoms: N_1  and  C_2
REMARK    2  A    between atoms: C_6  and  N_7
REMARK                            x       y       z     vdW  Elec       q    Type
REMARK                         _______ _______ _______ _____ _____    ______ ____
ROOT
ATOM      1  C   UNL     1      -5.759  -3.237 129.579  0.00  0.00    +0.000 A 
ATOM      2  C   UNL     1      -5.296  -2.272 128.695  0.00  0.00    +0.000 A 
ATOM      3  C   UNL     1      -6.138  -1.753 127.694  0.00  0.00    +0.000 A 
ATOM      4 CL   UNL     1      -5.449  -0.561 126.635  0.00  0.00    +0.000 Cl
ATOM      5  C   UNL     1      -7.480  -2.186 127.528  0.00  0.00    +0.000 A 
ATOM      6  C   UNL     1      -7.902  -3.192 128.421  0.00  0.00    +0.000 A 
ATOM      7 CL   UNL     1      -9.406  -4.031 128.382  0.00  0.00    +0.000 Cl
ATOM      8  C   UNL     1      -7.063  -3.675 129.436  0.00  0.00    +0.000 A 
ENDROOT
BRANCH   5   9
ATOM      9  N   UNL     1      -8.308  -1.490 126.587  0.00  0.00    +0.000 N 
ATOM     10  C   UNL     1      -8.537  -1.884 125.301  0.00  0.00    +0.000 C 
ATOM     11  N   UNL     1      -8.006  -1.364 124.234  0.00  0.00    +0.000 NA
ATOM     12  C   UNL     1      -8.600  -2.179 123.120  0.00  0.00    +0.000 C 
ATOM     13  C   UNL     1      -9.242  -3.396 123.787  0.00  0.00    +0.000 C 
ATOM     14  N   UNL     1      -9.465  -2.866 125.113  0.00  0.00    +0.000 N 
ATOM     15  H   UNL     1      -8.083  -0.497 126.630  0.00  0.00    +0.000 HD
ATOM     16  H   UNL     1      -9.602  -3.512 125.876  0.00  0.00    +0.000 HD
ENDBRANCH   5   9
BRANCH   1  17
ATOM     17  N   UNL     1      -5.002  -3.687 130.645  0.00  0.00    +0.000 N 
ATOM     18  H   UNL     1      -4.722  -4.655 130.710  0.00  0.00    +0.000 HD
ATOM     19  H   UNL     1      -4.955  -3.132 131.493  0.00  0.00    +0.000 HD
ENDBRANCH   1  17
TORSDOF 2
ENDMDL
